data_job_02500
_audit_creation_date              2018-12-19
_audit_creation_method            'Materials Studio'
_symmetry_space_group_name_H-M    'P1'
_symmetry_Int_Tables_number       1
_symmetry_cell_setting            triclinic
loop_
_symmetry_equiv_pos_as_xyz
  x,y,z
_cell_length_a                    30.0354
_cell_length_b                    7.2754
_cell_length_c                    27.5319
_cell_angle_alpha                 90.0000
_cell_angle_beta                  93.1885
_cell_angle_gamma                 90.0000
loop_
_atom_site_label
_atom_site_type_symbol
_atom_site_fract_x
_atom_site_fract_y
_atom_site_fract_z
_atom_site_U_iso_or_equiv
_atom_site_adp_type
_atom_site_occupancy
C1     C     0.44388   0.11039   0.87821   0.00000  Uiso   1.00
C2     C     0.48100   0.97113   0.88930   0.00000  Uiso   1.00
C3     C     0.52288   0.01021   0.91065   0.00000  Uiso   1.00
C4     C     0.55214   0.86370   0.91772   0.00000  Uiso   1.00
C5     C     0.61165   0.67471   0.93701   0.00000  Uiso   1.00
C6     C     0.43166   0.09349   0.82389   0.00000  Uiso   1.00
C7     C     0.43203   0.23546   0.79025   0.00000  Uiso   1.00
C8     C     0.41974   0.19194   0.74226   0.00000  Uiso   1.00
C9     C     0.40261   0.19295   0.66001   0.00000  Uiso   1.00
C10    C     0.40356   0.04062   0.90403   0.00000  Uiso   1.00
C11    C     0.38030   0.13815   0.93776   0.00000  Uiso   1.00
C12    C     0.34435   0.05014   0.95723   0.00000  Uiso   1.00
C13    C     0.28359   0.96906   0.99941   0.00000  Uiso   1.00
C14    C     0.42138   0.78068   0.85280   0.00000  Uiso   1.00
C15    C     0.46878   0.79204   0.87550   0.00000  Uiso   1.00
C16    C     0.49799   0.64542   0.88254   0.00000  Uiso   1.00
C17    C     0.53990   0.68428   0.90390   0.00000  Uiso   1.00
C18    C     0.41944   0.91440   0.81009   0.00000  Uiso   1.00
C19    C     0.40714   0.87067   0.76214   0.00000  Uiso   1.00
C20    C     0.40750   0.01253   0.72843   0.00000  Uiso   1.00
C21    C     0.39134   0.86152   0.89023   0.00000  Uiso   1.00
C22    C     0.35541   0.77335   0.90965   0.00000  Uiso   1.00
C23    C     0.33211   0.87073   0.94340   0.00000  Uiso   1.00
H24    H     0.45339   0.24982   0.88895   0.00000  Uiso   1.00
H25    H     0.53232   0.14883   0.92132   0.00000  Uiso   1.00
H26    H     0.44149   0.37404   0.80094   0.00000  Uiso   1.00
H27    H     0.38977   0.27674   0.94842   0.00000  Uiso   1.00
H28    H     0.61445   0.95789   0.95110   0.00000  Uiso   1.00
H29    H     0.42290   0.43278   0.69728   0.00000  Uiso   1.00
H30    H     0.31384   0.22760   0.00828   0.00000  Uiso   1.00
H31    H     0.41187   0.64124   0.84206   0.00000  Uiso   1.00
H32    H     0.48852   0.50684   0.87186   0.00000  Uiso   1.00
H33    H     0.39769   0.73206   0.75148   0.00000  Uiso   1.00
H34    H     0.34597   0.63476   0.89896   0.00000  Uiso   1.00
H35    H     0.57890   0.43683   0.91095   0.00000  Uiso   1.00
H36    H     0.38735   0.91173   0.65713   0.00000  Uiso   1.00
H37    H     0.27829   0.70655   0.96814   0.00000  Uiso   1.00
O38    O     0.64786   0.61994   0.95146   0.00000  Uiso   1.00
O39    O     0.39654   0.24299   0.61846   0.00000  Uiso   1.00
O40    O     0.25346   0.97380   0.02649   0.00000  Uiso   1.00
N41    N     0.59556   0.85370   0.93757   0.00000  Uiso   1.00
N42    N     0.41648   0.29768   0.70026   0.00000  Uiso   1.00
N43    N     0.31451   0.10588   0.99101   0.00000  Uiso   1.00
N44    N     0.57643   0.57332   0.91597   0.00000  Uiso   1.00
N45    N     0.39735   0.01731   0.67866   0.00000  Uiso   1.00
N46    N     0.29538   0.82551   0.96941   0.00000  Uiso   1.00
C47    C     0.94388   0.61039   0.87821   0.00000  Uiso   1.00
C48    C     0.98100   0.47113   0.88930   0.00000  Uiso   1.00
C49    C     0.02288   0.51021   0.91065   0.00000  Uiso   1.00
C50    C     0.05214   0.36370   0.91772   0.00000  Uiso   1.00
C51    C     0.11165   0.17471   0.93701   0.00000  Uiso   1.00
C52    C     0.93166   0.59349   0.82389   0.00000  Uiso   1.00
C53    C     0.93203   0.73546   0.79025   0.00000  Uiso   1.00
C54    C     0.91974   0.69194   0.74226   0.00000  Uiso   1.00
C55    C     0.90261   0.69295   0.66001   0.00000  Uiso   1.00
C56    C     0.90356   0.54062   0.90403   0.00000  Uiso   1.00
C57    C     0.88030   0.63815   0.93776   0.00000  Uiso   1.00
C58    C     0.84435   0.55014   0.95723   0.00000  Uiso   1.00
C59    C     0.78359   0.46906   0.99941   0.00000  Uiso   1.00
C60    C     0.92138   0.28068   0.85280   0.00000  Uiso   1.00
C61    C     0.96878   0.29204   0.87550   0.00000  Uiso   1.00
C62    C     0.99799   0.14542   0.88254   0.00000  Uiso   1.00
C63    C     0.03990   0.18428   0.90390   0.00000  Uiso   1.00
C64    C     0.91944   0.41440   0.81009   0.00000  Uiso   1.00
C65    C     0.90714   0.37067   0.76214   0.00000  Uiso   1.00
C66    C     0.90750   0.51253   0.72843   0.00000  Uiso   1.00
C67    C     0.89134   0.36152   0.89023   0.00000  Uiso   1.00
C68    C     0.85541   0.27335   0.90965   0.00000  Uiso   1.00
C69    C     0.83211   0.37073   0.94340   0.00000  Uiso   1.00
H70    H     0.95339   0.74982   0.88895   0.00000  Uiso   1.00
H71    H     0.03232   0.64883   0.92132   0.00000  Uiso   1.00
H72    H     0.94149   0.87404   0.80094   0.00000  Uiso   1.00
H73    H     0.88977   0.77674   0.94842   0.00000  Uiso   1.00
H74    H     0.11445   0.45789   0.95110   0.00000  Uiso   1.00
H75    H     0.92290   0.93278   0.69728   0.00000  Uiso   1.00
H76    H     0.81384   0.72760   0.00828   0.00000  Uiso   1.00
H77    H     0.91187   0.14124   0.84206   0.00000  Uiso   1.00
H78    H     0.98852   0.00684   0.87186   0.00000  Uiso   1.00
H79    H     0.89769   0.23206   0.75148   0.00000  Uiso   1.00
H80    H     0.84597   0.13476   0.89896   0.00000  Uiso   1.00
H81    H     0.07890   0.93683   0.91095   0.00000  Uiso   1.00
H82    H     0.88735   0.41173   0.65713   0.00000  Uiso   1.00
H83    H     0.77829   0.20655   0.96814   0.00000  Uiso   1.00
O84    O     0.14786   0.11994   0.95146   0.00000  Uiso   1.00
O85    O     0.89654   0.74299   0.61846   0.00000  Uiso   1.00
O86    O     0.75346   0.47380   0.02649   0.00000  Uiso   1.00
N87    N     0.09556   0.35370   0.93757   0.00000  Uiso   1.00
N88    N     0.91648   0.79768   0.70026   0.00000  Uiso   1.00
N89    N     0.81451   0.60588   0.99101   0.00000  Uiso   1.00
N90    N     0.07643   0.07332   0.91597   0.00000  Uiso   1.00
N91    N     0.89735   0.51731   0.67866   0.00000  Uiso   1.00
N92    N     0.79538   0.32551   0.96941   0.00000  Uiso   1.00
C93    C     0.55612   0.11039   0.62179   0.00000  Uiso   1.00
C94    C     0.51900   0.97113   0.61070   0.00000  Uiso   1.00
C95    C     0.47712   0.01021   0.58935   0.00000  Uiso   1.00
C96    C     0.44786   0.86370   0.58228   0.00000  Uiso   1.00
C97    C     0.38835   0.67471   0.56299   0.00000  Uiso   1.00
C98    C     0.56834   0.09349   0.67611   0.00000  Uiso   1.00
C99    C     0.56797   0.23546   0.70975   0.00000  Uiso   1.00
C100   C     0.58026   0.19194   0.75774   0.00000  Uiso   1.00
C101   C     0.59739   0.19295   0.83999   0.00000  Uiso   1.00
C102   C     0.59644   0.04062   0.59597   0.00000  Uiso   1.00
C103   C     0.61970   0.13815   0.56224   0.00000  Uiso   1.00
C104   C     0.65565   0.05014   0.54277   0.00000  Uiso   1.00
C105   C     0.71641   0.96906   0.50059   0.00000  Uiso   1.00
C106   C     0.57862   0.78068   0.64720   0.00000  Uiso   1.00
C107   C     0.53122   0.79204   0.62450   0.00000  Uiso   1.00
C108   C     0.50201   0.64542   0.61746   0.00000  Uiso   1.00
C109   C     0.46010   0.68428   0.59610   0.00000  Uiso   1.00
C110   C     0.58056   0.91440   0.68991   0.00000  Uiso   1.00
C111   C     0.59286   0.87067   0.73786   0.00000  Uiso   1.00
C112   C     0.59250   0.01253   0.77157   0.00000  Uiso   1.00
C113   C     0.60866   0.86152   0.60977   0.00000  Uiso   1.00
C114   C     0.64459   0.77335   0.59035   0.00000  Uiso   1.00
C115   C     0.66789   0.87073   0.55660   0.00000  Uiso   1.00
H116   H     0.54661   0.24982   0.61105   0.00000  Uiso   1.00
H117   H     0.46768   0.14883   0.57868   0.00000  Uiso   1.00
H118   H     0.55851   0.37404   0.69906   0.00000  Uiso   1.00
H119   H     0.61023   0.27674   0.55158   0.00000  Uiso   1.00
H120   H     0.38555   0.95789   0.54890   0.00000  Uiso   1.00
H121   H     0.57710   0.43278   0.80272   0.00000  Uiso   1.00
H122   H     0.68616   0.22760   0.49172   0.00000  Uiso   1.00
H123   H     0.58813   0.64124   0.65794   0.00000  Uiso   1.00
H124   H     0.51148   0.50684   0.62814   0.00000  Uiso   1.00
H125   H     0.60231   0.73206   0.74852   0.00000  Uiso   1.00
H126   H     0.65403   0.63476   0.60104   0.00000  Uiso   1.00
H127   H     0.42110   0.43683   0.58905   0.00000  Uiso   1.00
H128   H     0.61265   0.91173   0.84287   0.00000  Uiso   1.00
H129   H     0.72171   0.70655   0.53186   0.00000  Uiso   1.00
O130   O     0.35214   0.61994   0.54854   0.00000  Uiso   1.00
O131   O     0.60346   0.24299   0.88154   0.00000  Uiso   1.00
O132   O     0.74654   0.97380   0.47351   0.00000  Uiso   1.00
N133   N     0.40444   0.85370   0.56243   0.00000  Uiso   1.00
N134   N     0.58352   0.29768   0.79974   0.00000  Uiso   1.00
N135   N     0.68549   0.10588   0.50899   0.00000  Uiso   1.00
N136   N     0.42357   0.57332   0.58403   0.00000  Uiso   1.00
N137   N     0.60265   0.01731   0.82134   0.00000  Uiso   1.00
N138   N     0.70462   0.82551   0.53059   0.00000  Uiso   1.00
C139   C     0.05612   0.61039   0.62179   0.00000  Uiso   1.00
C140   C     0.01900   0.47113   0.61070   0.00000  Uiso   1.00
C141   C     0.97712   0.51021   0.58935   0.00000  Uiso   1.00
C142   C     0.94786   0.36370   0.58228   0.00000  Uiso   1.00
C143   C     0.88835   0.17471   0.56299   0.00000  Uiso   1.00
C144   C     0.06834   0.59349   0.67611   0.00000  Uiso   1.00
C145   C     0.06797   0.73546   0.70975   0.00000  Uiso   1.00
C146   C     0.08026   0.69194   0.75774   0.00000  Uiso   1.00
C147   C     0.09739   0.69295   0.83999   0.00000  Uiso   1.00
C148   C     0.09644   0.54062   0.59597   0.00000  Uiso   1.00
C149   C     0.11970   0.63815   0.56224   0.00000  Uiso   1.00
C150   C     0.15565   0.55014   0.54277   0.00000  Uiso   1.00
C151   C     0.21641   0.46906   0.50059   0.00000  Uiso   1.00
C152   C     0.07862   0.28068   0.64720   0.00000  Uiso   1.00
C153   C     0.03122   0.29204   0.62450   0.00000  Uiso   1.00
C154   C     0.00201   0.14542   0.61746   0.00000  Uiso   1.00
C155   C     0.96010   0.18428   0.59610   0.00000  Uiso   1.00
C156   C     0.08056   0.41440   0.68991   0.00000  Uiso   1.00
C157   C     0.09286   0.37067   0.73786   0.00000  Uiso   1.00
C158   C     0.09250   0.51253   0.77157   0.00000  Uiso   1.00
C159   C     0.10866   0.36152   0.60977   0.00000  Uiso   1.00
C160   C     0.14459   0.27335   0.59035   0.00000  Uiso   1.00
C161   C     0.16789   0.37073   0.55660   0.00000  Uiso   1.00
H162   H     0.04661   0.74982   0.61105   0.00000  Uiso   1.00
H163   H     0.96768   0.64883   0.57868   0.00000  Uiso   1.00
H164   H     0.05851   0.87404   0.69906   0.00000  Uiso   1.00
H165   H     0.11023   0.77674   0.55158   0.00000  Uiso   1.00
H166   H     0.88555   0.45789   0.54890   0.00000  Uiso   1.00
H167   H     0.07710   0.93278   0.80272   0.00000  Uiso   1.00
H168   H     0.18616   0.72760   0.49172   0.00000  Uiso   1.00
H169   H     0.08813   0.14124   0.65794   0.00000  Uiso   1.00
H170   H     0.01148   0.00684   0.62814   0.00000  Uiso   1.00
H171   H     0.10231   0.23206   0.74852   0.00000  Uiso   1.00
H172   H     0.15403   0.13476   0.60104   0.00000  Uiso   1.00
H173   H     0.92110   0.93683   0.58905   0.00000  Uiso   1.00
H174   H     0.11265   0.41173   0.84287   0.00000  Uiso   1.00
H175   H     0.22171   0.20655   0.53186   0.00000  Uiso   1.00
O176   O     0.85214   0.11994   0.54854   0.00000  Uiso   1.00
O177   O     0.10346   0.74299   0.88154   0.00000  Uiso   1.00
O178   O     0.24654   0.47380   0.47351   0.00000  Uiso   1.00
N179   N     0.90444   0.35370   0.56243   0.00000  Uiso   1.00
N180   N     0.08352   0.79768   0.79974   0.00000  Uiso   1.00
N181   N     0.18549   0.60588   0.50899   0.00000  Uiso   1.00
N182   N     0.92357   0.07332   0.58403   0.00000  Uiso   1.00
N183   N     0.10265   0.51731   0.82134   0.00000  Uiso   1.00
N184   N     0.20462   0.32551   0.53059   0.00000  Uiso   1.00
C185   C     0.55612   0.88961   0.12179   0.00000  Uiso   1.00
C186   C     0.51900   0.02887   0.11070   0.00000  Uiso   1.00
C187   C     0.47712   0.98979   0.08935   0.00000  Uiso   1.00
C188   C     0.44786   0.13630   0.08228   0.00000  Uiso   1.00
C189   C     0.38835   0.32529   0.06299   0.00000  Uiso   1.00
C190   C     0.56834   0.90651   0.17611   0.00000  Uiso   1.00
C191   C     0.56797   0.76454   0.20975   0.00000  Uiso   1.00
C192   C     0.58026   0.80806   0.25774   0.00000  Uiso   1.00
C193   C     0.59739   0.80705   0.33999   0.00000  Uiso   1.00
C194   C     0.59644   0.95938   0.09597   0.00000  Uiso   1.00
C195   C     0.61970   0.86185   0.06224   0.00000  Uiso   1.00
C196   C     0.65565   0.94986   0.04277   0.00000  Uiso   1.00
C197   C     0.71641   0.03094   0.00059   0.00000  Uiso   1.00
C198   C     0.57862   0.21932   0.14720   0.00000  Uiso   1.00
C199   C     0.53122   0.20796   0.12450   0.00000  Uiso   1.00
C200   C     0.50201   0.35458   0.11746   0.00000  Uiso   1.00
C201   C     0.46010   0.31572   0.09610   0.00000  Uiso   1.00
C202   C     0.58056   0.08560   0.18991   0.00000  Uiso   1.00
C203   C     0.59286   0.12933   0.23786   0.00000  Uiso   1.00
C204   C     0.59250   0.98747   0.27157   0.00000  Uiso   1.00
C205   C     0.60866   0.13848   0.10977   0.00000  Uiso   1.00
C206   C     0.64459   0.22665   0.09035   0.00000  Uiso   1.00
C207   C     0.66789   0.12927   0.05660   0.00000  Uiso   1.00
H208   H     0.54661   0.75018   0.11105   0.00000  Uiso   1.00
H209   H     0.46768   0.85117   0.07868   0.00000  Uiso   1.00
H210   H     0.55851   0.62596   0.19906   0.00000  Uiso   1.00
H211   H     0.61023   0.72326   0.05158   0.00000  Uiso   1.00
H212   H     0.38555   0.04211   0.04890   0.00000  Uiso   1.00
H213   H     0.57710   0.56722   0.30272   0.00000  Uiso   1.00
H214   H     0.68616   0.77240   0.99172   0.00000  Uiso   1.00
H215   H     0.58813   0.35876   0.15794   0.00000  Uiso   1.00
H216   H     0.51148   0.49316   0.12814   0.00000  Uiso   1.00
H217   H     0.60231   0.26794   0.24852   0.00000  Uiso   1.00
H218   H     0.65403   0.36524   0.10104   0.00000  Uiso   1.00
H219   H     0.42110   0.56317   0.08905   0.00000  Uiso   1.00
H220   H     0.61265   0.08827   0.34287   0.00000  Uiso   1.00
H221   H     0.72171   0.29345   0.03186   0.00000  Uiso   1.00
O222   O     0.35214   0.38006   0.04854   0.00000  Uiso   1.00
O223   O     0.60346   0.75701   0.38154   0.00000  Uiso   1.00
O224   O     0.74654   0.02620   0.97351   0.00000  Uiso   1.00
N225   N     0.40444   0.14630   0.06243   0.00000  Uiso   1.00
N226   N     0.58352   0.70232   0.29974   0.00000  Uiso   1.00
N227   N     0.68549   0.89412   0.00899   0.00000  Uiso   1.00
N228   N     0.42357   0.42668   0.08403   0.00000  Uiso   1.00
N229   N     0.60265   0.98269   0.32134   0.00000  Uiso   1.00
N230   N     0.70462   0.17449   0.03059   0.00000  Uiso   1.00
C231   C     0.05612   0.38961   0.12179   0.00000  Uiso   1.00
C232   C     0.01900   0.52887   0.11070   0.00000  Uiso   1.00
C233   C     0.97712   0.48979   0.08935   0.00000  Uiso   1.00
C234   C     0.94786   0.63630   0.08228   0.00000  Uiso   1.00
C235   C     0.88835   0.82529   0.06299   0.00000  Uiso   1.00
C236   C     0.06834   0.40651   0.17611   0.00000  Uiso   1.00
C237   C     0.06797   0.26454   0.20975   0.00000  Uiso   1.00
C238   C     0.08026   0.30806   0.25774   0.00000  Uiso   1.00
C239   C     0.09739   0.30705   0.33999   0.00000  Uiso   1.00
C240   C     0.09644   0.45938   0.09597   0.00000  Uiso   1.00
C241   C     0.11970   0.36185   0.06224   0.00000  Uiso   1.00
C242   C     0.15565   0.44986   0.04277   0.00000  Uiso   1.00
C243   C     0.21641   0.53094   0.00059   0.00000  Uiso   1.00
C244   C     0.07862   0.71932   0.14720   0.00000  Uiso   1.00
C245   C     0.03122   0.70796   0.12450   0.00000  Uiso   1.00
C246   C     0.00201   0.85458   0.11746   0.00000  Uiso   1.00
C247   C     0.96010   0.81572   0.09610   0.00000  Uiso   1.00
C248   C     0.08056   0.58560   0.18991   0.00000  Uiso   1.00
C249   C     0.09286   0.62933   0.23786   0.00000  Uiso   1.00
C250   C     0.09250   0.48747   0.27157   0.00000  Uiso   1.00
C251   C     0.10866   0.63848   0.10977   0.00000  Uiso   1.00
C252   C     0.14459   0.72665   0.09035   0.00000  Uiso   1.00
C253   C     0.16789   0.62927   0.05660   0.00000  Uiso   1.00
H254   H     0.04661   0.25018   0.11105   0.00000  Uiso   1.00
H255   H     0.96768   0.35117   0.07868   0.00000  Uiso   1.00
H256   H     0.05851   0.12596   0.19906   0.00000  Uiso   1.00
H257   H     0.11023   0.22326   0.05158   0.00000  Uiso   1.00
H258   H     0.88555   0.54211   0.04890   0.00000  Uiso   1.00
H259   H     0.07710   0.06722   0.30272   0.00000  Uiso   1.00
H260   H     0.18616   0.27240   0.99172   0.00000  Uiso   1.00
H261   H     0.08813   0.85876   0.15794   0.00000  Uiso   1.00
H262   H     0.01148   0.99316   0.12814   0.00000  Uiso   1.00
H263   H     0.10231   0.76794   0.24852   0.00000  Uiso   1.00
H264   H     0.15403   0.86524   0.10104   0.00000  Uiso   1.00
H265   H     0.92110   0.06317   0.08905   0.00000  Uiso   1.00
H266   H     0.11265   0.58827   0.34287   0.00000  Uiso   1.00
H267   H     0.22171   0.79345   0.03186   0.00000  Uiso   1.00
O268   O     0.85214   0.88006   0.04854   0.00000  Uiso   1.00
O269   O     0.10346   0.25701   0.38154   0.00000  Uiso   1.00
O270   O     0.24654   0.52620   0.97351   0.00000  Uiso   1.00
N271   N     0.90444   0.64630   0.06243   0.00000  Uiso   1.00
N272   N     0.08352   0.20232   0.29974   0.00000  Uiso   1.00
N273   N     0.18549   0.39412   0.00899   0.00000  Uiso   1.00
N274   N     0.92357   0.92668   0.08403   0.00000  Uiso   1.00
N275   N     0.10265   0.48269   0.32134   0.00000  Uiso   1.00
N276   N     0.20462   0.67449   0.03059   0.00000  Uiso   1.00
C277   C     0.44388   0.88961   0.37821   0.00000  Uiso   1.00
C278   C     0.48100   0.02887   0.38930   0.00000  Uiso   1.00
C279   C     0.52288   0.98979   0.41065   0.00000  Uiso   1.00
C280   C     0.55214   0.13630   0.41772   0.00000  Uiso   1.00
C281   C     0.61165   0.32529   0.43701   0.00000  Uiso   1.00
C282   C     0.43166   0.90651   0.32389   0.00000  Uiso   1.00
C283   C     0.43203   0.76454   0.29025   0.00000  Uiso   1.00
C284   C     0.41974   0.80806   0.24226   0.00000  Uiso   1.00
C285   C     0.40261   0.80705   0.16001   0.00000  Uiso   1.00
C286   C     0.40356   0.95938   0.40403   0.00000  Uiso   1.00
C287   C     0.38030   0.86185   0.43776   0.00000  Uiso   1.00
C288   C     0.34435   0.94986   0.45723   0.00000  Uiso   1.00
C289   C     0.28359   0.03094   0.49941   0.00000  Uiso   1.00
C290   C     0.42138   0.21932   0.35280   0.00000  Uiso   1.00
C291   C     0.46878   0.20796   0.37550   0.00000  Uiso   1.00
C292   C     0.49799   0.35458   0.38254   0.00000  Uiso   1.00
C293   C     0.53990   0.31572   0.40390   0.00000  Uiso   1.00
C294   C     0.41944   0.08560   0.31009   0.00000  Uiso   1.00
C295   C     0.40714   0.12933   0.26214   0.00000  Uiso   1.00
C296   C     0.40750   0.98747   0.22843   0.00000  Uiso   1.00
C297   C     0.39134   0.13848   0.39023   0.00000  Uiso   1.00
C298   C     0.35541   0.22665   0.40965   0.00000  Uiso   1.00
C299   C     0.33211   0.12927   0.44340   0.00000  Uiso   1.00
H300   H     0.45339   0.75018   0.38895   0.00000  Uiso   1.00
H301   H     0.53232   0.85117   0.42132   0.00000  Uiso   1.00
H302   H     0.44149   0.62596   0.30094   0.00000  Uiso   1.00
H303   H     0.38977   0.72326   0.44842   0.00000  Uiso   1.00
H304   H     0.61445   0.04211   0.45110   0.00000  Uiso   1.00
H305   H     0.42290   0.56722   0.19728   0.00000  Uiso   1.00
H306   H     0.31384   0.77240   0.50828   0.00000  Uiso   1.00
H307   H     0.41187   0.35876   0.34206   0.00000  Uiso   1.00
H308   H     0.48852   0.49316   0.37186   0.00000  Uiso   1.00
H309   H     0.39769   0.26794   0.25148   0.00000  Uiso   1.00
H310   H     0.34597   0.36524   0.39896   0.00000  Uiso   1.00
H311   H     0.57890   0.56317   0.41095   0.00000  Uiso   1.00
H312   H     0.38735   0.08827   0.15713   0.00000  Uiso   1.00
H313   H     0.27829   0.29345   0.46814   0.00000  Uiso   1.00
O314   O     0.64786   0.38006   0.45146   0.00000  Uiso   1.00
O315   O     0.39654   0.75701   0.11846   0.00000  Uiso   1.00
O316   O     0.25346   0.02620   0.52649   0.00000  Uiso   1.00
N317   N     0.59556   0.14630   0.43757   0.00000  Uiso   1.00
N318   N     0.41648   0.70232   0.20026   0.00000  Uiso   1.00
N319   N     0.31451   0.89412   0.49101   0.00000  Uiso   1.00
N320   N     0.57643   0.42668   0.41597   0.00000  Uiso   1.00
N321   N     0.39735   0.98269   0.17866   0.00000  Uiso   1.00
N322   N     0.29538   0.17449   0.46941   0.00000  Uiso   1.00
C323   C     0.94388   0.38961   0.37821   0.00000  Uiso   1.00
C324   C     0.98100   0.52887   0.38930   0.00000  Uiso   1.00
C325   C     0.02288   0.48979   0.41065   0.00000  Uiso   1.00
C326   C     0.05214   0.63630   0.41772   0.00000  Uiso   1.00
C327   C     0.11165   0.82529   0.43701   0.00000  Uiso   1.00
C328   C     0.93166   0.40651   0.32389   0.00000  Uiso   1.00
C329   C     0.93203   0.26454   0.29025   0.00000  Uiso   1.00
C330   C     0.91974   0.30806   0.24226   0.00000  Uiso   1.00
C331   C     0.90261   0.30705   0.16001   0.00000  Uiso   1.00
C332   C     0.90356   0.45938   0.40403   0.00000  Uiso   1.00
C333   C     0.88030   0.36185   0.43776   0.00000  Uiso   1.00
C334   C     0.84435   0.44986   0.45723   0.00000  Uiso   1.00
C335   C     0.78359   0.53094   0.49941   0.00000  Uiso   1.00
C336   C     0.92138   0.71932   0.35280   0.00000  Uiso   1.00
C337   C     0.96878   0.70796   0.37550   0.00000  Uiso   1.00
C338   C     0.99799   0.85458   0.38254   0.00000  Uiso   1.00
C339   C     0.03990   0.81572   0.40390   0.00000  Uiso   1.00
C340   C     0.91944   0.58560   0.31009   0.00000  Uiso   1.00
C341   C     0.90714   0.62933   0.26214   0.00000  Uiso   1.00
C342   C     0.90750   0.48747   0.22843   0.00000  Uiso   1.00
C343   C     0.89134   0.63848   0.39023   0.00000  Uiso   1.00
C344   C     0.85541   0.72665   0.40965   0.00000  Uiso   1.00
C345   C     0.83211   0.62927   0.44340   0.00000  Uiso   1.00
H346   H     0.95339   0.25018   0.38895   0.00000  Uiso   1.00
H347   H     0.03232   0.35117   0.42132   0.00000  Uiso   1.00
H348   H     0.94149   0.12596   0.30094   0.00000  Uiso   1.00
H349   H     0.88977   0.22326   0.44842   0.00000  Uiso   1.00
H350   H     0.11445   0.54211   0.45110   0.00000  Uiso   1.00
H351   H     0.92290   0.06722   0.19728   0.00000  Uiso   1.00
H352   H     0.81384   0.27240   0.50828   0.00000  Uiso   1.00
H353   H     0.91187   0.85876   0.34206   0.00000  Uiso   1.00
H354   H     0.98852   0.99316   0.37186   0.00000  Uiso   1.00
H355   H     0.89769   0.76794   0.25148   0.00000  Uiso   1.00
H356   H     0.84597   0.86524   0.39896   0.00000  Uiso   1.00
H357   H     0.07890   0.06317   0.41095   0.00000  Uiso   1.00
H358   H     0.88735   0.58827   0.15713   0.00000  Uiso   1.00
H359   H     0.77829   0.79345   0.46814   0.00000  Uiso   1.00
O360   O     0.14786   0.88006   0.45146   0.00000  Uiso   1.00
O361   O     0.89654   0.25701   0.11846   0.00000  Uiso   1.00
O362   O     0.75346   0.52620   0.52649   0.00000  Uiso   1.00
N363   N     0.09556   0.64630   0.43757   0.00000  Uiso   1.00
N364   N     0.91648   0.20232   0.20026   0.00000  Uiso   1.00
N365   N     0.81451   0.39412   0.49101   0.00000  Uiso   1.00
N366   N     0.07643   0.92668   0.41597   0.00000  Uiso   1.00
N367   N     0.89735   0.48269   0.17866   0.00000  Uiso   1.00
N368   N     0.79538   0.67449   0.46941   0.00000  Uiso   1.00
