data_job_03486
_audit_creation_date              2018-12-19
_audit_creation_method            'Materials Studio'
_symmetry_space_group_name_H-M    'P1'
_symmetry_Int_Tables_number       1
_symmetry_cell_setting            triclinic
loop_
_symmetry_equiv_pos_as_xyz
  x,y,z
_cell_length_a                    9.7110
_cell_length_b                    11.8821
_cell_length_c                    13.7037
_cell_angle_alpha                 108.9938
_cell_angle_beta                  100.5500
_cell_angle_gamma                 107.5173
loop_
_atom_site_label
_atom_site_type_symbol
_atom_site_fract_x
_atom_site_fract_y
_atom_site_fract_z
_atom_site_U_iso_or_equiv
_atom_site_adp_type
_atom_site_occupancy
C1     C     0.21572   0.70139   0.78699   0.00000  Uiso   1.00
C2     C     0.06453   0.71418   0.78893   0.00000  Uiso   1.00
C3     C     0.00754   0.79023   0.74942   0.00000  Uiso   1.00
C4     C     0.86712   0.78876   0.75879   0.00000  Uiso   1.00
C5     C     0.64463   0.82005   0.75469   0.00000  Uiso   1.00
C6     C     0.30335   0.73792   0.90446   0.00000  Uiso   1.00
C7     C     0.44717   0.83393   0.96207   0.00000  Uiso   1.00
C8     C     0.50779   0.85245   0.06870   0.00000  Uiso   1.00
C9     C     0.65612   0.92054   0.24393   0.00000  Uiso   1.00
C10    C     0.17784   0.55763   0.72713   0.00000  Uiso   1.00
C11    C     0.21616   0.50204   0.63566   0.00000  Uiso   1.00
C12    C     0.17115   0.36876   0.59300   0.00000  Uiso   1.00
C13    C     0.12460   0.15693   0.49289   0.00000  Uiso   1.00
C14    C     0.06767   0.56355   0.87390   0.00000  Uiso   1.00
C15    C     0.98412   0.63931   0.83615   0.00000  Uiso   1.00
C16    C     0.84374   0.63772   0.84558   0.00000  Uiso   1.00
C17    C     0.78656   0.71376   0.80608   0.00000  Uiso   1.00
C18    C     0.22294   0.66306   0.95168   0.00000  Uiso   1.00
C19    C     0.28337   0.68143   0.05824   0.00000  Uiso   1.00
C20    C     0.42724   0.77744   0.11600   0.00000  Uiso   1.00
C21    C     0.09742   0.48276   0.77434   0.00000  Uiso   1.00
C22    C     0.05235   0.34954   0.73182   0.00000  Uiso   1.00
C23    C     0.09059   0.29376   0.64029   0.00000  Uiso   1.00
H24    H     0.27834   0.75969   0.75024   0.00000  Uiso   1.00
H25    H     0.06982   0.84816   0.71290   0.00000  Uiso   1.00
H26    H     0.50938   0.89185   0.92551   0.00000  Uiso   1.00
H27    H     0.27839   0.56001   0.59915   0.00000  Uiso   1.00
H28    H     0.80320   0.91327   0.69235   0.00000  Uiso   1.00
H29    H     0.73005   0.00536   0.14066   0.00000  Uiso   1.00
H30    H     0.24299   0.30562   0.45245   0.00000  Uiso   1.00
H31    H     0.00507   0.50526   0.91066   0.00000  Uiso   1.00
H32    H     0.78154   0.57977   0.88212   0.00000  Uiso   1.00
H33    H     0.22111   0.62347   0.09474   0.00000  Uiso   1.00
H34    H     0.99013   0.29163   0.76838   0.00000  Uiso   1.00
H35    H     0.56923   0.69545   0.82971   0.00000  Uiso   1.00
H36    H     0.49609   0.78753   0.27801   0.00000  Uiso   1.00
H37    H     0.00902   0.08779   0.58980   0.00000  Uiso   1.00
O38    O     0.54413   0.85800   0.73939   0.00000  Uiso   1.00
O39    O     0.76014   0.97880   0.32754   0.00000  Uiso   1.00
O40    O     0.12112   0.06076   0.42463   0.00000  Uiso   1.00
N41    N     0.77879   0.85176   0.72858   0.00000  Uiso   1.00
N42    N     0.64534   0.93787   0.14772   0.00000  Uiso   1.00
N43    N     0.19001   0.28368   0.50432   0.00000  Uiso   1.00
N44    N     0.65290   0.73455   0.80248   0.00000  Uiso   1.00
N45    N     0.51944   0.82066   0.22163   0.00000  Uiso   1.00
N46    N     0.06412   0.16646   0.57823   0.00000  Uiso   1.00
C47    C     0.78428   0.29861   0.21301   0.00000  Uiso   1.00
C48    C     0.93547   0.28582   0.21107   0.00000  Uiso   1.00
C49    C     0.99246   0.20977   0.25058   0.00000  Uiso   1.00
C50    C     0.13288   0.21124   0.24121   0.00000  Uiso   1.00
C51    C     0.35537   0.17995   0.24531   0.00000  Uiso   1.00
C52    C     0.69665   0.26208   0.09554   0.00000  Uiso   1.00
C53    C     0.55283   0.16607   0.03793   0.00000  Uiso   1.00
C54    C     0.49221   0.14755   0.93130   0.00000  Uiso   1.00
C55    C     0.34388   0.07946   0.75607   0.00000  Uiso   1.00
C56    C     0.82216   0.44237   0.27287   0.00000  Uiso   1.00
C57    C     0.78384   0.49796   0.36434   0.00000  Uiso   1.00
C58    C     0.82885   0.63124   0.40700   0.00000  Uiso   1.00
C59    C     0.87540   0.84307   0.50711   0.00000  Uiso   1.00
C60    C     0.93233   0.43645   0.12610   0.00000  Uiso   1.00
C61    C     0.01588   0.36069   0.16385   0.00000  Uiso   1.00
C62    C     0.15626   0.36228   0.15442   0.00000  Uiso   1.00
C63    C     0.21344   0.28624   0.19392   0.00000  Uiso   1.00
C64    C     0.77706   0.33694   0.04832   0.00000  Uiso   1.00
C65    C     0.71663   0.31857   0.94176   0.00000  Uiso   1.00
C66    C     0.57276   0.22256   0.88400   0.00000  Uiso   1.00
C67    C     0.90258   0.51724   0.22566   0.00000  Uiso   1.00
C68    C     0.94765   0.65046   0.26818   0.00000  Uiso   1.00
C69    C     0.90941   0.70624   0.35971   0.00000  Uiso   1.00
H70    H     0.72166   0.24031   0.24976   0.00000  Uiso   1.00
H71    H     0.93018   0.15184   0.28710   0.00000  Uiso   1.00
H72    H     0.49062   0.10815   0.07449   0.00000  Uiso   1.00
H73    H     0.72161   0.43999   0.40085   0.00000  Uiso   1.00
H74    H     0.19680   0.08673   0.30765   0.00000  Uiso   1.00
H75    H     0.26995   0.99464   0.85934   0.00000  Uiso   1.00
H76    H     0.75701   0.69438   0.54755   0.00000  Uiso   1.00
H77    H     0.99493   0.49474   0.08934   0.00000  Uiso   1.00
H78    H     0.21846   0.42023   0.11788   0.00000  Uiso   1.00
H79    H     0.77889   0.37653   0.90526   0.00000  Uiso   1.00
H80    H     0.00987   0.70837   0.23162   0.00000  Uiso   1.00
H81    H     0.43077   0.30455   0.17029   0.00000  Uiso   1.00
H82    H     0.50391   0.21247   0.72199   0.00000  Uiso   1.00
H83    H     0.99098   0.91221   0.41020   0.00000  Uiso   1.00
O84    O     0.45587   0.14200   0.26061   0.00000  Uiso   1.00
O85    O     0.23986   0.02120   0.67246   0.00000  Uiso   1.00
O86    O     0.87888   0.93924   0.57537   0.00000  Uiso   1.00
N87    N     0.22121   0.14824   0.27142   0.00000  Uiso   1.00
N88    N     0.35466   0.06213   0.85228   0.00000  Uiso   1.00
N89    N     0.80999   0.71632   0.49568   0.00000  Uiso   1.00
N90    N     0.34710   0.26545   0.19752   0.00000  Uiso   1.00
N91    N     0.48056   0.17934   0.77837   0.00000  Uiso   1.00
N92    N     0.93588   0.83354   0.42177   0.00000  Uiso   1.00
