data_job_05850
_audit_creation_date              2018-12-19
_audit_creation_method            'Materials Studio'
_symmetry_space_group_name_H-M    'P1'
_symmetry_Int_Tables_number       1
_symmetry_cell_setting            triclinic
loop_
_symmetry_equiv_pos_as_xyz
  x,y,z
_cell_length_a                    7.4748
_cell_length_b                    12.3857
_cell_length_c                    30.6483
_cell_angle_alpha                 90.0000
_cell_angle_beta                  105.1380
_cell_angle_gamma                 90.0000
loop_
_atom_site_label
_atom_site_type_symbol
_atom_site_fract_x
_atom_site_fract_y
_atom_site_fract_z
_atom_site_U_iso_or_equiv
_atom_site_adp_type
_atom_site_occupancy
C1     C     0.02704   0.94334   0.12640   0.00000  Uiso   1.00
C2     C     0.07611   0.93757   0.17787   0.00000  Uiso   1.00
C3     C     0.24829   0.96027   0.20681   0.00000  Uiso   1.00
C4     C     0.26507   0.95022   0.25282   0.00000  Uiso   1.00
C5     C     0.36413   0.94601   0.33023   0.00000  Uiso   1.00
C6     C     0.95263   0.83208   0.10953   0.00000  Uiso   1.00
C7     C     0.02098   0.76609   0.08102   0.00000  Uiso   1.00
C8     C     0.93380   0.66725   0.06950   0.00000  Uiso   1.00
C9     C     0.84107   0.49931   0.04080   0.00000  Uiso   1.00
C10    C     0.86297   0.02049   0.11254   0.00000  Uiso   1.00
C11    C     0.85591   0.11290   0.08653   0.00000  Uiso   1.00
C12    C     0.69321   0.17267   0.07754   0.00000  Uiso   1.00
C13    C     0.46128   0.29725   0.05350   0.00000  Uiso   1.00
C14    C     0.75066   0.88515   0.15666   0.00000  Uiso   1.00
C15    C     0.92599   0.90596   0.19430   0.00000  Uiso   1.00
C16    C     0.94251   0.89588   0.24028   0.00000  Uiso   1.00
C17    C     0.11468   0.91856   0.26928   0.00000  Uiso   1.00
C18    C     0.80252   0.80047   0.12597   0.00000  Uiso   1.00
C19    C     0.71520   0.70171   0.11449   0.00000  Uiso   1.00
C20    C     0.78341   0.63559   0.08596   0.00000  Uiso   1.00
C21    C     0.71285   0.98888   0.12897   0.00000  Uiso   1.00
C22    C     0.55013   0.04851   0.12001   0.00000  Uiso   1.00
C23    C     0.54282   0.14100   0.09400   0.00000  Uiso   1.00
H24    H     0.14391   0.96795   0.11361   0.00000  Uiso   1.00
H25    H     0.36444   0.98472   0.19408   0.00000  Uiso   1.00
H26    H     0.13714   0.79058   0.06830   0.00000  Uiso   1.00
H27    H     0.97210   0.13733   0.07382   0.00000  Uiso   1.00
H28    H     0.54275   0.98933   0.29054   0.00000  Uiso   1.00
H29    H     0.06345   0.58000   0.02532   0.00000  Uiso   1.00
H30    H     0.71543   0.31120   0.03696   0.00000  Uiso   1.00
H31    H     0.63378   0.86054   0.16945   0.00000  Uiso   1.00
H32    H     0.82632   0.87142   0.25299   0.00000  Uiso   1.00
H33    H     0.59903   0.67728   0.12721   0.00000  Uiso   1.00
H34    H     0.43399   0.02403   0.13273   0.00000  Uiso   1.00
H35    H     0.10599   0.89737   0.33835   0.00000  Uiso   1.00
H36    H     0.62670   0.48804   0.07313   0.00000  Uiso   1.00
H37    H     0.27868   0.21923   0.08478   0.00000  Uiso   1.00
O38    O     0.46025   0.95241   0.36839   0.00000  Uiso   1.00
O39    O     0.83142   0.41540   0.02043   0.00000  Uiso   1.00
O40    O     0.37482   0.37471   0.03570   0.00000  Uiso   1.00
N41    N     0.41352   0.96622   0.29033   0.00000  Uiso   1.00
N42    N     0.96543   0.58351   0.04237   0.00000  Uiso   1.00
N43    N     0.64004   0.26710   0.05324   0.00000  Uiso   1.00
N44    N     0.17851   0.91673   0.31606   0.00000  Uiso   1.00
N45    N     0.73042   0.53403   0.06810   0.00000  Uiso   1.00
N46    N     0.40503   0.21762   0.07897   0.00000  Uiso   1.00
C47    C     0.97296   0.44334   0.37360   0.00000  Uiso   1.00
C48    C     0.92389   0.43757   0.32213   0.00000  Uiso   1.00
C49    C     0.75171   0.46027   0.29319   0.00000  Uiso   1.00
C50    C     0.73493   0.45022   0.24718   0.00000  Uiso   1.00
C51    C     0.63587   0.44601   0.16977   0.00000  Uiso   1.00
C52    C     0.04737   0.33208   0.39047   0.00000  Uiso   1.00
C53    C     0.97902   0.26609   0.41898   0.00000  Uiso   1.00
C54    C     0.06620   0.16725   0.43050   0.00000  Uiso   1.00
C55    C     0.15893   0.99931   0.45920   0.00000  Uiso   1.00
C56    C     0.13703   0.52049   0.38746   0.00000  Uiso   1.00
C57    C     0.14409   0.61290   0.41347   0.00000  Uiso   1.00
C58    C     0.30679   0.67267   0.42246   0.00000  Uiso   1.00
C59    C     0.53872   0.79725   0.44650   0.00000  Uiso   1.00
C60    C     0.24934   0.38515   0.34334   0.00000  Uiso   1.00
C61    C     0.07401   0.40596   0.30570   0.00000  Uiso   1.00
C62    C     0.05749   0.39588   0.25972   0.00000  Uiso   1.00
C63    C     0.88532   0.41856   0.23072   0.00000  Uiso   1.00
C64    C     0.19748   0.30047   0.37403   0.00000  Uiso   1.00
C65    C     0.28480   0.20171   0.38551   0.00000  Uiso   1.00
C66    C     0.21659   0.13559   0.41404   0.00000  Uiso   1.00
C67    C     0.28715   0.48888   0.37103   0.00000  Uiso   1.00
C68    C     0.44987   0.54851   0.37999   0.00000  Uiso   1.00
C69    C     0.45718   0.64100   0.40600   0.00000  Uiso   1.00
H70    H     0.85609   0.46795   0.38639   0.00000  Uiso   1.00
H71    H     0.63556   0.48472   0.30592   0.00000  Uiso   1.00
H72    H     0.86286   0.29058   0.43170   0.00000  Uiso   1.00
H73    H     0.02790   0.63733   0.42618   0.00000  Uiso   1.00
H74    H     0.45725   0.48933   0.20946   0.00000  Uiso   1.00
H75    H     0.93655   0.08000   0.47468   0.00000  Uiso   1.00
H76    H     0.28457   0.81120   0.46304   0.00000  Uiso   1.00
H77    H     0.36622   0.36054   0.33055   0.00000  Uiso   1.00
H78    H     0.17368   0.37142   0.24701   0.00000  Uiso   1.00
H79    H     0.40097   0.17728   0.37279   0.00000  Uiso   1.00
H80    H     0.56601   0.52403   0.36727   0.00000  Uiso   1.00
H81    H     0.89401   0.39737   0.16165   0.00000  Uiso   1.00
H82    H     0.37330   0.98804   0.42687   0.00000  Uiso   1.00
H83    H     0.72132   0.71923   0.41522   0.00000  Uiso   1.00
O84    O     0.53975   0.45241   0.13161   0.00000  Uiso   1.00
O85    O     0.16858   0.91540   0.47957   0.00000  Uiso   1.00
O86    O     0.62518   0.87471   0.46430   0.00000  Uiso   1.00
N87    N     0.58648   0.46622   0.20967   0.00000  Uiso   1.00
N88    N     0.03457   0.08351   0.45763   0.00000  Uiso   1.00
N89    N     0.35996   0.76710   0.44676   0.00000  Uiso   1.00
N90    N     0.82149   0.41673   0.18394   0.00000  Uiso   1.00
N91    N     0.26958   0.03403   0.43190   0.00000  Uiso   1.00
N92    N     0.59497   0.71762   0.42103   0.00000  Uiso   1.00
C93    C     0.97296   0.05666   0.87360   0.00000  Uiso   1.00
C94    C     0.92389   0.06243   0.82213   0.00000  Uiso   1.00
C95    C     0.75171   0.03973   0.79319   0.00000  Uiso   1.00
C96    C     0.73493   0.04978   0.74718   0.00000  Uiso   1.00
C97    C     0.63587   0.05399   0.66977   0.00000  Uiso   1.00
C98    C     0.04737   0.16792   0.89047   0.00000  Uiso   1.00
C99    C     0.97902   0.23391   0.91898   0.00000  Uiso   1.00
C100   C     0.06620   0.33275   0.93050   0.00000  Uiso   1.00
C101   C     0.15893   0.50069   0.95920   0.00000  Uiso   1.00
C102   C     0.13703   0.97951   0.88746   0.00000  Uiso   1.00
C103   C     0.14409   0.88710   0.91347   0.00000  Uiso   1.00
C104   C     0.30679   0.82733   0.92246   0.00000  Uiso   1.00
C105   C     0.53872   0.70275   0.94650   0.00000  Uiso   1.00
C106   C     0.24934   0.11485   0.84334   0.00000  Uiso   1.00
C107   C     0.07401   0.09404   0.80570   0.00000  Uiso   1.00
C108   C     0.05749   0.10412   0.75972   0.00000  Uiso   1.00
C109   C     0.88532   0.08144   0.73072   0.00000  Uiso   1.00
C110   C     0.19748   0.19953   0.87403   0.00000  Uiso   1.00
C111   C     0.28480   0.29829   0.88551   0.00000  Uiso   1.00
C112   C     0.21659   0.36441   0.91404   0.00000  Uiso   1.00
C113   C     0.28715   0.01112   0.87103   0.00000  Uiso   1.00
C114   C     0.44987   0.95149   0.87999   0.00000  Uiso   1.00
C115   C     0.45718   0.85900   0.90600   0.00000  Uiso   1.00
H116   H     0.85609   0.03205   0.88639   0.00000  Uiso   1.00
H117   H     0.63556   0.01528   0.80592   0.00000  Uiso   1.00
H118   H     0.86286   0.20942   0.93170   0.00000  Uiso   1.00
H119   H     0.02790   0.86267   0.92618   0.00000  Uiso   1.00
H120   H     0.45725   0.01067   0.70946   0.00000  Uiso   1.00
H121   H     0.93655   0.42000   0.97468   0.00000  Uiso   1.00
H122   H     0.28457   0.68880   0.96304   0.00000  Uiso   1.00
H123   H     0.36622   0.13946   0.83055   0.00000  Uiso   1.00
H124   H     0.17368   0.12858   0.74701   0.00000  Uiso   1.00
H125   H     0.40097   0.32272   0.87279   0.00000  Uiso   1.00
H126   H     0.56601   0.97597   0.86727   0.00000  Uiso   1.00
H127   H     0.89401   0.10263   0.66165   0.00000  Uiso   1.00
H128   H     0.37330   0.51196   0.92687   0.00000  Uiso   1.00
H129   H     0.72132   0.78077   0.91522   0.00000  Uiso   1.00
O130   O     0.53975   0.04759   0.63161   0.00000  Uiso   1.00
O131   O     0.16858   0.58460   0.97957   0.00000  Uiso   1.00
O132   O     0.62518   0.62529   0.96430   0.00000  Uiso   1.00
N133   N     0.58648   0.03378   0.70967   0.00000  Uiso   1.00
N134   N     0.03457   0.41649   0.95763   0.00000  Uiso   1.00
N135   N     0.35996   0.73290   0.94676   0.00000  Uiso   1.00
N136   N     0.82149   0.08327   0.68394   0.00000  Uiso   1.00
N137   N     0.26958   0.46597   0.93190   0.00000  Uiso   1.00
N138   N     0.59497   0.78238   0.92103   0.00000  Uiso   1.00
C139   C     0.02704   0.55666   0.62640   0.00000  Uiso   1.00
C140   C     0.07611   0.56243   0.67787   0.00000  Uiso   1.00
C141   C     0.24829   0.53973   0.70681   0.00000  Uiso   1.00
C142   C     0.26507   0.54978   0.75282   0.00000  Uiso   1.00
C143   C     0.36413   0.55399   0.83023   0.00000  Uiso   1.00
C144   C     0.95263   0.66792   0.60953   0.00000  Uiso   1.00
C145   C     0.02098   0.73391   0.58102   0.00000  Uiso   1.00
C146   C     0.93380   0.83275   0.56950   0.00000  Uiso   1.00
C147   C     0.84107   0.00069   0.54080   0.00000  Uiso   1.00
C148   C     0.86297   0.47951   0.61254   0.00000  Uiso   1.00
C149   C     0.85591   0.38710   0.58653   0.00000  Uiso   1.00
C150   C     0.69321   0.32733   0.57754   0.00000  Uiso   1.00
C151   C     0.46128   0.20275   0.55350   0.00000  Uiso   1.00
C152   C     0.75066   0.61485   0.65666   0.00000  Uiso   1.00
C153   C     0.92599   0.59404   0.69430   0.00000  Uiso   1.00
C154   C     0.94251   0.60412   0.74028   0.00000  Uiso   1.00
C155   C     0.11468   0.58144   0.76928   0.00000  Uiso   1.00
C156   C     0.80252   0.69953   0.62597   0.00000  Uiso   1.00
C157   C     0.71520   0.79829   0.61449   0.00000  Uiso   1.00
C158   C     0.78341   0.86441   0.58596   0.00000  Uiso   1.00
C159   C     0.71285   0.51112   0.62897   0.00000  Uiso   1.00
C160   C     0.55013   0.45149   0.62001   0.00000  Uiso   1.00
C161   C     0.54282   0.35900   0.59400   0.00000  Uiso   1.00
H162   H     0.14391   0.53205   0.61361   0.00000  Uiso   1.00
H163   H     0.36444   0.51528   0.69408   0.00000  Uiso   1.00
H164   H     0.13714   0.70942   0.56830   0.00000  Uiso   1.00
H165   H     0.97210   0.36267   0.57382   0.00000  Uiso   1.00
H166   H     0.54275   0.51067   0.79054   0.00000  Uiso   1.00
H167   H     0.06345   0.92000   0.52532   0.00000  Uiso   1.00
H168   H     0.71543   0.18880   0.53696   0.00000  Uiso   1.00
H169   H     0.63378   0.63946   0.66945   0.00000  Uiso   1.00
H170   H     0.82632   0.62858   0.75299   0.00000  Uiso   1.00
H171   H     0.59903   0.82272   0.62721   0.00000  Uiso   1.00
H172   H     0.43399   0.47597   0.63273   0.00000  Uiso   1.00
H173   H     0.10599   0.60263   0.83835   0.00000  Uiso   1.00
H174   H     0.62670   0.01196   0.57313   0.00000  Uiso   1.00
H175   H     0.27868   0.28077   0.58478   0.00000  Uiso   1.00
O176   O     0.46025   0.54759   0.86839   0.00000  Uiso   1.00
O177   O     0.83142   0.08460   0.52043   0.00000  Uiso   1.00
O178   O     0.37482   0.12529   0.53570   0.00000  Uiso   1.00
N179   N     0.41352   0.53378   0.79033   0.00000  Uiso   1.00
N180   N     0.96543   0.91649   0.54237   0.00000  Uiso   1.00
N181   N     0.64004   0.23290   0.55324   0.00000  Uiso   1.00
N182   N     0.17851   0.58327   0.81606   0.00000  Uiso   1.00
N183   N     0.73042   0.96597   0.56810   0.00000  Uiso   1.00
N184   N     0.40503   0.28238   0.57897   0.00000  Uiso   1.00
