data_job_02710
_audit_creation_date              2018-12-19
_audit_creation_method            'Materials Studio'
_symmetry_space_group_name_H-M    'P1'
_symmetry_Int_Tables_number       1
_symmetry_cell_setting            triclinic
loop_
_symmetry_equiv_pos_as_xyz
  x,y,z
_cell_length_a                    12.3041
_cell_length_b                    12.3041
_cell_length_c                    33.8972
_cell_angle_alpha                 90.0000
_cell_angle_beta                  90.0000
_cell_angle_gamma                 90.0000
loop_
_atom_site_label
_atom_site_type_symbol
_atom_site_fract_x
_atom_site_fract_y
_atom_site_fract_z
_atom_site_U_iso_or_equiv
_atom_site_adp_type
_atom_site_occupancy
C1     C     0.22681   0.87416   0.01866   0.00000  Uiso   1.00
C2     C     0.12069   0.83848   0.03795   0.00000  Uiso   1.00
C3     C     0.05952   0.89954   0.06425   0.00000  Uiso   1.00
C4     C     0.96493   0.85243   0.07861   0.00000  Uiso   1.00
C5     C     0.80506   0.81289   0.11034   0.00000  Uiso   1.00
C6     C     0.31045   0.78740   0.02916   0.00000  Uiso   1.00
C7     C     0.40884   0.80553   0.04807   0.00000  Uiso   1.00
C8     C     0.47400   0.71541   0.05502   0.00000  Uiso   1.00
C9     C     0.60879   0.59658   0.07308   0.00000  Uiso   1.00
C10    C     0.20871   0.86484   0.97428   0.00000  Uiso   1.00
C11    C     0.22159   0.94807   0.94705   0.00000  Uiso   1.00
C12    C     0.20112   0.92314   0.90779   0.00000  Uiso   1.00
C13    C     0.17794   0.92455   0.84065   0.00000  Uiso   1.00
C14    C     0.16758   0.68190   0.99738   0.00000  Uiso   1.00
C15    C     0.08852   0.73405   0.02639   0.00000  Uiso   1.00
C16    C     0.99399   0.68682   0.04071   0.00000  Uiso   1.00
C17    C     0.93269   0.74781   0.06703   0.00000  Uiso   1.00
C18    C     0.27829   0.68297   0.01760   0.00000  Uiso   1.00
C19    C     0.34331   0.59281   0.02453   0.00000  Uiso   1.00
C20    C     0.44177   0.61079   0.04344   0.00000  Uiso   1.00
C21    C     0.17654   0.76041   0.96272   0.00000  Uiso   1.00
C22    C     0.15605   0.73535   0.92350   0.00000  Uiso   1.00
C23    C     0.16889   0.81852   0.89622   0.00000  Uiso   1.00
H24    H     0.25186   0.95546   0.02765   0.00000  Uiso   1.00
H25    H     0.08445   0.98036   0.07319   0.00000  Uiso   1.00
H26    H     0.43372   0.88635   0.05700   0.00000  Uiso   1.00
H27    H     0.24649   0.02887   0.95600   0.00000  Uiso   1.00
H28    H     0.88467   0.96188   0.11859   0.00000  Uiso   1.00
H29    H     0.62115   0.76368   0.08445   0.00000  Uiso   1.00
H30    H     0.22634   0.06421   0.87146   0.00000  Uiso   1.00
H31    H     0.14254   0.60059   0.98838   0.00000  Uiso   1.00
H32    H     0.96912   0.60601   0.03176   0.00000  Uiso   1.00
H33    H     0.31840   0.51201   0.01558   0.00000  Uiso   1.00
H34    H     0.13116   0.65453   0.91457   0.00000  Uiso   1.00
H35    H     0.79107   0.65805   0.08497   0.00000  Uiso   1.00
H36    H     0.52755   0.45984   0.05082   0.00000  Uiso   1.00
H37    H     0.13273   0.76037   0.83784   0.00000  Uiso   1.00
O38    O     0.72578   0.81992   0.13104   0.00000  Uiso   1.00
O39    O     0.69202   0.55989   0.08624   0.00000  Uiso   1.00
O40    O     0.17403   0.95418   0.80680   0.00000  Uiso   1.00
N41    N     0.88643   0.88964   0.10472   0.00000  Uiso   1.00
N42    N     0.57498   0.70433   0.07280   0.00000  Uiso   1.00
N43    N     0.20590   0.98529   0.87368   0.00000  Uiso   1.00
N44    N     0.83606   0.72615   0.08663   0.00000  Uiso   1.00
N45    N     0.52462   0.54084   0.05471   0.00000  Uiso   1.00
N46    N     0.15553   0.82180   0.85558   0.00000  Uiso   1.00
C47    C     0.77319   0.12584   0.51866   0.00000  Uiso   1.00
C48    C     0.87931   0.16152   0.53795   0.00000  Uiso   1.00
C49    C     0.94048   0.10046   0.56425   0.00000  Uiso   1.00
C50    C     0.03507   0.14757   0.57861   0.00000  Uiso   1.00
C51    C     0.19494   0.18711   0.61034   0.00000  Uiso   1.00
C52    C     0.68955   0.21260   0.52916   0.00000  Uiso   1.00
C53    C     0.59116   0.19447   0.54807   0.00000  Uiso   1.00
C54    C     0.52600   0.28459   0.55502   0.00000  Uiso   1.00
C55    C     0.39121   0.40342   0.57308   0.00000  Uiso   1.00
C56    C     0.79129   0.13516   0.47428   0.00000  Uiso   1.00
C57    C     0.77841   0.05193   0.44705   0.00000  Uiso   1.00
C58    C     0.79888   0.07686   0.40779   0.00000  Uiso   1.00
C59    C     0.82206   0.07545   0.34065   0.00000  Uiso   1.00
C60    C     0.83242   0.31810   0.49738   0.00000  Uiso   1.00
C61    C     0.91148   0.26595   0.52639   0.00000  Uiso   1.00
C62    C     0.00601   0.31318   0.54071   0.00000  Uiso   1.00
C63    C     0.06731   0.25219   0.56703   0.00000  Uiso   1.00
C64    C     0.72171   0.31703   0.51760   0.00000  Uiso   1.00
C65    C     0.65669   0.40719   0.52453   0.00000  Uiso   1.00
C66    C     0.55823   0.38921   0.54344   0.00000  Uiso   1.00
C67    C     0.82346   0.23959   0.46272   0.00000  Uiso   1.00
C68    C     0.84395   0.26465   0.42350   0.00000  Uiso   1.00
C69    C     0.83111   0.18148   0.39622   0.00000  Uiso   1.00
H70    H     0.74814   0.04454   0.52765   0.00000  Uiso   1.00
H71    H     0.91555   0.01964   0.57319   0.00000  Uiso   1.00
H72    H     0.56628   0.11365   0.55700   0.00000  Uiso   1.00
H73    H     0.75351   0.97113   0.45600   0.00000  Uiso   1.00
H74    H     0.11533   0.03812   0.61859   0.00000  Uiso   1.00
H75    H     0.37885   0.23632   0.58445   0.00000  Uiso   1.00
H76    H     0.77366   0.93579   0.37146   0.00000  Uiso   1.00
H77    H     0.85746   0.39941   0.48838   0.00000  Uiso   1.00
H78    H     0.03088   0.39399   0.53176   0.00000  Uiso   1.00
H79    H     0.68160   0.48799   0.51558   0.00000  Uiso   1.00
H80    H     0.86884   0.34547   0.41457   0.00000  Uiso   1.00
H81    H     0.20893   0.34195   0.58497   0.00000  Uiso   1.00
H82    H     0.47245   0.54016   0.55082   0.00000  Uiso   1.00
H83    H     0.86727   0.23963   0.33784   0.00000  Uiso   1.00
O84    O     0.27422   0.18008   0.63104   0.00000  Uiso   1.00
O85    O     0.30798   0.44011   0.58624   0.00000  Uiso   1.00
O86    O     0.82597   0.04582   0.30680   0.00000  Uiso   1.00
N87    N     0.11357   0.11036   0.60472   0.00000  Uiso   1.00
N88    N     0.42502   0.29567   0.57280   0.00000  Uiso   1.00
N89    N     0.79410   0.01471   0.37368   0.00000  Uiso   1.00
N90    N     0.16394   0.27385   0.58663   0.00000  Uiso   1.00
N91    N     0.47538   0.45916   0.55471   0.00000  Uiso   1.00
N92    N     0.84447   0.17820   0.35558   0.00000  Uiso   1.00
C93    C     0.62584   0.72681   0.76866   0.00000  Uiso   1.00
C94    C     0.66152   0.62069   0.78795   0.00000  Uiso   1.00
C95    C     0.60046   0.55952   0.81425   0.00000  Uiso   1.00
C96    C     0.64757   0.46493   0.82861   0.00000  Uiso   1.00
C97    C     0.68711   0.30506   0.86034   0.00000  Uiso   1.00
C98    C     0.71260   0.81045   0.77916   0.00000  Uiso   1.00
C99    C     0.69447   0.90884   0.79807   0.00000  Uiso   1.00
C100   C     0.78459   0.97400   0.80502   0.00000  Uiso   1.00
C101   C     0.90342   0.10879   0.82308   0.00000  Uiso   1.00
C102   C     0.63516   0.70871   0.72428   0.00000  Uiso   1.00
C103   C     0.55193   0.72159   0.69705   0.00000  Uiso   1.00
C104   C     0.57686   0.70112   0.65779   0.00000  Uiso   1.00
C105   C     0.57545   0.67794   0.59065   0.00000  Uiso   1.00
C106   C     0.81810   0.66758   0.74738   0.00000  Uiso   1.00
C107   C     0.76595   0.58852   0.77639   0.00000  Uiso   1.00
C108   C     0.81318   0.49399   0.79071   0.00000  Uiso   1.00
C109   C     0.75219   0.43269   0.81703   0.00000  Uiso   1.00
C110   C     0.81703   0.77829   0.76760   0.00000  Uiso   1.00
C111   C     0.90719   0.84331   0.77453   0.00000  Uiso   1.00
C112   C     0.88921   0.94177   0.79344   0.00000  Uiso   1.00
C113   C     0.73959   0.67654   0.71272   0.00000  Uiso   1.00
C114   C     0.76465   0.65605   0.67350   0.00000  Uiso   1.00
C115   C     0.68148   0.66889   0.64622   0.00000  Uiso   1.00
H116   H     0.54454   0.75186   0.77765   0.00000  Uiso   1.00
H117   H     0.51964   0.58445   0.82319   0.00000  Uiso   1.00
H118   H     0.61365   0.93372   0.80700   0.00000  Uiso   1.00
H119   H     0.47113   0.74649   0.70600   0.00000  Uiso   1.00
H120   H     0.53812   0.38467   0.86859   0.00000  Uiso   1.00
H121   H     0.73632   0.12115   0.83445   0.00000  Uiso   1.00
H122   H     0.43579   0.72634   0.62146   0.00000  Uiso   1.00
H123   H     0.89941   0.64254   0.73838   0.00000  Uiso   1.00
H124   H     0.89399   0.46912   0.78176   0.00000  Uiso   1.00
H125   H     0.98799   0.81840   0.76558   0.00000  Uiso   1.00
H126   H     0.84547   0.63116   0.66457   0.00000  Uiso   1.00
H127   H     0.84195   0.29107   0.83497   0.00000  Uiso   1.00
H128   H     0.04016   0.02755   0.80082   0.00000  Uiso   1.00
H129   H     0.73963   0.63273   0.58784   0.00000  Uiso   1.00
O130   O     0.68008   0.22578   0.88104   0.00000  Uiso   1.00
O131   O     0.94011   0.19202   0.83624   0.00000  Uiso   1.00
O132   O     0.54582   0.67403   0.55680   0.00000  Uiso   1.00
N133   N     0.61036   0.38643   0.85472   0.00000  Uiso   1.00
N134   N     0.79567   0.07498   0.82280   0.00000  Uiso   1.00
N135   N     0.51471   0.70590   0.62368   0.00000  Uiso   1.00
N136   N     0.77385   0.33606   0.83663   0.00000  Uiso   1.00
N137   N     0.95916   0.02462   0.80471   0.00000  Uiso   1.00
N138   N     0.67820   0.65553   0.60558   0.00000  Uiso   1.00
C139   C     0.37416   0.27319   0.26866   0.00000  Uiso   1.00
C140   C     0.33848   0.37931   0.28795   0.00000  Uiso   1.00
C141   C     0.39954   0.44048   0.31425   0.00000  Uiso   1.00
C142   C     0.35243   0.53507   0.32861   0.00000  Uiso   1.00
C143   C     0.31289   0.69494   0.36034   0.00000  Uiso   1.00
C144   C     0.28740   0.18955   0.27916   0.00000  Uiso   1.00
C145   C     0.30553   0.09116   0.29807   0.00000  Uiso   1.00
C146   C     0.21541   0.02600   0.30502   0.00000  Uiso   1.00
C147   C     0.09658   0.89121   0.32308   0.00000  Uiso   1.00
C148   C     0.36484   0.29129   0.22428   0.00000  Uiso   1.00
C149   C     0.44807   0.27841   0.19705   0.00000  Uiso   1.00
C150   C     0.42314   0.29888   0.15779   0.00000  Uiso   1.00
C151   C     0.42455   0.32206   0.09065   0.00000  Uiso   1.00
C152   C     0.18190   0.33242   0.24738   0.00000  Uiso   1.00
C153   C     0.23405   0.41148   0.27639   0.00000  Uiso   1.00
C154   C     0.18682   0.50601   0.29071   0.00000  Uiso   1.00
C155   C     0.24781   0.56731   0.31703   0.00000  Uiso   1.00
C156   C     0.18297   0.22171   0.26760   0.00000  Uiso   1.00
C157   C     0.09281   0.15669   0.27453   0.00000  Uiso   1.00
C158   C     0.11079   0.05823   0.29344   0.00000  Uiso   1.00
C159   C     0.26041   0.32346   0.21272   0.00000  Uiso   1.00
C160   C     0.23535   0.34395   0.17350   0.00000  Uiso   1.00
C161   C     0.31852   0.33111   0.14622   0.00000  Uiso   1.00
H162   H     0.45546   0.24814   0.27765   0.00000  Uiso   1.00
H163   H     0.48036   0.41555   0.32319   0.00000  Uiso   1.00
H164   H     0.38635   0.06628   0.30700   0.00000  Uiso   1.00
H165   H     0.52887   0.25351   0.20600   0.00000  Uiso   1.00
H166   H     0.46188   0.61533   0.36859   0.00000  Uiso   1.00
H167   H     0.26368   0.87885   0.33445   0.00000  Uiso   1.00
H168   H     0.56421   0.27366   0.12146   0.00000  Uiso   1.00
H169   H     0.10059   0.35746   0.23838   0.00000  Uiso   1.00
H170   H     0.10601   0.53088   0.28176   0.00000  Uiso   1.00
H171   H     0.01201   0.18160   0.26558   0.00000  Uiso   1.00
H172   H     0.15453   0.36884   0.16457   0.00000  Uiso   1.00
H173   H     0.15805   0.70893   0.33497   0.00000  Uiso   1.00
H174   H     0.95984   0.97245   0.30082   0.00000  Uiso   1.00
H175   H     0.26037   0.36727   0.08784   0.00000  Uiso   1.00
O176   O     0.31992   0.77422   0.38104   0.00000  Uiso   1.00
O177   O     0.05989   0.80798   0.33624   0.00000  Uiso   1.00
O178   O     0.45418   0.32597   0.05680   0.00000  Uiso   1.00
N179   N     0.38964   0.61357   0.35472   0.00000  Uiso   1.00
N180   N     0.20433   0.92502   0.32280   0.00000  Uiso   1.00
N181   N     0.48529   0.29410   0.12368   0.00000  Uiso   1.00
N182   N     0.22615   0.66394   0.33663   0.00000  Uiso   1.00
N183   N     0.04084   0.97538   0.30471   0.00000  Uiso   1.00
N184   N     0.32180   0.34447   0.10558   0.00000  Uiso   1.00
C185   C     0.27319   0.37416   0.73134   0.00000  Uiso   1.00
C186   C     0.37931   0.33848   0.71205   0.00000  Uiso   1.00
C187   C     0.44048   0.39954   0.68575   0.00000  Uiso   1.00
C188   C     0.53507   0.35243   0.67139   0.00000  Uiso   1.00
C189   C     0.69494   0.31289   0.63966   0.00000  Uiso   1.00
C190   C     0.18955   0.28740   0.72084   0.00000  Uiso   1.00
C191   C     0.09116   0.30553   0.70193   0.00000  Uiso   1.00
C192   C     0.02600   0.21541   0.69498   0.00000  Uiso   1.00
C193   C     0.89121   0.09658   0.67692   0.00000  Uiso   1.00
C194   C     0.29129   0.36484   0.77572   0.00000  Uiso   1.00
C195   C     0.27841   0.44807   0.80295   0.00000  Uiso   1.00
C196   C     0.29888   0.42314   0.84221   0.00000  Uiso   1.00
C197   C     0.32206   0.42455   0.90935   0.00000  Uiso   1.00
C198   C     0.33242   0.18190   0.75262   0.00000  Uiso   1.00
C199   C     0.41148   0.23405   0.72361   0.00000  Uiso   1.00
C200   C     0.50601   0.18682   0.70929   0.00000  Uiso   1.00
C201   C     0.56731   0.24781   0.68297   0.00000  Uiso   1.00
C202   C     0.22171   0.18297   0.73240   0.00000  Uiso   1.00
C203   C     0.15669   0.09281   0.72547   0.00000  Uiso   1.00
C204   C     0.05823   0.11079   0.70656   0.00000  Uiso   1.00
C205   C     0.32346   0.26041   0.78728   0.00000  Uiso   1.00
C206   C     0.34395   0.23535   0.82650   0.00000  Uiso   1.00
C207   C     0.33111   0.31852   0.85378   0.00000  Uiso   1.00
H208   H     0.24814   0.45546   0.72235   0.00000  Uiso   1.00
H209   H     0.41555   0.48036   0.67681   0.00000  Uiso   1.00
H210   H     0.06628   0.38635   0.69300   0.00000  Uiso   1.00
H211   H     0.25351   0.52887   0.79400   0.00000  Uiso   1.00
H212   H     0.61533   0.46188   0.63141   0.00000  Uiso   1.00
H213   H     0.87885   0.26368   0.66555   0.00000  Uiso   1.00
H214   H     0.27366   0.56421   0.87854   0.00000  Uiso   1.00
H215   H     0.35746   0.10059   0.76162   0.00000  Uiso   1.00
H216   H     0.53088   0.10601   0.71824   0.00000  Uiso   1.00
H217   H     0.18160   0.01201   0.73442   0.00000  Uiso   1.00
H218   H     0.36884   0.15453   0.83543   0.00000  Uiso   1.00
H219   H     0.70893   0.15805   0.66503   0.00000  Uiso   1.00
H220   H     0.97245   0.95984   0.69918   0.00000  Uiso   1.00
H221   H     0.36727   0.26037   0.91216   0.00000  Uiso   1.00
O222   O     0.77422   0.31992   0.61896   0.00000  Uiso   1.00
O223   O     0.80798   0.05989   0.66376   0.00000  Uiso   1.00
O224   O     0.32597   0.45418   0.94320   0.00000  Uiso   1.00
N225   N     0.61357   0.38964   0.64528   0.00000  Uiso   1.00
N226   N     0.92502   0.20433   0.67720   0.00000  Uiso   1.00
N227   N     0.29410   0.48529   0.87632   0.00000  Uiso   1.00
N228   N     0.66394   0.22615   0.66337   0.00000  Uiso   1.00
N229   N     0.97538   0.04084   0.69529   0.00000  Uiso   1.00
N230   N     0.34447   0.32180   0.89442   0.00000  Uiso   1.00
C231   C     0.72681   0.62584   0.23134   0.00000  Uiso   1.00
C232   C     0.62069   0.66152   0.21205   0.00000  Uiso   1.00
C233   C     0.55952   0.60046   0.18575   0.00000  Uiso   1.00
C234   C     0.46493   0.64757   0.17139   0.00000  Uiso   1.00
C235   C     0.30506   0.68711   0.13966   0.00000  Uiso   1.00
C236   C     0.81045   0.71260   0.22084   0.00000  Uiso   1.00
C237   C     0.90884   0.69447   0.20193   0.00000  Uiso   1.00
C238   C     0.97400   0.78459   0.19498   0.00000  Uiso   1.00
C239   C     0.10879   0.90342   0.17692   0.00000  Uiso   1.00
C240   C     0.70871   0.63516   0.27572   0.00000  Uiso   1.00
C241   C     0.72159   0.55193   0.30295   0.00000  Uiso   1.00
C242   C     0.70112   0.57686   0.34221   0.00000  Uiso   1.00
C243   C     0.67794   0.57545   0.40935   0.00000  Uiso   1.00
C244   C     0.66758   0.81810   0.25262   0.00000  Uiso   1.00
C245   C     0.58852   0.76595   0.22361   0.00000  Uiso   1.00
C246   C     0.49399   0.81318   0.20929   0.00000  Uiso   1.00
C247   C     0.43269   0.75219   0.18297   0.00000  Uiso   1.00
C248   C     0.77829   0.81703   0.23240   0.00000  Uiso   1.00
C249   C     0.84331   0.90719   0.22547   0.00000  Uiso   1.00
C250   C     0.94177   0.88921   0.20656   0.00000  Uiso   1.00
C251   C     0.67654   0.73959   0.28728   0.00000  Uiso   1.00
C252   C     0.65605   0.76465   0.32650   0.00000  Uiso   1.00
C253   C     0.66889   0.68148   0.35378   0.00000  Uiso   1.00
H254   H     0.75186   0.54454   0.22235   0.00000  Uiso   1.00
H255   H     0.58445   0.51964   0.17681   0.00000  Uiso   1.00
H256   H     0.93372   0.61365   0.19300   0.00000  Uiso   1.00
H257   H     0.74649   0.47113   0.29400   0.00000  Uiso   1.00
H258   H     0.38467   0.53812   0.13141   0.00000  Uiso   1.00
H259   H     0.12115   0.73632   0.16555   0.00000  Uiso   1.00
H260   H     0.72634   0.43579   0.37854   0.00000  Uiso   1.00
H261   H     0.64254   0.89941   0.26162   0.00000  Uiso   1.00
H262   H     0.46912   0.89399   0.21824   0.00000  Uiso   1.00
H263   H     0.81840   0.98799   0.23442   0.00000  Uiso   1.00
H264   H     0.63116   0.84547   0.33543   0.00000  Uiso   1.00
H265   H     0.29107   0.84195   0.16503   0.00000  Uiso   1.00
H266   H     0.02755   0.04016   0.19918   0.00000  Uiso   1.00
H267   H     0.63273   0.73963   0.41216   0.00000  Uiso   1.00
O268   O     0.22578   0.68008   0.11896   0.00000  Uiso   1.00
O269   O     0.19202   0.94011   0.16376   0.00000  Uiso   1.00
O270   O     0.67403   0.54582   0.44320   0.00000  Uiso   1.00
N271   N     0.38643   0.61036   0.14528   0.00000  Uiso   1.00
N272   N     0.07498   0.79567   0.17720   0.00000  Uiso   1.00
N273   N     0.70590   0.51471   0.37632   0.00000  Uiso   1.00
N274   N     0.33606   0.77385   0.16337   0.00000  Uiso   1.00
N275   N     0.02462   0.95916   0.19529   0.00000  Uiso   1.00
N276   N     0.65553   0.67820   0.39442   0.00000  Uiso   1.00
C277   C     0.87416   0.22681   0.98134   0.00000  Uiso   1.00
C278   C     0.83848   0.12069   0.96205   0.00000  Uiso   1.00
C279   C     0.89954   0.05952   0.93575   0.00000  Uiso   1.00
C280   C     0.85243   0.96493   0.92139   0.00000  Uiso   1.00
C281   C     0.81289   0.80506   0.88966   0.00000  Uiso   1.00
C282   C     0.78740   0.31045   0.97084   0.00000  Uiso   1.00
C283   C     0.80553   0.40884   0.95193   0.00000  Uiso   1.00
C284   C     0.71541   0.47400   0.94498   0.00000  Uiso   1.00
C285   C     0.59658   0.60879   0.92692   0.00000  Uiso   1.00
C286   C     0.86484   0.20871   0.02572   0.00000  Uiso   1.00
C287   C     0.94807   0.22159   0.05295   0.00000  Uiso   1.00
C288   C     0.92314   0.20112   0.09221   0.00000  Uiso   1.00
C289   C     0.92455   0.17794   0.15935   0.00000  Uiso   1.00
C290   C     0.68190   0.16758   0.00262   0.00000  Uiso   1.00
C291   C     0.73405   0.08852   0.97361   0.00000  Uiso   1.00
C292   C     0.68682   0.99399   0.95929   0.00000  Uiso   1.00
C293   C     0.74781   0.93269   0.93297   0.00000  Uiso   1.00
C294   C     0.68297   0.27829   0.98240   0.00000  Uiso   1.00
C295   C     0.59281   0.34331   0.97547   0.00000  Uiso   1.00
C296   C     0.61079   0.44177   0.95656   0.00000  Uiso   1.00
C297   C     0.76041   0.17654   0.03728   0.00000  Uiso   1.00
C298   C     0.73535   0.15605   0.07650   0.00000  Uiso   1.00
C299   C     0.81852   0.16889   0.10378   0.00000  Uiso   1.00
H300   H     0.95546   0.25186   0.97235   0.00000  Uiso   1.00
H301   H     0.98036   0.08445   0.92681   0.00000  Uiso   1.00
H302   H     0.88635   0.43372   0.94300   0.00000  Uiso   1.00
H303   H     0.02887   0.24649   0.04400   0.00000  Uiso   1.00
H304   H     0.96188   0.88467   0.88141   0.00000  Uiso   1.00
H305   H     0.76368   0.62115   0.91555   0.00000  Uiso   1.00
H306   H     0.06421   0.22634   0.12854   0.00000  Uiso   1.00
H307   H     0.60059   0.14254   0.01162   0.00000  Uiso   1.00
H308   H     0.60601   0.96912   0.96824   0.00000  Uiso   1.00
H309   H     0.51201   0.31840   0.98442   0.00000  Uiso   1.00
H310   H     0.65453   0.13116   0.08543   0.00000  Uiso   1.00
H311   H     0.65805   0.79107   0.91503   0.00000  Uiso   1.00
H312   H     0.45984   0.52755   0.94918   0.00000  Uiso   1.00
H313   H     0.76037   0.13273   0.16216   0.00000  Uiso   1.00
O314   O     0.81992   0.72578   0.86896   0.00000  Uiso   1.00
O315   O     0.55989   0.69202   0.91376   0.00000  Uiso   1.00
O316   O     0.95418   0.17403   0.19320   0.00000  Uiso   1.00
N317   N     0.88964   0.88643   0.89528   0.00000  Uiso   1.00
N318   N     0.70433   0.57498   0.92720   0.00000  Uiso   1.00
N319   N     0.98529   0.20590   0.12632   0.00000  Uiso   1.00
N320   N     0.72615   0.83606   0.91337   0.00000  Uiso   1.00
N321   N     0.54084   0.52462   0.94529   0.00000  Uiso   1.00
N322   N     0.82180   0.15553   0.14442   0.00000  Uiso   1.00
C323   C     0.12584   0.77319   0.48134   0.00000  Uiso   1.00
C324   C     0.16152   0.87931   0.46205   0.00000  Uiso   1.00
C325   C     0.10046   0.94048   0.43575   0.00000  Uiso   1.00
C326   C     0.14757   0.03507   0.42139   0.00000  Uiso   1.00
C327   C     0.18711   0.19494   0.38966   0.00000  Uiso   1.00
C328   C     0.21260   0.68955   0.47084   0.00000  Uiso   1.00
C329   C     0.19447   0.59116   0.45193   0.00000  Uiso   1.00
C330   C     0.28459   0.52600   0.44498   0.00000  Uiso   1.00
C331   C     0.40342   0.39121   0.42692   0.00000  Uiso   1.00
C332   C     0.13516   0.79129   0.52572   0.00000  Uiso   1.00
C333   C     0.05193   0.77841   0.55295   0.00000  Uiso   1.00
C334   C     0.07686   0.79888   0.59221   0.00000  Uiso   1.00
C335   C     0.07545   0.82206   0.65935   0.00000  Uiso   1.00
C336   C     0.31810   0.83242   0.50262   0.00000  Uiso   1.00
C337   C     0.26595   0.91148   0.47361   0.00000  Uiso   1.00
C338   C     0.31318   0.00601   0.45929   0.00000  Uiso   1.00
C339   C     0.25219   0.06731   0.43297   0.00000  Uiso   1.00
C340   C     0.31703   0.72171   0.48240   0.00000  Uiso   1.00
C341   C     0.40719   0.65669   0.47547   0.00000  Uiso   1.00
C342   C     0.38921   0.55823   0.45656   0.00000  Uiso   1.00
C343   C     0.23959   0.82346   0.53728   0.00000  Uiso   1.00
C344   C     0.26465   0.84395   0.57650   0.00000  Uiso   1.00
C345   C     0.18148   0.83111   0.60378   0.00000  Uiso   1.00
H346   H     0.04454   0.74814   0.47235   0.00000  Uiso   1.00
H347   H     0.01964   0.91555   0.42681   0.00000  Uiso   1.00
H348   H     0.11365   0.56628   0.44300   0.00000  Uiso   1.00
H349   H     0.97113   0.75351   0.54400   0.00000  Uiso   1.00
H350   H     0.03812   0.11533   0.38141   0.00000  Uiso   1.00
H351   H     0.23632   0.37885   0.41555   0.00000  Uiso   1.00
H352   H     0.93579   0.77366   0.62854   0.00000  Uiso   1.00
H353   H     0.39941   0.85746   0.51162   0.00000  Uiso   1.00
H354   H     0.39399   0.03088   0.46824   0.00000  Uiso   1.00
H355   H     0.48799   0.68160   0.48442   0.00000  Uiso   1.00
H356   H     0.34547   0.86884   0.58543   0.00000  Uiso   1.00
H357   H     0.34195   0.20893   0.41503   0.00000  Uiso   1.00
H358   H     0.54016   0.47245   0.44918   0.00000  Uiso   1.00
H359   H     0.23963   0.86727   0.66216   0.00000  Uiso   1.00
O360   O     0.18008   0.27422   0.36896   0.00000  Uiso   1.00
O361   O     0.44011   0.30798   0.41376   0.00000  Uiso   1.00
O362   O     0.04582   0.82597   0.69320   0.00000  Uiso   1.00
N363   N     0.11036   0.11357   0.39528   0.00000  Uiso   1.00
N364   N     0.29567   0.42502   0.42720   0.00000  Uiso   1.00
N365   N     0.01471   0.79410   0.62632   0.00000  Uiso   1.00
N366   N     0.27385   0.16394   0.41337   0.00000  Uiso   1.00
N367   N     0.45916   0.47538   0.44529   0.00000  Uiso   1.00
N368   N     0.17820   0.84447   0.64442   0.00000  Uiso   1.00
