data_job_01394
_audit_creation_date              2018-12-19
_audit_creation_method            'Materials Studio'
_symmetry_space_group_name_H-M    'P1'
_symmetry_Int_Tables_number       1
_symmetry_cell_setting            triclinic
loop_
_symmetry_equiv_pos_as_xyz
  x,y,z
_cell_length_a                    21.9823
_cell_length_b                    10.6191
_cell_length_c                    26.5837
_cell_angle_alpha                 90.0000
_cell_angle_beta                  115.1310
_cell_angle_gamma                 90.0000
loop_
_atom_site_label
_atom_site_type_symbol
_atom_site_fract_x
_atom_site_fract_y
_atom_site_fract_z
_atom_site_U_iso_or_equiv
_atom_site_adp_type
_atom_site_occupancy
C1     C     0.99570   0.27125   0.58890   0.00000  Uiso   1.00
C2     C     0.96868   0.36311   0.61858   0.00000  Uiso   1.00
C3     C     0.95629   0.49026   0.60651   0.00000  Uiso   1.00
C4     C     0.93162   0.55825   0.63845   0.00000  Uiso   1.00
C5     C     0.89149   0.70962   0.67810   0.00000  Uiso   1.00
C6     C     0.05898   0.21374   0.63390   0.00000  Uiso   1.00
C7     C     0.12251   0.21529   0.63470   0.00000  Uiso   1.00
C8     C     0.17385   0.15752   0.67953   0.00000  Uiso   1.00
C9     C     0.27390   0.07690   0.74294   0.00000  Uiso   1.00
C10    C     0.94451   0.16469   0.56779   0.00000  Uiso   1.00
C11    C     0.91181   0.12496   0.51302   0.00000  Uiso   1.00
C12    C     0.86678   0.02587   0.50219   0.00000  Uiso   1.00
C13    C     0.78911   0.86908   0.46296   0.00000  Uiso   1.00
C14    C     0.97389   0.16589   0.66708   0.00000  Uiso   1.00
C15    C     0.95683   0.30588   0.66105   0.00000  Uiso   1.00
C16    C     0.93217   0.37370   0.69301   0.00000  Uiso   1.00
C17    C     0.91975   0.50093   0.68099   0.00000  Uiso   1.00
C18    C     0.04713   0.15652   0.67637   0.00000  Uiso   1.00
C19    C     0.09839   0.09872   0.72120   0.00000  Uiso   1.00
C20    C     0.16198   0.10019   0.72208   0.00000  Uiso   1.00
C21    C     0.93266   0.10746   0.61026   0.00000  Uiso   1.00
C22    C     0.88768   0.00840   0.59952   0.00000  Uiso   1.00
C23    C     0.85492   0.96854   0.54474   0.00000  Uiso   1.00
H24    H     0.00492   0.31580   0.55584   0.00000  Uiso   1.00
H25    H     0.96547   0.53452   0.57365   0.00000  Uiso   1.00
H26    H     0.13166   0.25957   0.60183   0.00000  Uiso   1.00
H27    H     0.92099   0.16926   0.48017   0.00000  Uiso   1.00
H28    H     0.91653   0.75178   0.61214   0.00000  Uiso   1.00
H29    H     0.26695   0.17201   0.67155   0.00000  Uiso   1.00
H30    H     0.82271   0.98157   0.41499   0.00000  Uiso   1.00
H31    H     0.96467   0.12133   0.70015   0.00000  Uiso   1.00
H32    H     0.92301   0.32939   0.72588   0.00000  Uiso   1.00
H33    H     0.08920   0.05444   0.75406   0.00000  Uiso   1.00
H34    H     0.87853   0.96414   0.63239   0.00000  Uiso   1.00
H35    H     0.88207   0.58529   0.73569   0.00000  Uiso   1.00
H36    H     0.23249   0.00551   0.79510   0.00000  Uiso   1.00
H37    H     0.78825   0.81509   0.53855   0.00000  Uiso   1.00
O38    O     0.87264   0.80892   0.68825   0.00000  Uiso   1.00
O39    O     0.33237   0.04826   0.76619   0.00000  Uiso   1.00
O40    O     0.74954   0.79842   0.42960   0.00000  Uiso   1.00
N41    N     0.91413   0.68404   0.63768   0.00000  Uiso   1.00
N42    N     0.24175   0.14200   0.69323   0.00000  Uiso   1.00
N43    N     0.82643   0.96394   0.45337   0.00000  Uiso   1.00
N44    N     0.89558   0.59445   0.70416   0.00000  Uiso   1.00
N45    N     0.22320   0.05242   0.75971   0.00000  Uiso   1.00
N46    N     0.80789   0.87436   0.51986   0.00000  Uiso   1.00
C47    C     0.49570   0.77125   0.58890   0.00000  Uiso   1.00
C48    C     0.46868   0.86311   0.61858   0.00000  Uiso   1.00
C49    C     0.45629   0.99026   0.60651   0.00000  Uiso   1.00
C50    C     0.43162   0.05825   0.63845   0.00000  Uiso   1.00
C51    C     0.39149   0.20962   0.67810   0.00000  Uiso   1.00
C52    C     0.55898   0.71374   0.63390   0.00000  Uiso   1.00
C53    C     0.62251   0.71529   0.63470   0.00000  Uiso   1.00
C54    C     0.67385   0.65752   0.67953   0.00000  Uiso   1.00
C55    C     0.77390   0.57690   0.74294   0.00000  Uiso   1.00
C56    C     0.44451   0.66469   0.56779   0.00000  Uiso   1.00
C57    C     0.41181   0.62496   0.51302   0.00000  Uiso   1.00
C58    C     0.36678   0.52587   0.50219   0.00000  Uiso   1.00
C59    C     0.28911   0.36908   0.46296   0.00000  Uiso   1.00
C60    C     0.47389   0.66589   0.66708   0.00000  Uiso   1.00
C61    C     0.45683   0.80588   0.66105   0.00000  Uiso   1.00
C62    C     0.43217   0.87370   0.69301   0.00000  Uiso   1.00
C63    C     0.41975   0.00093   0.68099   0.00000  Uiso   1.00
C64    C     0.54713   0.65652   0.67637   0.00000  Uiso   1.00
C65    C     0.59839   0.59872   0.72120   0.00000  Uiso   1.00
C66    C     0.66198   0.60019   0.72208   0.00000  Uiso   1.00
C67    C     0.43266   0.60746   0.61026   0.00000  Uiso   1.00
C68    C     0.38768   0.50840   0.59952   0.00000  Uiso   1.00
C69    C     0.35492   0.46854   0.54474   0.00000  Uiso   1.00
H70    H     0.50492   0.81580   0.55584   0.00000  Uiso   1.00
H71    H     0.46547   0.03452   0.57365   0.00000  Uiso   1.00
H72    H     0.63166   0.75957   0.60183   0.00000  Uiso   1.00
H73    H     0.42099   0.66926   0.48017   0.00000  Uiso   1.00
H74    H     0.41653   0.25178   0.61214   0.00000  Uiso   1.00
H75    H     0.76695   0.67201   0.67155   0.00000  Uiso   1.00
H76    H     0.32271   0.48157   0.41499   0.00000  Uiso   1.00
H77    H     0.46467   0.62133   0.70015   0.00000  Uiso   1.00
H78    H     0.42301   0.82939   0.72588   0.00000  Uiso   1.00
H79    H     0.58920   0.55444   0.75406   0.00000  Uiso   1.00
H80    H     0.37853   0.46414   0.63239   0.00000  Uiso   1.00
H81    H     0.38207   0.08529   0.73569   0.00000  Uiso   1.00
H82    H     0.73249   0.50551   0.79510   0.00000  Uiso   1.00
H83    H     0.28825   0.31509   0.53855   0.00000  Uiso   1.00
O84    O     0.37264   0.30892   0.68825   0.00000  Uiso   1.00
O85    O     0.83237   0.54826   0.76619   0.00000  Uiso   1.00
O86    O     0.24954   0.29842   0.42960   0.00000  Uiso   1.00
N87    N     0.41413   0.18404   0.63768   0.00000  Uiso   1.00
N88    N     0.74175   0.64200   0.69323   0.00000  Uiso   1.00
N89    N     0.32643   0.46394   0.45337   0.00000  Uiso   1.00
N90    N     0.39558   0.09445   0.70416   0.00000  Uiso   1.00
N91    N     0.72320   0.55242   0.75971   0.00000  Uiso   1.00
N92    N     0.30789   0.37436   0.51986   0.00000  Uiso   1.00
C93    C     0.00430   0.27125   0.91110   0.00000  Uiso   1.00
C94    C     0.03132   0.36311   0.88142   0.00000  Uiso   1.00
C95    C     0.04371   0.49026   0.89349   0.00000  Uiso   1.00
C96    C     0.06838   0.55825   0.86155   0.00000  Uiso   1.00
C97    C     0.10851   0.70962   0.82190   0.00000  Uiso   1.00
C98    C     0.94102   0.21374   0.86610   0.00000  Uiso   1.00
C99    C     0.87749   0.21529   0.86530   0.00000  Uiso   1.00
C100   C     0.82615   0.15752   0.82047   0.00000  Uiso   1.00
C101   C     0.72610   0.07690   0.75706   0.00000  Uiso   1.00
C102   C     0.05549   0.16469   0.93221   0.00000  Uiso   1.00
C103   C     0.08819   0.12496   0.98698   0.00000  Uiso   1.00
C104   C     0.13322   0.02587   0.99781   0.00000  Uiso   1.00
C105   C     0.21089   0.86908   0.03704   0.00000  Uiso   1.00
C106   C     0.02611   0.16589   0.83292   0.00000  Uiso   1.00
C107   C     0.04317   0.30588   0.83895   0.00000  Uiso   1.00
C108   C     0.06783   0.37370   0.80699   0.00000  Uiso   1.00
C109   C     0.08025   0.50093   0.81901   0.00000  Uiso   1.00
C110   C     0.95287   0.15652   0.82363   0.00000  Uiso   1.00
C111   C     0.90161   0.09872   0.77880   0.00000  Uiso   1.00
C112   C     0.83802   0.10019   0.77792   0.00000  Uiso   1.00
C113   C     0.06734   0.10746   0.88974   0.00000  Uiso   1.00
C114   C     0.11232   0.00840   0.90048   0.00000  Uiso   1.00
C115   C     0.14508   0.96854   0.95526   0.00000  Uiso   1.00
H116   H     0.99508   0.31580   0.94416   0.00000  Uiso   1.00
H117   H     0.03453   0.53452   0.92635   0.00000  Uiso   1.00
H118   H     0.86834   0.25957   0.89817   0.00000  Uiso   1.00
H119   H     0.07901   0.16926   0.01983   0.00000  Uiso   1.00
H120   H     0.08347   0.75178   0.88786   0.00000  Uiso   1.00
H121   H     0.73305   0.17201   0.82845   0.00000  Uiso   1.00
H122   H     0.17729   0.98157   0.08501   0.00000  Uiso   1.00
H123   H     0.03533   0.12133   0.79985   0.00000  Uiso   1.00
H124   H     0.07699   0.32939   0.77412   0.00000  Uiso   1.00
H125   H     0.91080   0.05444   0.74594   0.00000  Uiso   1.00
H126   H     0.12147   0.96414   0.86761   0.00000  Uiso   1.00
H127   H     0.11793   0.58529   0.76431   0.00000  Uiso   1.00
H128   H     0.76751   0.00551   0.70490   0.00000  Uiso   1.00
H129   H     0.21175   0.81509   0.96145   0.00000  Uiso   1.00
O130   O     0.12736   0.80892   0.81175   0.00000  Uiso   1.00
O131   O     0.66763   0.04826   0.73381   0.00000  Uiso   1.00
O132   O     0.25046   0.79842   0.07040   0.00000  Uiso   1.00
N133   N     0.08587   0.68404   0.86232   0.00000  Uiso   1.00
N134   N     0.75825   0.14200   0.80677   0.00000  Uiso   1.00
N135   N     0.17357   0.96394   0.04663   0.00000  Uiso   1.00
N136   N     0.10442   0.59445   0.79584   0.00000  Uiso   1.00
N137   N     0.77680   0.05242   0.74029   0.00000  Uiso   1.00
N138   N     0.19211   0.87436   0.98014   0.00000  Uiso   1.00
C139   C     0.50430   0.77125   0.91110   0.00000  Uiso   1.00
C140   C     0.53132   0.86311   0.88142   0.00000  Uiso   1.00
C141   C     0.54371   0.99026   0.89349   0.00000  Uiso   1.00
C142   C     0.56838   0.05825   0.86155   0.00000  Uiso   1.00
C143   C     0.60851   0.20962   0.82190   0.00000  Uiso   1.00
C144   C     0.44102   0.71374   0.86610   0.00000  Uiso   1.00
C145   C     0.37749   0.71529   0.86530   0.00000  Uiso   1.00
C146   C     0.32615   0.65752   0.82047   0.00000  Uiso   1.00
C147   C     0.22610   0.57690   0.75706   0.00000  Uiso   1.00
C148   C     0.55549   0.66469   0.93221   0.00000  Uiso   1.00
C149   C     0.58819   0.62496   0.98698   0.00000  Uiso   1.00
C150   C     0.63322   0.52587   0.99781   0.00000  Uiso   1.00
C151   C     0.71089   0.36908   0.03704   0.00000  Uiso   1.00
C152   C     0.52611   0.66589   0.83292   0.00000  Uiso   1.00
C153   C     0.54317   0.80588   0.83895   0.00000  Uiso   1.00
C154   C     0.56783   0.87370   0.80699   0.00000  Uiso   1.00
C155   C     0.58025   0.00093   0.81901   0.00000  Uiso   1.00
C156   C     0.45287   0.65652   0.82363   0.00000  Uiso   1.00
C157   C     0.40161   0.59872   0.77880   0.00000  Uiso   1.00
C158   C     0.33802   0.60019   0.77792   0.00000  Uiso   1.00
C159   C     0.56734   0.60746   0.88974   0.00000  Uiso   1.00
C160   C     0.61232   0.50840   0.90048   0.00000  Uiso   1.00
C161   C     0.64508   0.46854   0.95526   0.00000  Uiso   1.00
H162   H     0.49508   0.81580   0.94416   0.00000  Uiso   1.00
H163   H     0.53453   0.03452   0.92635   0.00000  Uiso   1.00
H164   H     0.36834   0.75957   0.89817   0.00000  Uiso   1.00
H165   H     0.57901   0.66926   0.01983   0.00000  Uiso   1.00
H166   H     0.58347   0.25178   0.88786   0.00000  Uiso   1.00
H167   H     0.23305   0.67201   0.82845   0.00000  Uiso   1.00
H168   H     0.67729   0.48157   0.08501   0.00000  Uiso   1.00
H169   H     0.53533   0.62133   0.79985   0.00000  Uiso   1.00
H170   H     0.57699   0.82939   0.77412   0.00000  Uiso   1.00
H171   H     0.41080   0.55444   0.74594   0.00000  Uiso   1.00
H172   H     0.62147   0.46414   0.86761   0.00000  Uiso   1.00
H173   H     0.61793   0.08529   0.76431   0.00000  Uiso   1.00
H174   H     0.26751   0.50551   0.70490   0.00000  Uiso   1.00
H175   H     0.71175   0.31509   0.96145   0.00000  Uiso   1.00
O176   O     0.62736   0.30892   0.81175   0.00000  Uiso   1.00
O177   O     0.16763   0.54826   0.73381   0.00000  Uiso   1.00
O178   O     0.75046   0.29842   0.07040   0.00000  Uiso   1.00
N179   N     0.58587   0.18404   0.86232   0.00000  Uiso   1.00
N180   N     0.25825   0.64200   0.80677   0.00000  Uiso   1.00
N181   N     0.67357   0.46394   0.04663   0.00000  Uiso   1.00
N182   N     0.60442   0.09445   0.79584   0.00000  Uiso   1.00
N183   N     0.27680   0.55242   0.74029   0.00000  Uiso   1.00
N184   N     0.69211   0.37436   0.98014   0.00000  Uiso   1.00
C185   C     0.00430   0.72875   0.41110   0.00000  Uiso   1.00
C186   C     0.03132   0.63689   0.38142   0.00000  Uiso   1.00
C187   C     0.04371   0.50974   0.39349   0.00000  Uiso   1.00
C188   C     0.06838   0.44175   0.36155   0.00000  Uiso   1.00
C189   C     0.10851   0.29038   0.32190   0.00000  Uiso   1.00
C190   C     0.94102   0.78626   0.36610   0.00000  Uiso   1.00
C191   C     0.87749   0.78471   0.36530   0.00000  Uiso   1.00
C192   C     0.82615   0.84248   0.32047   0.00000  Uiso   1.00
C193   C     0.72610   0.92310   0.25706   0.00000  Uiso   1.00
C194   C     0.05549   0.83531   0.43221   0.00000  Uiso   1.00
C195   C     0.08819   0.87504   0.48698   0.00000  Uiso   1.00
C196   C     0.13322   0.97413   0.49781   0.00000  Uiso   1.00
C197   C     0.21089   0.13092   0.53704   0.00000  Uiso   1.00
C198   C     0.02611   0.83411   0.33292   0.00000  Uiso   1.00
C199   C     0.04317   0.69412   0.33895   0.00000  Uiso   1.00
C200   C     0.06783   0.62630   0.30699   0.00000  Uiso   1.00
C201   C     0.08025   0.49907   0.31901   0.00000  Uiso   1.00
C202   C     0.95287   0.84348   0.32363   0.00000  Uiso   1.00
C203   C     0.90161   0.90128   0.27880   0.00000  Uiso   1.00
C204   C     0.83802   0.89981   0.27792   0.00000  Uiso   1.00
C205   C     0.06734   0.89254   0.38974   0.00000  Uiso   1.00
C206   C     0.11232   0.99160   0.40048   0.00000  Uiso   1.00
C207   C     0.14508   0.03146   0.45526   0.00000  Uiso   1.00
H208   H     0.99508   0.68420   0.44416   0.00000  Uiso   1.00
H209   H     0.03453   0.46548   0.42635   0.00000  Uiso   1.00
H210   H     0.86834   0.74043   0.39817   0.00000  Uiso   1.00
H211   H     0.07901   0.83074   0.51983   0.00000  Uiso   1.00
H212   H     0.08347   0.24822   0.38786   0.00000  Uiso   1.00
H213   H     0.73305   0.82799   0.32845   0.00000  Uiso   1.00
H214   H     0.17729   0.01843   0.58501   0.00000  Uiso   1.00
H215   H     0.03533   0.87867   0.29985   0.00000  Uiso   1.00
H216   H     0.07699   0.67061   0.27412   0.00000  Uiso   1.00
H217   H     0.91080   0.94556   0.24594   0.00000  Uiso   1.00
H218   H     0.12147   0.03586   0.36761   0.00000  Uiso   1.00
H219   H     0.11793   0.41471   0.26431   0.00000  Uiso   1.00
H220   H     0.76751   0.99449   0.20490   0.00000  Uiso   1.00
H221   H     0.21175   0.18491   0.46145   0.00000  Uiso   1.00
O222   O     0.12736   0.19108   0.31175   0.00000  Uiso   1.00
O223   O     0.66763   0.95174   0.23381   0.00000  Uiso   1.00
O224   O     0.25046   0.20158   0.57040   0.00000  Uiso   1.00
N225   N     0.08587   0.31596   0.36232   0.00000  Uiso   1.00
N226   N     0.75825   0.85800   0.30677   0.00000  Uiso   1.00
N227   N     0.17357   0.03606   0.54663   0.00000  Uiso   1.00
N228   N     0.10442   0.40555   0.29584   0.00000  Uiso   1.00
N229   N     0.77680   0.94758   0.24029   0.00000  Uiso   1.00
N230   N     0.19211   0.12564   0.48014   0.00000  Uiso   1.00
C231   C     0.50430   0.22875   0.41110   0.00000  Uiso   1.00
C232   C     0.53132   0.13689   0.38142   0.00000  Uiso   1.00
C233   C     0.54371   0.00974   0.39349   0.00000  Uiso   1.00
C234   C     0.56838   0.94175   0.36155   0.00000  Uiso   1.00
C235   C     0.60851   0.79038   0.32190   0.00000  Uiso   1.00
C236   C     0.44102   0.28626   0.36610   0.00000  Uiso   1.00
C237   C     0.37749   0.28471   0.36530   0.00000  Uiso   1.00
C238   C     0.32615   0.34248   0.32047   0.00000  Uiso   1.00
C239   C     0.22610   0.42310   0.25706   0.00000  Uiso   1.00
C240   C     0.55549   0.33531   0.43221   0.00000  Uiso   1.00
C241   C     0.58819   0.37504   0.48698   0.00000  Uiso   1.00
C242   C     0.63322   0.47413   0.49781   0.00000  Uiso   1.00
C243   C     0.71089   0.63092   0.53704   0.00000  Uiso   1.00
C244   C     0.52611   0.33411   0.33292   0.00000  Uiso   1.00
C245   C     0.54317   0.19412   0.33895   0.00000  Uiso   1.00
C246   C     0.56783   0.12630   0.30699   0.00000  Uiso   1.00
C247   C     0.58025   0.99907   0.31901   0.00000  Uiso   1.00
C248   C     0.45287   0.34348   0.32363   0.00000  Uiso   1.00
C249   C     0.40161   0.40128   0.27880   0.00000  Uiso   1.00
C250   C     0.33802   0.39981   0.27792   0.00000  Uiso   1.00
C251   C     0.56734   0.39254   0.38974   0.00000  Uiso   1.00
C252   C     0.61232   0.49160   0.40048   0.00000  Uiso   1.00
C253   C     0.64508   0.53146   0.45526   0.00000  Uiso   1.00
H254   H     0.49508   0.18420   0.44416   0.00000  Uiso   1.00
H255   H     0.53453   0.96548   0.42635   0.00000  Uiso   1.00
H256   H     0.36834   0.24043   0.39817   0.00000  Uiso   1.00
H257   H     0.57901   0.33074   0.51983   0.00000  Uiso   1.00
H258   H     0.58347   0.74822   0.38786   0.00000  Uiso   1.00
H259   H     0.23305   0.32799   0.32845   0.00000  Uiso   1.00
H260   H     0.67729   0.51843   0.58501   0.00000  Uiso   1.00
H261   H     0.53533   0.37867   0.29985   0.00000  Uiso   1.00
H262   H     0.57699   0.17061   0.27412   0.00000  Uiso   1.00
H263   H     0.41080   0.44556   0.24594   0.00000  Uiso   1.00
H264   H     0.62147   0.53586   0.36761   0.00000  Uiso   1.00
H265   H     0.61793   0.91471   0.26431   0.00000  Uiso   1.00
H266   H     0.26751   0.49449   0.20490   0.00000  Uiso   1.00
H267   H     0.71175   0.68491   0.46145   0.00000  Uiso   1.00
O268   O     0.62736   0.69108   0.31175   0.00000  Uiso   1.00
O269   O     0.16763   0.45174   0.23381   0.00000  Uiso   1.00
O270   O     0.75046   0.70158   0.57040   0.00000  Uiso   1.00
N271   N     0.58587   0.81596   0.36232   0.00000  Uiso   1.00
N272   N     0.25825   0.35800   0.30677   0.00000  Uiso   1.00
N273   N     0.67357   0.53606   0.54663   0.00000  Uiso   1.00
N274   N     0.60442   0.90555   0.29584   0.00000  Uiso   1.00
N275   N     0.27680   0.44758   0.24029   0.00000  Uiso   1.00
N276   N     0.69211   0.62564   0.48014   0.00000  Uiso   1.00
C277   C     0.99570   0.72875   0.08890   0.00000  Uiso   1.00
C278   C     0.96868   0.63689   0.11858   0.00000  Uiso   1.00
C279   C     0.95629   0.50974   0.10651   0.00000  Uiso   1.00
C280   C     0.93162   0.44175   0.13845   0.00000  Uiso   1.00
C281   C     0.89149   0.29038   0.17810   0.00000  Uiso   1.00
C282   C     0.05898   0.78626   0.13390   0.00000  Uiso   1.00
C283   C     0.12251   0.78471   0.13470   0.00000  Uiso   1.00
C284   C     0.17385   0.84248   0.17953   0.00000  Uiso   1.00
C285   C     0.27390   0.92310   0.24294   0.00000  Uiso   1.00
C286   C     0.94451   0.83531   0.06779   0.00000  Uiso   1.00
C287   C     0.91181   0.87504   0.01302   0.00000  Uiso   1.00
C288   C     0.86678   0.97413   0.00219   0.00000  Uiso   1.00
C289   C     0.78911   0.13092   0.96296   0.00000  Uiso   1.00
C290   C     0.97389   0.83411   0.16708   0.00000  Uiso   1.00
C291   C     0.95683   0.69412   0.16105   0.00000  Uiso   1.00
C292   C     0.93217   0.62630   0.19301   0.00000  Uiso   1.00
C293   C     0.91975   0.49907   0.18099   0.00000  Uiso   1.00
C294   C     0.04713   0.84348   0.17637   0.00000  Uiso   1.00
C295   C     0.09839   0.90128   0.22120   0.00000  Uiso   1.00
C296   C     0.16198   0.89981   0.22208   0.00000  Uiso   1.00
C297   C     0.93266   0.89254   0.11026   0.00000  Uiso   1.00
C298   C     0.88768   0.99160   0.09952   0.00000  Uiso   1.00
C299   C     0.85492   0.03146   0.04474   0.00000  Uiso   1.00
H300   H     0.00492   0.68420   0.05584   0.00000  Uiso   1.00
H301   H     0.96547   0.46548   0.07365   0.00000  Uiso   1.00
H302   H     0.13166   0.74043   0.10183   0.00000  Uiso   1.00
H303   H     0.92099   0.83074   0.98017   0.00000  Uiso   1.00
H304   H     0.91653   0.24822   0.11214   0.00000  Uiso   1.00
H305   H     0.26695   0.82799   0.17155   0.00000  Uiso   1.00
H306   H     0.82271   0.01843   0.91499   0.00000  Uiso   1.00
H307   H     0.96467   0.87867   0.20015   0.00000  Uiso   1.00
H308   H     0.92301   0.67061   0.22588   0.00000  Uiso   1.00
H309   H     0.08920   0.94556   0.25406   0.00000  Uiso   1.00
H310   H     0.87853   0.03586   0.13239   0.00000  Uiso   1.00
H311   H     0.88207   0.41471   0.23569   0.00000  Uiso   1.00
H312   H     0.23249   0.99449   0.29510   0.00000  Uiso   1.00
H313   H     0.78825   0.18491   0.03855   0.00000  Uiso   1.00
O314   O     0.87264   0.19108   0.18825   0.00000  Uiso   1.00
O315   O     0.33237   0.95174   0.26619   0.00000  Uiso   1.00
O316   O     0.74954   0.20158   0.92960   0.00000  Uiso   1.00
N317   N     0.91413   0.31596   0.13768   0.00000  Uiso   1.00
N318   N     0.24175   0.85800   0.19323   0.00000  Uiso   1.00
N319   N     0.82643   0.03606   0.95337   0.00000  Uiso   1.00
N320   N     0.89558   0.40555   0.20416   0.00000  Uiso   1.00
N321   N     0.22320   0.94758   0.25971   0.00000  Uiso   1.00
N322   N     0.80789   0.12564   0.01986   0.00000  Uiso   1.00
C323   C     0.49570   0.22875   0.08890   0.00000  Uiso   1.00
C324   C     0.46868   0.13689   0.11858   0.00000  Uiso   1.00
C325   C     0.45629   0.00974   0.10651   0.00000  Uiso   1.00
C326   C     0.43162   0.94175   0.13845   0.00000  Uiso   1.00
C327   C     0.39149   0.79038   0.17810   0.00000  Uiso   1.00
C328   C     0.55898   0.28626   0.13390   0.00000  Uiso   1.00
C329   C     0.62251   0.28471   0.13470   0.00000  Uiso   1.00
C330   C     0.67385   0.34248   0.17953   0.00000  Uiso   1.00
C331   C     0.77390   0.42310   0.24294   0.00000  Uiso   1.00
C332   C     0.44451   0.33531   0.06779   0.00000  Uiso   1.00
C333   C     0.41181   0.37504   0.01302   0.00000  Uiso   1.00
C334   C     0.36678   0.47413   0.00219   0.00000  Uiso   1.00
C335   C     0.28911   0.63092   0.96296   0.00000  Uiso   1.00
C336   C     0.47389   0.33411   0.16708   0.00000  Uiso   1.00
C337   C     0.45683   0.19412   0.16105   0.00000  Uiso   1.00
C338   C     0.43217   0.12630   0.19301   0.00000  Uiso   1.00
C339   C     0.41975   0.99907   0.18099   0.00000  Uiso   1.00
C340   C     0.54713   0.34348   0.17637   0.00000  Uiso   1.00
C341   C     0.59839   0.40128   0.22120   0.00000  Uiso   1.00
C342   C     0.66198   0.39981   0.22208   0.00000  Uiso   1.00
C343   C     0.43266   0.39254   0.11026   0.00000  Uiso   1.00
C344   C     0.38768   0.49160   0.09952   0.00000  Uiso   1.00
C345   C     0.35492   0.53146   0.04474   0.00000  Uiso   1.00
H346   H     0.50492   0.18420   0.05584   0.00000  Uiso   1.00
H347   H     0.46547   0.96548   0.07365   0.00000  Uiso   1.00
H348   H     0.63166   0.24043   0.10183   0.00000  Uiso   1.00
H349   H     0.42099   0.33074   0.98017   0.00000  Uiso   1.00
H350   H     0.41653   0.74822   0.11214   0.00000  Uiso   1.00
H351   H     0.76695   0.32799   0.17155   0.00000  Uiso   1.00
H352   H     0.32271   0.51843   0.91499   0.00000  Uiso   1.00
H353   H     0.46467   0.37867   0.20015   0.00000  Uiso   1.00
H354   H     0.42301   0.17061   0.22588   0.00000  Uiso   1.00
H355   H     0.58920   0.44556   0.25406   0.00000  Uiso   1.00
H356   H     0.37853   0.53586   0.13239   0.00000  Uiso   1.00
H357   H     0.38207   0.91471   0.23569   0.00000  Uiso   1.00
H358   H     0.73249   0.49449   0.29510   0.00000  Uiso   1.00
H359   H     0.28825   0.68491   0.03855   0.00000  Uiso   1.00
O360   O     0.37264   0.69108   0.18825   0.00000  Uiso   1.00
O361   O     0.83237   0.45174   0.26619   0.00000  Uiso   1.00
O362   O     0.24954   0.70158   0.92960   0.00000  Uiso   1.00
N363   N     0.41413   0.81596   0.13768   0.00000  Uiso   1.00
N364   N     0.74175   0.35800   0.19323   0.00000  Uiso   1.00
N365   N     0.32643   0.53606   0.95337   0.00000  Uiso   1.00
N366   N     0.39558   0.90555   0.20416   0.00000  Uiso   1.00
N367   N     0.72320   0.44758   0.25971   0.00000  Uiso   1.00
N368   N     0.30789   0.62564   0.01986   0.00000  Uiso   1.00
