data_job_02182
_audit_creation_date              2018-12-19
_audit_creation_method            'Materials Studio'
_symmetry_space_group_name_H-M    'P1'
_symmetry_Int_Tables_number       1
_symmetry_cell_setting            triclinic
loop_
_symmetry_equiv_pos_as_xyz
  x,y,z
_cell_length_a                    15.6624
_cell_length_b                    15.6624
_cell_length_c                    12.5606
_cell_angle_alpha                 90.0000
_cell_angle_beta                  90.0000
_cell_angle_gamma                 90.0000
loop_
_atom_site_label
_atom_site_type_symbol
_atom_site_fract_x
_atom_site_fract_y
_atom_site_fract_z
_atom_site_U_iso_or_equiv
_atom_site_adp_type
_atom_site_occupancy
C1     C     0.12682   0.54940   0.92567   0.00000  Uiso   1.00
C2     C     0.09796   0.64145   0.90922   0.00000  Uiso   1.00
C3     C     0.01517   0.67158   0.92097   0.00000  Uiso   1.00
C4     C     0.00185   0.75793   0.90231   0.00000  Uiso   1.00
C5     C     0.94683   0.89261   0.88119   0.00000  Uiso   1.00
C6     C     0.16953   0.52242   0.82188   0.00000  Uiso   1.00
C7     C     0.14691   0.45247   0.76020   0.00000  Uiso   1.00
C8     C     0.19385   0.43862   0.66802   0.00000  Uiso   1.00
C9     C     0.24997   0.38847   0.51134   0.00000  Uiso   1.00
C10    C     0.19764   0.55270   0.00887   0.00000  Uiso   1.00
C11    C     0.19867   0.50819   0.10440   0.00000  Uiso   1.00
C12    C     0.26928   0.51982   0.16965   0.00000  Uiso   1.00
C13    C     0.36904   0.51667   0.30330   0.00000  Uiso   1.00
C14    C     0.25038   0.64917   0.87166   0.00000  Uiso   1.00
C15    C     0.16508   0.69564   0.87989   0.00000  Uiso   1.00
C16    C     0.15188   0.78197   0.86122   0.00000  Uiso   1.00
C17    C     0.06909   0.81223   0.87293   0.00000  Uiso   1.00
C18    C     0.23664   0.57661   0.79254   0.00000  Uiso   1.00
C19    C     0.28362   0.56286   0.70045   0.00000  Uiso   1.00
C20    C     0.26108   0.49291   0.63863   0.00000  Uiso   1.00
C21    C     0.26475   0.60689   0.97954   0.00000  Uiso   1.00
C22    C     0.33538   0.61858   0.04465   0.00000  Uiso   1.00
C23    C     0.33651   0.57410   0.14026   0.00000  Uiso   1.00
H24    H     0.07457   0.50721   0.94850   0.00000  Uiso   1.00
H25    H     0.96325   0.62962   0.94366   0.00000  Uiso   1.00
H26    H     0.09498   0.41054   0.78292   0.00000  Uiso   1.00
H27    H     0.14672   0.46626   0.12707   0.00000  Uiso   1.00
H28    H     0.86943   0.78923   0.92532   0.00000  Uiso   1.00
H29    H     0.14720   0.32727   0.58642   0.00000  Uiso   1.00
H30    H     0.25631   0.44476   0.31213   0.00000  Uiso   1.00
H31    H     0.30264   0.69136   0.84882   0.00000  Uiso   1.00
H32    H     0.20383   0.82389   0.83851   0.00000  Uiso   1.00
H33    H     0.33556   0.60481   0.67777   0.00000  Uiso   1.00
H34    H     0.38730   0.66052   0.02193   0.00000  Uiso   1.00
H35    H     0.06469   0.94691   0.83997   0.00000  Uiso   1.00
H36    H     0.34247   0.48494   0.50107   0.00000  Uiso   1.00
H37    H     0.45158   0.60244   0.22678   0.00000  Uiso   1.00
O38    O     0.89794   0.95192   0.87763   0.00000  Uiso   1.00
O39    O     0.26238   0.34583   0.43302   0.00000  Uiso   1.00
O40    O     0.40553   0.49998   0.38513   0.00000  Uiso   1.00
N41    N     0.92895   0.80816   0.90667   0.00000  Uiso   1.00
N42    N     0.18864   0.37626   0.58980   0.00000  Uiso   1.00
N43    N     0.29066   0.48608   0.26827   0.00000  Uiso   1.00
N44    N     0.03402   0.89300   0.86075   0.00000  Uiso   1.00
N45    N     0.29371   0.46110   0.54388   0.00000  Uiso   1.00
N46    N     0.39573   0.57093   0.22235   0.00000  Uiso   1.00
C47    C     0.87318   0.45060   0.92567   0.00000  Uiso   1.00
C48    C     0.90204   0.35855   0.90922   0.00000  Uiso   1.00
C49    C     0.98483   0.32842   0.92097   0.00000  Uiso   1.00
C50    C     0.99815   0.24207   0.90231   0.00000  Uiso   1.00
C51    C     0.05317   0.10739   0.88119   0.00000  Uiso   1.00
C52    C     0.83047   0.47758   0.82188   0.00000  Uiso   1.00
C53    C     0.85309   0.54753   0.76020   0.00000  Uiso   1.00
C54    C     0.80615   0.56138   0.66802   0.00000  Uiso   1.00
C55    C     0.75003   0.61153   0.51134   0.00000  Uiso   1.00
C56    C     0.80236   0.44730   0.00887   0.00000  Uiso   1.00
C57    C     0.80133   0.49181   0.10440   0.00000  Uiso   1.00
C58    C     0.73072   0.48018   0.16965   0.00000  Uiso   1.00
C59    C     0.63096   0.48333   0.30330   0.00000  Uiso   1.00
C60    C     0.74962   0.35083   0.87166   0.00000  Uiso   1.00
C61    C     0.83492   0.30436   0.87989   0.00000  Uiso   1.00
C62    C     0.84812   0.21803   0.86122   0.00000  Uiso   1.00
C63    C     0.93091   0.18777   0.87293   0.00000  Uiso   1.00
C64    C     0.76336   0.42339   0.79254   0.00000  Uiso   1.00
C65    C     0.71638   0.43714   0.70045   0.00000  Uiso   1.00
C66    C     0.73892   0.50709   0.63863   0.00000  Uiso   1.00
C67    C     0.73525   0.39311   0.97954   0.00000  Uiso   1.00
C68    C     0.66462   0.38142   0.04465   0.00000  Uiso   1.00
C69    C     0.66349   0.42590   0.14026   0.00000  Uiso   1.00
H70    H     0.92543   0.49279   0.94850   0.00000  Uiso   1.00
H71    H     0.03675   0.37038   0.94366   0.00000  Uiso   1.00
H72    H     0.90502   0.58946   0.78292   0.00000  Uiso   1.00
H73    H     0.85328   0.53374   0.12707   0.00000  Uiso   1.00
H74    H     0.13057   0.21077   0.92532   0.00000  Uiso   1.00
H75    H     0.85280   0.67273   0.58642   0.00000  Uiso   1.00
H76    H     0.74369   0.55524   0.31213   0.00000  Uiso   1.00
H77    H     0.69736   0.30864   0.84882   0.00000  Uiso   1.00
H78    H     0.79617   0.17611   0.83851   0.00000  Uiso   1.00
H79    H     0.66444   0.39519   0.67777   0.00000  Uiso   1.00
H80    H     0.61270   0.33948   0.02193   0.00000  Uiso   1.00
H81    H     0.93531   0.05309   0.83997   0.00000  Uiso   1.00
H82    H     0.65753   0.51506   0.50107   0.00000  Uiso   1.00
H83    H     0.54842   0.39756   0.22678   0.00000  Uiso   1.00
O84    O     0.10206   0.04808   0.87763   0.00000  Uiso   1.00
O85    O     0.73762   0.65417   0.43302   0.00000  Uiso   1.00
O86    O     0.59447   0.50002   0.38513   0.00000  Uiso   1.00
N87    N     0.07105   0.19184   0.90667   0.00000  Uiso   1.00
N88    N     0.81136   0.62374   0.58980   0.00000  Uiso   1.00
N89    N     0.70934   0.51392   0.26827   0.00000  Uiso   1.00
N90    N     0.96598   0.10700   0.86075   0.00000  Uiso   1.00
N91    N     0.70629   0.53890   0.54388   0.00000  Uiso   1.00
N92    N     0.60427   0.42907   0.22235   0.00000  Uiso   1.00
C93    C     0.54940   0.87318   0.07433   0.00000  Uiso   1.00
C94    C     0.64145   0.90204   0.09078   0.00000  Uiso   1.00
C95    C     0.67158   0.98483   0.07903   0.00000  Uiso   1.00
C96    C     0.75793   0.99815   0.09769   0.00000  Uiso   1.00
C97    C     0.89261   0.05317   0.11881   0.00000  Uiso   1.00
C98    C     0.52242   0.83047   0.17812   0.00000  Uiso   1.00
C99    C     0.45247   0.85309   0.23980   0.00000  Uiso   1.00
C100   C     0.43862   0.80615   0.33198   0.00000  Uiso   1.00
C101   C     0.38847   0.75003   0.48866   0.00000  Uiso   1.00
C102   C     0.55270   0.80236   0.99113   0.00000  Uiso   1.00
C103   C     0.50819   0.80133   0.89560   0.00000  Uiso   1.00
C104   C     0.51982   0.73072   0.83035   0.00000  Uiso   1.00
C105   C     0.51667   0.63096   0.69670   0.00000  Uiso   1.00
C106   C     0.64917   0.74962   0.12834   0.00000  Uiso   1.00
C107   C     0.69564   0.83492   0.12011   0.00000  Uiso   1.00
C108   C     0.78197   0.84812   0.13878   0.00000  Uiso   1.00
C109   C     0.81223   0.93091   0.12707   0.00000  Uiso   1.00
C110   C     0.57661   0.76336   0.20746   0.00000  Uiso   1.00
C111   C     0.56286   0.71638   0.29955   0.00000  Uiso   1.00
C112   C     0.49291   0.73892   0.36137   0.00000  Uiso   1.00
C113   C     0.60689   0.73525   0.02046   0.00000  Uiso   1.00
C114   C     0.61858   0.66462   0.95535   0.00000  Uiso   1.00
C115   C     0.57410   0.66349   0.85974   0.00000  Uiso   1.00
H116   H     0.50721   0.92543   0.05150   0.00000  Uiso   1.00
H117   H     0.62962   0.03675   0.05634   0.00000  Uiso   1.00
H118   H     0.41054   0.90502   0.21708   0.00000  Uiso   1.00
H119   H     0.46626   0.85328   0.87293   0.00000  Uiso   1.00
H120   H     0.78923   0.13057   0.07468   0.00000  Uiso   1.00
H121   H     0.32727   0.85280   0.41358   0.00000  Uiso   1.00
H122   H     0.44476   0.74369   0.68787   0.00000  Uiso   1.00
H123   H     0.69136   0.69736   0.15118   0.00000  Uiso   1.00
H124   H     0.82389   0.79617   0.16149   0.00000  Uiso   1.00
H125   H     0.60481   0.66444   0.32223   0.00000  Uiso   1.00
H126   H     0.66052   0.61270   0.97807   0.00000  Uiso   1.00
H127   H     0.94691   0.93531   0.16003   0.00000  Uiso   1.00
H128   H     0.48494   0.65753   0.49893   0.00000  Uiso   1.00
H129   H     0.60244   0.54842   0.77322   0.00000  Uiso   1.00
O130   O     0.95192   0.10206   0.12237   0.00000  Uiso   1.00
O131   O     0.34583   0.73762   0.56698   0.00000  Uiso   1.00
O132   O     0.49998   0.59447   0.61487   0.00000  Uiso   1.00
N133   N     0.80816   0.07105   0.09333   0.00000  Uiso   1.00
N134   N     0.37626   0.81136   0.41020   0.00000  Uiso   1.00
N135   N     0.48608   0.70934   0.73173   0.00000  Uiso   1.00
N136   N     0.89300   0.96598   0.13925   0.00000  Uiso   1.00
N137   N     0.46110   0.70629   0.45612   0.00000  Uiso   1.00
N138   N     0.57093   0.60427   0.77765   0.00000  Uiso   1.00
C139   C     0.45060   0.12682   0.07433   0.00000  Uiso   1.00
C140   C     0.35855   0.09796   0.09078   0.00000  Uiso   1.00
C141   C     0.32842   0.01517   0.07903   0.00000  Uiso   1.00
C142   C     0.24207   0.00185   0.09769   0.00000  Uiso   1.00
C143   C     0.10739   0.94683   0.11881   0.00000  Uiso   1.00
C144   C     0.47758   0.16953   0.17812   0.00000  Uiso   1.00
C145   C     0.54753   0.14691   0.23980   0.00000  Uiso   1.00
C146   C     0.56138   0.19385   0.33198   0.00000  Uiso   1.00
C147   C     0.61153   0.24997   0.48866   0.00000  Uiso   1.00
C148   C     0.44730   0.19764   0.99113   0.00000  Uiso   1.00
C149   C     0.49181   0.19867   0.89560   0.00000  Uiso   1.00
C150   C     0.48018   0.26928   0.83035   0.00000  Uiso   1.00
C151   C     0.48333   0.36904   0.69670   0.00000  Uiso   1.00
C152   C     0.35083   0.25038   0.12834   0.00000  Uiso   1.00
C153   C     0.30436   0.16508   0.12011   0.00000  Uiso   1.00
C154   C     0.21803   0.15188   0.13878   0.00000  Uiso   1.00
C155   C     0.18777   0.06909   0.12707   0.00000  Uiso   1.00
C156   C     0.42339   0.23664   0.20746   0.00000  Uiso   1.00
C157   C     0.43714   0.28362   0.29955   0.00000  Uiso   1.00
C158   C     0.50709   0.26108   0.36137   0.00000  Uiso   1.00
C159   C     0.39311   0.26475   0.02046   0.00000  Uiso   1.00
C160   C     0.38142   0.33538   0.95535   0.00000  Uiso   1.00
C161   C     0.42590   0.33651   0.85974   0.00000  Uiso   1.00
H162   H     0.49279   0.07457   0.05150   0.00000  Uiso   1.00
H163   H     0.37038   0.96325   0.05634   0.00000  Uiso   1.00
H164   H     0.58946   0.09498   0.21708   0.00000  Uiso   1.00
H165   H     0.53374   0.14672   0.87293   0.00000  Uiso   1.00
H166   H     0.21077   0.86943   0.07468   0.00000  Uiso   1.00
H167   H     0.67273   0.14720   0.41358   0.00000  Uiso   1.00
H168   H     0.55524   0.25631   0.68787   0.00000  Uiso   1.00
H169   H     0.30864   0.30264   0.15118   0.00000  Uiso   1.00
H170   H     0.17611   0.20383   0.16149   0.00000  Uiso   1.00
H171   H     0.39519   0.33556   0.32223   0.00000  Uiso   1.00
H172   H     0.33948   0.38730   0.97807   0.00000  Uiso   1.00
H173   H     0.05309   0.06469   0.16003   0.00000  Uiso   1.00
H174   H     0.51506   0.34247   0.49893   0.00000  Uiso   1.00
H175   H     0.39756   0.45158   0.77322   0.00000  Uiso   1.00
O176   O     0.04808   0.89794   0.12237   0.00000  Uiso   1.00
O177   O     0.65417   0.26238   0.56698   0.00000  Uiso   1.00
O178   O     0.50002   0.40553   0.61487   0.00000  Uiso   1.00
N179   N     0.19184   0.92895   0.09333   0.00000  Uiso   1.00
N180   N     0.62374   0.18864   0.41020   0.00000  Uiso   1.00
N181   N     0.51392   0.29066   0.73173   0.00000  Uiso   1.00
N182   N     0.10700   0.03402   0.13925   0.00000  Uiso   1.00
N183   N     0.53890   0.29371   0.45612   0.00000  Uiso   1.00
N184   N     0.42907   0.39573   0.77765   0.00000  Uiso   1.00
