data_job_00410
_audit_creation_date              2018-12-19
_audit_creation_method            'Materials Studio'
_symmetry_space_group_name_H-M    'P1'
_symmetry_Int_Tables_number       1
_symmetry_cell_setting            triclinic
loop_
_symmetry_equiv_pos_as_xyz
  x,y,z
_cell_length_a                    9.5729
_cell_length_b                    14.9733
_cell_length_c                    19.8046
_cell_angle_alpha                 90.0000
_cell_angle_beta                  125.7270
_cell_angle_gamma                 90.0000
loop_
_atom_site_label
_atom_site_type_symbol
_atom_site_fract_x
_atom_site_fract_y
_atom_site_fract_z
_atom_site_U_iso_or_equiv
_atom_site_adp_type
_atom_site_occupancy
C1     C     0.99761   0.20300   0.25505   0.00000  Uiso   1.00
C2     C     0.97664   0.23596   0.32153   0.00000  Uiso   1.00
C3     C     0.82465   0.23582   0.31541   0.00000  Uiso   1.00
C4     C     0.83218   0.26880   0.38299   0.00000  Uiso   1.00
C5     C     0.77616   0.31515   0.47537   0.00000  Uiso   1.00
C6     C     0.07218   0.28125   0.23645   0.00000  Uiso   1.00
C7     C     0.00054   0.31919   0.15880   0.00000  Uiso   1.00
C8     C     0.08851   0.39029   0.15476   0.00000  Uiso   1.00
C9     C     0.18090   0.50692   0.11504   0.00000  Uiso   1.00
C10    C     0.13837   0.13211   0.29688   0.00000  Uiso   1.00
C11    C     0.12240   0.04465   0.27003   0.00000  Uiso   1.00
C12    C     0.26612   0.99019   0.31686   0.00000  Uiso   1.00
C13    C     0.46128   0.87525   0.37098   0.00000  Uiso   1.00
C14    C     0.28125   0.26181   0.38594   0.00000  Uiso   1.00
C15    C     0.13071   0.26790   0.39262   0.00000  Uiso   1.00
C16    C     0.13847   0.30088   0.46022   0.00000  Uiso   1.00
C17    C     0.98652   0.30079   0.45421   0.00000  Uiso   1.00
C18    C     0.22624   0.31319   0.30753   0.00000  Uiso   1.00
C19    C     0.31435   0.38425   0.30361   0.00000  Uiso   1.00
C20    C     0.24285   0.42229   0.22598   0.00000  Uiso   1.00
C21    C     0.29244   0.16405   0.36797   0.00000  Uiso   1.00
C22    C     0.43622   0.10972   0.41485   0.00000  Uiso   1.00
C23    C     0.42047   0.02219   0.38808   0.00000  Uiso   1.00
H24    H     0.87767   0.17814   0.19970   0.00000  Uiso   1.00
H25    H     0.70544   0.21110   0.26038   0.00000  Uiso   1.00
H26    H     0.88132   0.29445   0.10379   0.00000  Uiso   1.00
H27    H     0.00316   0.01996   0.21501   0.00000  Uiso   1.00
H28    H     0.58244   0.26177   0.35900   0.00000  Uiso   1.00
H29    H     0.95330   0.43749   0.02881   0.00000  Uiso   1.00
H30    H     0.21024   0.85867   0.26334   0.00000  Uiso   1.00
H31    H     0.40120   0.28668   0.44129   0.00000  Uiso   1.00
H32    H     0.25771   0.32560   0.51523   0.00000  Uiso   1.00
H33    H     0.43358   0.40895   0.35864   0.00000  Uiso   1.00
H34    H     0.55542   0.13446   0.46986   0.00000  Uiso   1.00
H35    H     0.03067   0.35470   0.56584   0.00000  Uiso   1.00
H36    H     0.40154   0.53042   0.23565   0.00000  Uiso   1.00
H37    H     0.65847   0.95160   0.47018   0.00000  Uiso   1.00
O38    O     0.70270   0.33190   0.50669   0.00000  Uiso   1.00
O39    O     0.18928   0.56243   0.07350   0.00000  Uiso   1.00
O40    O     0.52636   0.80303   0.38120   0.00000  Uiso   1.00
N41    N     0.70763   0.27828   0.39754   0.00000  Uiso   1.00
N42    N     0.05435   0.44258   0.08884   0.00000  Uiso   1.00
N43    N     0.29458   0.90144   0.30809   0.00000  Uiso   1.00
N44    N     0.94882   0.32829   0.50884   0.00000  Uiso   1.00
N45    N     0.29554   0.49258   0.20014   0.00000  Uiso   1.00
N46    N     0.53577   0.95144   0.41939   0.00000  Uiso   1.00
C47    C     0.00239   0.70300   0.24495   0.00000  Uiso   1.00
C48    C     0.02336   0.73596   0.17847   0.00000  Uiso   1.00
C49    C     0.17535   0.73582   0.18459   0.00000  Uiso   1.00
C50    C     0.16782   0.76880   0.11701   0.00000  Uiso   1.00
C51    C     0.22384   0.81515   0.02463   0.00000  Uiso   1.00
C52    C     0.92782   0.78125   0.26355   0.00000  Uiso   1.00
C53    C     0.99946   0.81919   0.34120   0.00000  Uiso   1.00
C54    C     0.91149   0.89029   0.34524   0.00000  Uiso   1.00
C55    C     0.81910   0.00692   0.38496   0.00000  Uiso   1.00
C56    C     0.86163   0.63211   0.20312   0.00000  Uiso   1.00
C57    C     0.87760   0.54465   0.22997   0.00000  Uiso   1.00
C58    C     0.73388   0.49019   0.18314   0.00000  Uiso   1.00
C59    C     0.53872   0.37525   0.12902   0.00000  Uiso   1.00
C60    C     0.71875   0.76181   0.11406   0.00000  Uiso   1.00
C61    C     0.86929   0.76790   0.10738   0.00000  Uiso   1.00
C62    C     0.86153   0.80088   0.03978   0.00000  Uiso   1.00
C63    C     0.01348   0.80079   0.04579   0.00000  Uiso   1.00
C64    C     0.77376   0.81319   0.19247   0.00000  Uiso   1.00
C65    C     0.68565   0.88425   0.19639   0.00000  Uiso   1.00
C66    C     0.75715   0.92229   0.27402   0.00000  Uiso   1.00
C67    C     0.70756   0.66405   0.13203   0.00000  Uiso   1.00
C68    C     0.56378   0.60972   0.08515   0.00000  Uiso   1.00
C69    C     0.57953   0.52219   0.11192   0.00000  Uiso   1.00
H70    H     0.12233   0.67814   0.30030   0.00000  Uiso   1.00
H71    H     0.29456   0.71110   0.23962   0.00000  Uiso   1.00
H72    H     0.11868   0.79445   0.39621   0.00000  Uiso   1.00
H73    H     0.99684   0.51996   0.28499   0.00000  Uiso   1.00
H74    H     0.41756   0.76177   0.14100   0.00000  Uiso   1.00
H75    H     0.04670   0.93749   0.47119   0.00000  Uiso   1.00
H76    H     0.78976   0.35867   0.23666   0.00000  Uiso   1.00
H77    H     0.59880   0.78668   0.05871   0.00000  Uiso   1.00
H78    H     0.74229   0.82560   0.98477   0.00000  Uiso   1.00
H79    H     0.56642   0.90895   0.14136   0.00000  Uiso   1.00
H80    H     0.44458   0.63446   0.03014   0.00000  Uiso   1.00
H81    H     0.96933   0.85470   0.93416   0.00000  Uiso   1.00
H82    H     0.59846   0.03042   0.26435   0.00000  Uiso   1.00
H83    H     0.34153   0.45160   0.02982   0.00000  Uiso   1.00
O84    O     0.29730   0.83190   0.99331   0.00000  Uiso   1.00
O85    O     0.81072   0.06243   0.42650   0.00000  Uiso   1.00
O86    O     0.47364   0.30303   0.11880   0.00000  Uiso   1.00
N87    N     0.29237   0.77828   0.10246   0.00000  Uiso   1.00
N88    N     0.94565   0.94258   0.41116   0.00000  Uiso   1.00
N89    N     0.70542   0.40144   0.19191   0.00000  Uiso   1.00
N90    N     0.05118   0.82829   0.99116   0.00000  Uiso   1.00
N91    N     0.70446   0.99258   0.29986   0.00000  Uiso   1.00
N92    N     0.46423   0.45144   0.08061   0.00000  Uiso   1.00
C93    C     0.00239   0.79700   0.74495   0.00000  Uiso   1.00
C94    C     0.02336   0.76404   0.67847   0.00000  Uiso   1.00
C95    C     0.17535   0.76418   0.68459   0.00000  Uiso   1.00
C96    C     0.16782   0.73120   0.61701   0.00000  Uiso   1.00
C97    C     0.22384   0.68485   0.52463   0.00000  Uiso   1.00
C98    C     0.92782   0.71875   0.76355   0.00000  Uiso   1.00
C99    C     0.99946   0.68081   0.84120   0.00000  Uiso   1.00
C100   C     0.91149   0.60971   0.84524   0.00000  Uiso   1.00
C101   C     0.81910   0.49308   0.88496   0.00000  Uiso   1.00
C102   C     0.86163   0.86789   0.70312   0.00000  Uiso   1.00
C103   C     0.87760   0.95535   0.72997   0.00000  Uiso   1.00
C104   C     0.73388   0.00981   0.68314   0.00000  Uiso   1.00
C105   C     0.53872   0.12475   0.62902   0.00000  Uiso   1.00
C106   C     0.71875   0.73819   0.61406   0.00000  Uiso   1.00
C107   C     0.86929   0.73210   0.60738   0.00000  Uiso   1.00
C108   C     0.86153   0.69912   0.53978   0.00000  Uiso   1.00
C109   C     0.01348   0.69921   0.54579   0.00000  Uiso   1.00
C110   C     0.77376   0.68681   0.69247   0.00000  Uiso   1.00
C111   C     0.68565   0.61575   0.69639   0.00000  Uiso   1.00
C112   C     0.75715   0.57771   0.77402   0.00000  Uiso   1.00
C113   C     0.70756   0.83595   0.63203   0.00000  Uiso   1.00
C114   C     0.56378   0.89028   0.58515   0.00000  Uiso   1.00
C115   C     0.57953   0.97781   0.61192   0.00000  Uiso   1.00
H116   H     0.12233   0.82186   0.80030   0.00000  Uiso   1.00
H117   H     0.29456   0.78890   0.73962   0.00000  Uiso   1.00
H118   H     0.11868   0.70555   0.89621   0.00000  Uiso   1.00
H119   H     0.99684   0.98004   0.78499   0.00000  Uiso   1.00
H120   H     0.41756   0.73823   0.64100   0.00000  Uiso   1.00
H121   H     0.04670   0.56251   0.97119   0.00000  Uiso   1.00
H122   H     0.78976   0.14133   0.73666   0.00000  Uiso   1.00
H123   H     0.59880   0.71332   0.55871   0.00000  Uiso   1.00
H124   H     0.74229   0.67440   0.48477   0.00000  Uiso   1.00
H125   H     0.56642   0.59105   0.64136   0.00000  Uiso   1.00
H126   H     0.44458   0.86554   0.53014   0.00000  Uiso   1.00
H127   H     0.96933   0.64530   0.43416   0.00000  Uiso   1.00
H128   H     0.59846   0.46958   0.76435   0.00000  Uiso   1.00
H129   H     0.34153   0.04840   0.52982   0.00000  Uiso   1.00
O130   O     0.29730   0.66810   0.49331   0.00000  Uiso   1.00
O131   O     0.81072   0.43757   0.92650   0.00000  Uiso   1.00
O132   O     0.47364   0.19697   0.61880   0.00000  Uiso   1.00
N133   N     0.29237   0.72172   0.60246   0.00000  Uiso   1.00
N134   N     0.94565   0.55742   0.91116   0.00000  Uiso   1.00
N135   N     0.70542   0.09856   0.69191   0.00000  Uiso   1.00
N136   N     0.05118   0.67171   0.49116   0.00000  Uiso   1.00
N137   N     0.70446   0.50742   0.79986   0.00000  Uiso   1.00
N138   N     0.46423   0.04856   0.58061   0.00000  Uiso   1.00
C139   C     0.99761   0.29700   0.75505   0.00000  Uiso   1.00
C140   C     0.97664   0.26404   0.82153   0.00000  Uiso   1.00
C141   C     0.82465   0.26418   0.81541   0.00000  Uiso   1.00
C142   C     0.83218   0.23120   0.88299   0.00000  Uiso   1.00
C143   C     0.77616   0.18485   0.97537   0.00000  Uiso   1.00
C144   C     0.07218   0.21875   0.73645   0.00000  Uiso   1.00
C145   C     0.00054   0.18081   0.65880   0.00000  Uiso   1.00
C146   C     0.08851   0.10971   0.65476   0.00000  Uiso   1.00
C147   C     0.18090   0.99308   0.61504   0.00000  Uiso   1.00
C148   C     0.13837   0.36789   0.79688   0.00000  Uiso   1.00
C149   C     0.12240   0.45535   0.77003   0.00000  Uiso   1.00
C150   C     0.26612   0.50981   0.81686   0.00000  Uiso   1.00
C151   C     0.46128   0.62475   0.87098   0.00000  Uiso   1.00
C152   C     0.28125   0.23819   0.88594   0.00000  Uiso   1.00
C153   C     0.13071   0.23210   0.89262   0.00000  Uiso   1.00
C154   C     0.13847   0.19912   0.96022   0.00000  Uiso   1.00
C155   C     0.98652   0.19921   0.95421   0.00000  Uiso   1.00
C156   C     0.22624   0.18681   0.80753   0.00000  Uiso   1.00
C157   C     0.31435   0.11575   0.80361   0.00000  Uiso   1.00
C158   C     0.24285   0.07771   0.72598   0.00000  Uiso   1.00
C159   C     0.29244   0.33595   0.86797   0.00000  Uiso   1.00
C160   C     0.43622   0.39028   0.91485   0.00000  Uiso   1.00
C161   C     0.42047   0.47781   0.88808   0.00000  Uiso   1.00
H162   H     0.87767   0.32186   0.69970   0.00000  Uiso   1.00
H163   H     0.70544   0.28890   0.76038   0.00000  Uiso   1.00
H164   H     0.88132   0.20555   0.60379   0.00000  Uiso   1.00
H165   H     0.00316   0.48004   0.71501   0.00000  Uiso   1.00
H166   H     0.58244   0.23823   0.85900   0.00000  Uiso   1.00
H167   H     0.95330   0.06251   0.52881   0.00000  Uiso   1.00
H168   H     0.21024   0.64133   0.76334   0.00000  Uiso   1.00
H169   H     0.40120   0.21332   0.94129   0.00000  Uiso   1.00
H170   H     0.25771   0.17440   0.01523   0.00000  Uiso   1.00
H171   H     0.43358   0.09105   0.85864   0.00000  Uiso   1.00
H172   H     0.55542   0.36554   0.96986   0.00000  Uiso   1.00
H173   H     0.03067   0.14530   0.06584   0.00000  Uiso   1.00
H174   H     0.40154   0.96958   0.73565   0.00000  Uiso   1.00
H175   H     0.65847   0.54840   0.97018   0.00000  Uiso   1.00
O176   O     0.70270   0.16810   0.00669   0.00000  Uiso   1.00
O177   O     0.18928   0.93757   0.57350   0.00000  Uiso   1.00
O178   O     0.52636   0.69697   0.88120   0.00000  Uiso   1.00
N179   N     0.70763   0.22172   0.89754   0.00000  Uiso   1.00
N180   N     0.05435   0.05742   0.58884   0.00000  Uiso   1.00
N181   N     0.29458   0.59856   0.80809   0.00000  Uiso   1.00
N182   N     0.94882   0.17171   0.00884   0.00000  Uiso   1.00
N183   N     0.29554   0.00742   0.70014   0.00000  Uiso   1.00
N184   N     0.53577   0.54856   0.91939   0.00000  Uiso   1.00
