data_job_04578
_audit_creation_date              2018-12-19
_audit_creation_method            'Materials Studio'
_symmetry_space_group_name_H-M    'P1'
_symmetry_Int_Tables_number       1
_symmetry_cell_setting            triclinic
loop_
_symmetry_equiv_pos_as_xyz
  x,y,z
_cell_length_a                    12.7396
_cell_length_b                    17.1001
_cell_length_c                    25.5315
_cell_angle_alpha                 89.7851
_cell_angle_beta                  90.1082
_cell_angle_gamma                 86.0485
loop_
_atom_site_label
_atom_site_type_symbol
_atom_site_fract_x
_atom_site_fract_y
_atom_site_fract_z
_atom_site_U_iso_or_equiv
_atom_site_adp_type
_atom_site_occupancy
C1     C     0.92377   0.47023   0.19447   0.00000  Uiso   1.00
C2     C     0.94472   0.55521   0.20597   0.00000  Uiso   1.00
C3     C     0.94208   0.58993   0.25504   0.00000  Uiso   1.00
C4     C     0.96349   0.66837   0.25733   0.00000  Uiso   1.00
C5     C     0.99244   0.79392   0.28205   0.00000  Uiso   1.00
C6     C     0.83474   0.47338   0.15435   0.00000  Uiso   1.00
C7     C     0.73964   0.43928   0.16002   0.00000  Uiso   1.00
C8     C     0.66847   0.44881   0.11886   0.00000  Uiso   1.00
C9     C     0.52670   0.44726   0.06343   0.00000  Uiso   1.00
C10    C     0.02112   0.43526   0.16609   0.00000  Uiso   1.00
C11    C     0.08272   0.36910   0.18162   0.00000  Uiso   1.00
C12    C     0.16847   0.34653   0.15033   0.00000  Uiso   1.00
C13    C     0.31608   0.28581   0.11312   0.00000  Uiso   1.00
C14    C     0.96649   0.54779   0.11129   0.00000  Uiso   1.00
C15    C     0.96792   0.59734   0.16079   0.00000  Uiso   1.00
C16    C     0.98934   0.67574   0.16301   0.00000  Uiso   1.00
C17    C     0.98674   0.71057   0.21207   0.00000  Uiso   1.00
C18    C     0.85794   0.51550   0.10918   0.00000  Uiso   1.00
C19    C     0.78690   0.52508   0.06799   0.00000  Uiso   1.00
C20    C     0.69171   0.49101   0.07359   0.00000  Uiso   1.00
C21    C     0.04433   0.47739   0.12091   0.00000  Uiso   1.00
C22    C     0.12999   0.45491   0.08959   0.00000  Uiso   1.00
C23    C     0.19171   0.38873   0.10507   0.00000  Uiso   1.00
H24    H     0.90570   0.43744   0.22965   0.00000  Uiso   1.00
H25    H     0.92411   0.55732   0.28999   0.00000  Uiso   1.00
H26    H     0.72171   0.40668   0.19498   0.00000  Uiso   1.00
H27    H     0.06474   0.33652   0.21658   0.00000  Uiso   1.00
H28    H     0.95472   0.70881   0.33697   0.00000  Uiso   1.00
H29    H     0.52795   0.39115   0.13664   0.00000  Uiso   1.00
H30    H     0.25131   0.24321   0.18217   0.00000  Uiso   1.00
H31    H     0.98455   0.58058   0.07612   0.00000  Uiso   1.00
H32    H     0.00730   0.70832   0.12804   0.00000  Uiso   1.00
H33    H     0.80488   0.55768   0.03303   0.00000  Uiso   1.00
H34    H     0.14792   0.48752   0.05463   0.00000  Uiso   1.00
H35    H     0.02223   0.83137   0.20552   0.00000  Uiso   1.00
H36    H     0.59546   0.51371   0.00519   0.00000  Uiso   1.00
H37    H     0.31881   0.36577   0.05073   0.00000  Uiso   1.00
O38    O     0.00198   0.85154   0.30817   0.00000  Uiso   1.00
O39    O     0.44208   0.43477   0.04534   0.00000  Uiso   1.00
O40    O     0.39111   0.24068   0.10508   0.00000  Uiso   1.00
N41    N     0.96751   0.72012   0.29891   0.00000  Uiso   1.00
N42    N     0.56850   0.42314   0.11161   0.00000  Uiso   1.00
N43    N     0.24476   0.28481   0.15418   0.00000  Uiso   1.00
N44    N     0.00384   0.78607   0.22818   0.00000  Uiso   1.00
N45    N     0.60482   0.48909   0.04088   0.00000  Uiso   1.00
N46    N     0.28108   0.35076   0.08345   0.00000  Uiso   1.00
C47    C     0.18237   0.66808   0.68453   0.00000  Uiso   1.00
C48    C     0.20251   0.75318   0.69612   0.00000  Uiso   1.00
C49    C     0.19714   0.78827   0.74505   0.00000  Uiso   1.00
C50    C     0.21824   0.86676   0.74746   0.00000  Uiso   1.00
C51    C     0.24556   0.99255   0.77228   0.00000  Uiso   1.00
C52    C     0.09554   0.67081   0.64324   0.00000  Uiso   1.00
C53    C     0.00025   0.63663   0.64771   0.00000  Uiso   1.00
C54    C     0.93132   0.64577   0.60560   0.00000  Uiso   1.00
C55    C     0.79262   0.64362   0.54831   0.00000  Uiso   1.00
C56    C     0.28130   0.63300   0.65754   0.00000  Uiso   1.00
C57    C     0.34218   0.56703   0.67402   0.00000  Uiso   1.00
C58    C     0.42963   0.54432   0.64393   0.00000  Uiso   1.00
C59    C     0.57933   0.48348   0.60884   0.00000  Uiso   1.00
C60    C     0.22941   0.74506   0.60179   0.00000  Uiso   1.00
C61    C     0.22805   0.79499   0.65117   0.00000  Uiso   1.00
C62    C     0.24918   0.87344   0.65351   0.00000  Uiso   1.00
C63    C     0.24384   0.90865   0.70243   0.00000  Uiso   1.00
C64    C     0.12109   0.71262   0.59830   0.00000  Uiso   1.00
C65    C     0.05229   0.72180   0.55617   0.00000  Uiso   1.00
C66    C     0.95692   0.68766   0.56058   0.00000  Uiso   1.00
C67    C     0.30685   0.67482   0.61259   0.00000  Uiso   1.00
C68    C     0.39422   0.65220   0.58247   0.00000  Uiso   1.00
C69    C     0.45522   0.58621   0.59891   0.00000  Uiso   1.00
H70    H     0.16248   0.63552   0.71952   0.00000  Uiso   1.00
H71    H     0.17735   0.75589   0.77982   0.00000  Uiso   1.00
H72    H     0.98051   0.60427   0.68250   0.00000  Uiso   1.00
H73    H     0.32238   0.53468   0.70880   0.00000  Uiso   1.00
H74    H     0.20507   0.90780   0.82686   0.00000  Uiso   1.00
H75    H     0.79002   0.58807   0.62163   0.00000  Uiso   1.00
H76    H     0.51093   0.44133   0.67709   0.00000  Uiso   1.00
H77    H     0.24930   0.77761   0.56680   0.00000  Uiso   1.00
H78    H     0.26894   0.90579   0.61872   0.00000  Uiso   1.00
H79    H     0.07209   0.75416   0.52139   0.00000  Uiso   1.00
H80    H     0.41396   0.68458   0.54769   0.00000  Uiso   1.00
H81    H     0.27941   0.02946   0.69610   0.00000  Uiso   1.00
H82    H     0.86435   0.70972   0.49087   0.00000  Uiso   1.00
H83    H     0.58526   0.56298   0.54633   0.00000  Uiso   1.00
O84    O     0.25356   0.05038   0.79839   0.00000  Uiso   1.00
O85    O     0.70904   0.63090   0.52914   0.00000  Uiso   1.00
O86    O     0.65485   0.43838   0.60190   0.00000  Uiso   1.00
N87    N     0.21989   0.91883   0.78896   0.00000  Uiso   1.00
N88    N     0.83184   0.61992   0.59709   0.00000  Uiso   1.00
N89    N     0.50581   0.48271   0.64893   0.00000  Uiso   1.00
N90    N     0.25989   0.98430   0.71860   0.00000  Uiso   1.00
N91    N     0.87184   0.68538   0.52673   0.00000  Uiso   1.00
N92    N     0.54581   0.54818   0.57857   0.00000  Uiso   1.00
C93    C     0.31844   0.83065   0.19475   0.00000  Uiso   1.00
C94    C     0.29650   0.74566   0.20597   0.00000  Uiso   1.00
C95    C     0.30046   0.70972   0.25482   0.00000  Uiso   1.00
C96    C     0.27780   0.63151   0.25687   0.00000  Uiso   1.00
C97    C     0.24769   0.50573   0.28115   0.00000  Uiso   1.00
C98    C     0.40592   0.82769   0.15397   0.00000  Uiso   1.00
C99    C     0.50188   0.86074   0.15912   0.00000  Uiso   1.00
C100   C     0.57132   0.85159   0.11739   0.00000  Uiso   1.00
C101   C     0.71105   0.85322   0.06094   0.00000  Uiso   1.00
C102   C     0.22052   0.86719   0.16727   0.00000  Uiso   1.00
C103   C     0.16060   0.93347   0.18359   0.00000  Uiso   1.00
C104   C     0.07396   0.95759   0.15305   0.00000  Uiso   1.00
C105   C     0.92582   0.02055   0.11725   0.00000  Uiso   1.00
C106   C     0.27115   0.75565   0.11150   0.00000  Uiso   1.00
C107   C     0.27081   0.70492   0.16075   0.00000  Uiso   1.00
C108   C     0.24813   0.62674   0.16272   0.00000  Uiso   1.00
C109   C     0.25206   0.59070   0.21157   0.00000  Uiso   1.00
C110   C     0.38023   0.78696   0.10876   0.00000  Uiso   1.00
C111   C     0.44955   0.77776   0.06701   0.00000  Uiso   1.00
C112   C     0.54558   0.81078   0.07209   0.00000  Uiso   1.00
C113   C     0.19482   0.82646   0.12205   0.00000  Uiso   1.00
C114   C     0.10827   0.85048   0.09148   0.00000  Uiso   1.00
C115   C     0.04822   0.91678   0.10775   0.00000  Uiso   1.00
H116   H     0.33845   0.86236   0.22996   0.00000  Uiso   1.00
H117   H     0.32036   0.74127   0.28981   0.00000  Uiso   1.00
H118   H     0.52173   0.89227   0.19411   0.00000  Uiso   1.00
H119   H     0.18050   0.96498   0.21858   0.00000  Uiso   1.00
H120   H     0.28901   0.58903   0.33622   0.00000  Uiso   1.00
H121   H     0.71360   0.90745   0.13444   0.00000  Uiso   1.00
H122   H     0.99405   0.06078   0.18603   0.00000  Uiso   1.00
H123   H     0.25115   0.72393   0.07630   0.00000  Uiso   1.00
H124   H     0.22826   0.59523   0.12772   0.00000  Uiso   1.00
H125   H     0.42963   0.74624   0.03203   0.00000  Uiso   1.00
H126   H     0.08841   0.81895   0.05649   0.00000  Uiso   1.00
H127   H     0.21426   0.47051   0.20466   0.00000  Uiso   1.00
H128   H     0.63885   0.78893   0.00288   0.00000  Uiso   1.00
H129   H     0.91931   0.94225   0.05447   0.00000  Uiso   1.00
O130   O     0.23819   0.44760   0.30703   0.00000  Uiso   1.00
O131   O     0.79522   0.86536   0.04230   0.00000  Uiso   1.00
O132   O     0.85120   0.06652   0.10999   0.00000  Uiso   1.00
N133   N     0.27453   0.57881   0.29820   0.00000  Uiso   1.00
N134   N     0.67151   0.87649   0.10955   0.00000  Uiso   1.00
N135   N     0.99881   0.01985   0.15778   0.00000  Uiso   1.00
N136   N     0.23431   0.51503   0.22741   0.00000  Uiso   1.00
N137   N     0.63129   0.81272   0.03876   0.00000  Uiso   1.00
N138   N     0.95859   0.95608   0.08699   0.00000  Uiso   1.00
C139   C     0.57534   0.02853   0.69173   0.00000  Uiso   1.00
C140   C     0.55285   0.94363   0.70290   0.00000  Uiso   1.00
C141   C     0.55386   0.90823   0.75191   0.00000  Uiso   1.00
C142   C     0.53121   0.83001   0.75389   0.00000  Uiso   1.00
C143   C     0.49982   0.70445   0.77814   0.00000  Uiso   1.00
C144   C     0.66529   0.02522   0.65231   0.00000  Uiso   1.00
C145   C     0.76083   0.05841   0.65878   0.00000  Uiso   1.00
C146   C     0.83283   0.04888   0.61816   0.00000  Uiso   1.00
C147   C     0.97597   0.05003   0.56385   0.00000  Uiso   1.00
C148   C     0.47909   0.06469   0.66266   0.00000  Uiso   1.00
C149   C     0.41809   0.13109   0.67783   0.00000  Uiso   1.00
C150   C     0.33334   0.15479   0.64592   0.00000  Uiso   1.00
C151   C     0.18738   0.21723   0.60768   0.00000  Uiso   1.00
C152   C     0.53332   0.95258   0.60808   0.00000  Uiso   1.00
C153   C     0.53003   0.90238   0.65746   0.00000  Uiso   1.00
C154   C     0.50737   0.82419   0.65936   0.00000  Uiso   1.00
C155   C     0.50835   0.78868   0.70837   0.00000  Uiso   1.00
C156   C     0.64247   0.98396   0.60687   0.00000  Uiso   1.00
C157   C     0.71434   0.97438   0.56623   0.00000  Uiso   1.00
C158   C     0.80997   0.00755   0.57264   0.00000  Uiso   1.00
C159   C     0.45627   0.02343   0.61722   0.00000  Uiso   1.00
C160   C     0.37160   0.04705   0.58528   0.00000  Uiso   1.00
C161   C     0.31048   0.11346   0.60040   0.00000  Uiso   1.00
H162   H     0.59311   0.06065   0.72711   0.00000  Uiso   1.00
H163   H     0.57154   0.94017   0.78707   0.00000  Uiso   1.00
H164   H     0.77846   0.09034   0.69395   0.00000  Uiso   1.00
H165   H     0.43577   0.16300   0.71299   0.00000  Uiso   1.00
H166   H     0.53759   0.78840   0.83351   0.00000  Uiso   1.00
H167   H     0.97389   0.10506   0.63715   0.00000  Uiso   1.00
H168   H     0.25127   0.25828   0.67731   0.00000  Uiso   1.00
H169   H     0.51556   0.92046   0.57270   0.00000  Uiso   1.00
H170   H     0.48972   0.79228   0.62419   0.00000  Uiso   1.00
H171   H     0.69665   0.94245   0.53107   0.00000  Uiso   1.00
H172   H     0.35396   0.01511   0.55012   0.00000  Uiso   1.00
H173   H     0.47118   0.66837   0.70131   0.00000  Uiso   1.00
H174   H     0.90749   0.98503   0.50495   0.00000  Uiso   1.00
H175   H     0.18487   0.13824   0.54512   0.00000  Uiso   1.00
O176   O     0.48882   0.64659   0.80407   0.00000  Uiso   1.00
O177   O     0.06123   0.06205   0.54645   0.00000  Uiso   1.00
O178   O     0.11316   0.26306   0.59914   0.00000  Uiso   1.00
N179   N     0.52548   0.77775   0.79533   0.00000  Uiso   1.00
N180   N     0.93341   0.07380   0.61175   0.00000  Uiso   1.00
N181   N     0.25783   0.21705   0.64929   0.00000  Uiso   1.00
N182   N     0.48975   0.71316   0.72420   0.00000  Uiso   1.00
N183   N     0.89768   0.00921   0.54062   0.00000  Uiso   1.00
N184   N     0.22210   0.15246   0.57816   0.00000  Uiso   1.00
C185   C     0.07623   0.52977   0.80553   0.00000  Uiso   1.00
C186   C     0.05528   0.44479   0.79403   0.00000  Uiso   1.00
C187   C     0.05792   0.41007   0.74496   0.00000  Uiso   1.00
C188   C     0.03651   0.33163   0.74267   0.00000  Uiso   1.00
C189   C     0.00756   0.20608   0.71795   0.00000  Uiso   1.00
C190   C     0.16526   0.52662   0.84565   0.00000  Uiso   1.00
C191   C     0.26036   0.56072   0.83998   0.00000  Uiso   1.00
C192   C     0.33153   0.55119   0.88114   0.00000  Uiso   1.00
C193   C     0.47330   0.55274   0.93657   0.00000  Uiso   1.00
C194   C     0.97888   0.56474   0.83391   0.00000  Uiso   1.00
C195   C     0.91728   0.63090   0.81838   0.00000  Uiso   1.00
C196   C     0.83153   0.65347   0.84967   0.00000  Uiso   1.00
C197   C     0.68392   0.71419   0.88688   0.00000  Uiso   1.00
C198   C     0.03351   0.45221   0.88871   0.00000  Uiso   1.00
C199   C     0.03208   0.40266   0.83921   0.00000  Uiso   1.00
C200   C     0.01066   0.32426   0.83699   0.00000  Uiso   1.00
C201   C     0.01326   0.28943   0.78793   0.00000  Uiso   1.00
C202   C     0.14206   0.48450   0.89082   0.00000  Uiso   1.00
C203   C     0.21310   0.47492   0.93201   0.00000  Uiso   1.00
C204   C     0.30829   0.50899   0.92641   0.00000  Uiso   1.00
C205   C     0.95567   0.52261   0.87909   0.00000  Uiso   1.00
C206   C     0.87001   0.54509   0.91041   0.00000  Uiso   1.00
C207   C     0.80829   0.61127   0.89493   0.00000  Uiso   1.00
H208   H     0.09430   0.56256   0.77035   0.00000  Uiso   1.00
H209   H     0.07589   0.44268   0.71001   0.00000  Uiso   1.00
H210   H     0.27829   0.59332   0.80502   0.00000  Uiso   1.00
H211   H     0.93526   0.66348   0.78342   0.00000  Uiso   1.00
H212   H     0.04528   0.29119   0.66303   0.00000  Uiso   1.00
H213   H     0.47205   0.60885   0.86336   0.00000  Uiso   1.00
H214   H     0.74869   0.75679   0.81783   0.00000  Uiso   1.00
H215   H     0.01545   0.41942   0.92388   0.00000  Uiso   1.00
H216   H     0.99270   0.29168   0.87196   0.00000  Uiso   1.00
H217   H     0.19512   0.44232   0.96697   0.00000  Uiso   1.00
H218   H     0.85208   0.51248   0.94537   0.00000  Uiso   1.00
H219   H     0.97777   0.16863   0.79448   0.00000  Uiso   1.00
H220   H     0.40454   0.48629   0.99481   0.00000  Uiso   1.00
H221   H     0.68119   0.63423   0.94927   0.00000  Uiso   1.00
O222   O     0.99802   0.14846   0.69183   0.00000  Uiso   1.00
O223   O     0.55792   0.56523   0.95466   0.00000  Uiso   1.00
O224   O     0.60889   0.75932   0.89492   0.00000  Uiso   1.00
N225   N     0.03249   0.27988   0.70109   0.00000  Uiso   1.00
N226   N     0.43150   0.57686   0.88839   0.00000  Uiso   1.00
N227   N     0.75524   0.71519   0.84582   0.00000  Uiso   1.00
N228   N     0.99616   0.21393   0.77182   0.00000  Uiso   1.00
N229   N     0.39518   0.51091   0.95912   0.00000  Uiso   1.00
N230   N     0.71892   0.64924   0.91655   0.00000  Uiso   1.00
C231   C     0.81763   0.33192   0.31547   0.00000  Uiso   1.00
C232   C     0.79749   0.24682   0.30388   0.00000  Uiso   1.00
C233   C     0.80286   0.21173   0.25495   0.00000  Uiso   1.00
C234   C     0.78176   0.13324   0.25254   0.00000  Uiso   1.00
C235   C     0.75444   0.00745   0.22772   0.00000  Uiso   1.00
C236   C     0.90446   0.32919   0.35676   0.00000  Uiso   1.00
C237   C     0.99975   0.36337   0.35229   0.00000  Uiso   1.00
C238   C     0.06868   0.35423   0.39440   0.00000  Uiso   1.00
C239   C     0.20738   0.35638   0.45169   0.00000  Uiso   1.00
C240   C     0.71870   0.36700   0.34246   0.00000  Uiso   1.00
C241   C     0.65782   0.43297   0.32598   0.00000  Uiso   1.00
C242   C     0.57037   0.45568   0.35607   0.00000  Uiso   1.00
C243   C     0.42067   0.51652   0.39116   0.00000  Uiso   1.00
C244   C     0.77059   0.25494   0.39821   0.00000  Uiso   1.00
C245   C     0.77195   0.20501   0.34883   0.00000  Uiso   1.00
C246   C     0.75082   0.12656   0.34649   0.00000  Uiso   1.00
C247   C     0.75616   0.09135   0.29757   0.00000  Uiso   1.00
C248   C     0.87891   0.28738   0.40170   0.00000  Uiso   1.00
C249   C     0.94771   0.27820   0.44383   0.00000  Uiso   1.00
C250   C     0.04308   0.31234   0.43942   0.00000  Uiso   1.00
C251   C     0.69315   0.32518   0.38741   0.00000  Uiso   1.00
C252   C     0.60578   0.34780   0.41753   0.00000  Uiso   1.00
C253   C     0.54478   0.41379   0.40109   0.00000  Uiso   1.00
H254   H     0.83752   0.36448   0.28048   0.00000  Uiso   1.00
H255   H     0.82265   0.24411   0.22018   0.00000  Uiso   1.00
H256   H     0.01949   0.39573   0.31750   0.00000  Uiso   1.00
H257   H     0.67762   0.46532   0.29120   0.00000  Uiso   1.00
H258   H     0.79493   0.09220   0.17314   0.00000  Uiso   1.00
H259   H     0.20998   0.41193   0.37837   0.00000  Uiso   1.00
H260   H     0.48907   0.55867   0.32291   0.00000  Uiso   1.00
H261   H     0.75070   0.22239   0.43320   0.00000  Uiso   1.00
H262   H     0.73106   0.09421   0.38128   0.00000  Uiso   1.00
H263   H     0.92791   0.24584   0.47861   0.00000  Uiso   1.00
H264   H     0.58604   0.31542   0.45231   0.00000  Uiso   1.00
H265   H     0.72059   0.97054   0.30390   0.00000  Uiso   1.00
H266   H     0.13565   0.29028   0.50913   0.00000  Uiso   1.00
H267   H     0.41474   0.43702   0.45367   0.00000  Uiso   1.00
O268   O     0.74644   0.94962   0.20161   0.00000  Uiso   1.00
O269   O     0.29096   0.36910   0.47086   0.00000  Uiso   1.00
O270   O     0.34515   0.56162   0.39810   0.00000  Uiso   1.00
N271   N     0.78011   0.08117   0.21104   0.00000  Uiso   1.00
N272   N     0.16816   0.38008   0.40291   0.00000  Uiso   1.00
N273   N     0.49419   0.51729   0.35107   0.00000  Uiso   1.00
N274   N     0.74011   0.01570   0.28140   0.00000  Uiso   1.00
N275   N     0.12816   0.31462   0.47327   0.00000  Uiso   1.00
N276   N     0.45419   0.45182   0.42143   0.00000  Uiso   1.00
C277   C     0.68156   0.16935   0.80525   0.00000  Uiso   1.00
C278   C     0.70350   0.25434   0.79403   0.00000  Uiso   1.00
C279   C     0.69954   0.29028   0.74518   0.00000  Uiso   1.00
C280   C     0.72220   0.36849   0.74313   0.00000  Uiso   1.00
C281   C     0.75231   0.49427   0.71885   0.00000  Uiso   1.00
C282   C     0.59408   0.17231   0.84603   0.00000  Uiso   1.00
C283   C     0.49812   0.13926   0.84088   0.00000  Uiso   1.00
C284   C     0.42868   0.14841   0.88261   0.00000  Uiso   1.00
C285   C     0.28895   0.14678   0.93906   0.00000  Uiso   1.00
C286   C     0.77948   0.13281   0.83273   0.00000  Uiso   1.00
C287   C     0.83940   0.06653   0.81641   0.00000  Uiso   1.00
C288   C     0.92604   0.04241   0.84695   0.00000  Uiso   1.00
C289   C     0.07418   0.97945   0.88275   0.00000  Uiso   1.00
C290   C     0.72885   0.24435   0.88850   0.00000  Uiso   1.00
C291   C     0.72919   0.29508   0.83925   0.00000  Uiso   1.00
C292   C     0.75187   0.37326   0.83728   0.00000  Uiso   1.00
C293   C     0.74794   0.40930   0.78843   0.00000  Uiso   1.00
C294   C     0.61977   0.21304   0.89124   0.00000  Uiso   1.00
C295   C     0.55045   0.22224   0.93299   0.00000  Uiso   1.00
C296   C     0.45442   0.18922   0.92791   0.00000  Uiso   1.00
C297   C     0.80518   0.17354   0.87795   0.00000  Uiso   1.00
C298   C     0.89173   0.14952   0.90852   0.00000  Uiso   1.00
C299   C     0.95178   0.08322   0.89225   0.00000  Uiso   1.00
H300   H     0.66155   0.13764   0.77004   0.00000  Uiso   1.00
H301   H     0.67964   0.25873   0.71019   0.00000  Uiso   1.00
H302   H     0.47827   0.10773   0.80589   0.00000  Uiso   1.00
H303   H     0.81950   0.03502   0.78142   0.00000  Uiso   1.00
H304   H     0.71099   0.41097   0.66378   0.00000  Uiso   1.00
H305   H     0.28640   0.09255   0.86556   0.00000  Uiso   1.00
H306   H     0.00595   0.93922   0.81397   0.00000  Uiso   1.00
H307   H     0.74885   0.27607   0.92370   0.00000  Uiso   1.00
H308   H     0.77174   0.40477   0.87228   0.00000  Uiso   1.00
H309   H     0.57037   0.25376   0.96797   0.00000  Uiso   1.00
H310   H     0.91159   0.18105   0.94351   0.00000  Uiso   1.00
H311   H     0.78574   0.52949   0.79534   0.00000  Uiso   1.00
H312   H     0.36115   0.21107   0.99712   0.00000  Uiso   1.00
H313   H     0.08069   0.05775   0.94553   0.00000  Uiso   1.00
O314   O     0.76181   0.55240   0.69297   0.00000  Uiso   1.00
O315   O     0.20478   0.13464   0.95770   0.00000  Uiso   1.00
O316   O     0.14880   0.93348   0.89001   0.00000  Uiso   1.00
N317   N     0.72547   0.42119   0.70180   0.00000  Uiso   1.00
N318   N     0.32849   0.12351   0.89045   0.00000  Uiso   1.00
N319   N     0.00119   0.98015   0.84222   0.00000  Uiso   1.00
N320   N     0.76569   0.48497   0.77259   0.00000  Uiso   1.00
N321   N     0.36871   0.18728   0.96124   0.00000  Uiso   1.00
N322   N     0.04141   0.04392   0.91301   0.00000  Uiso   1.00
C323   C     0.42466   0.97147   0.30827   0.00000  Uiso   1.00
C324   C     0.44715   0.05637   0.29710   0.00000  Uiso   1.00
C325   C     0.44614   0.09177   0.24809   0.00000  Uiso   1.00
C326   C     0.46879   0.16999   0.24611   0.00000  Uiso   1.00
C327   C     0.50018   0.29555   0.22186   0.00000  Uiso   1.00
C328   C     0.33471   0.97478   0.34769   0.00000  Uiso   1.00
C329   C     0.23917   0.94159   0.34122   0.00000  Uiso   1.00
C330   C     0.16717   0.95112   0.38184   0.00000  Uiso   1.00
C331   C     0.02403   0.94997   0.43615   0.00000  Uiso   1.00
C332   C     0.52091   0.93531   0.33734   0.00000  Uiso   1.00
C333   C     0.58191   0.86891   0.32217   0.00000  Uiso   1.00
C334   C     0.66666   0.84521   0.35408   0.00000  Uiso   1.00
C335   C     0.81262   0.78277   0.39232   0.00000  Uiso   1.00
C336   C     0.46668   0.04742   0.39192   0.00000  Uiso   1.00
C337   C     0.46997   0.09762   0.34254   0.00000  Uiso   1.00
C338   C     0.49263   0.17581   0.34064   0.00000  Uiso   1.00
C339   C     0.49165   0.21132   0.29163   0.00000  Uiso   1.00
C340   C     0.35753   0.01604   0.39313   0.00000  Uiso   1.00
C341   C     0.28566   0.02562   0.43377   0.00000  Uiso   1.00
C342   C     0.19003   0.99245   0.42736   0.00000  Uiso   1.00
C343   C     0.54373   0.97657   0.38278   0.00000  Uiso   1.00
C344   C     0.62840   0.95295   0.41472   0.00000  Uiso   1.00
C345   C     0.68952   0.88654   0.39960   0.00000  Uiso   1.00
H346   H     0.40689   0.93935   0.27289   0.00000  Uiso   1.00
H347   H     0.42846   0.05983   0.21293   0.00000  Uiso   1.00
H348   H     0.22154   0.90966   0.30605   0.00000  Uiso   1.00
H349   H     0.56423   0.83700   0.28701   0.00000  Uiso   1.00
H350   H     0.46241   0.21160   0.16649   0.00000  Uiso   1.00
H351   H     0.02611   0.89494   0.36285   0.00000  Uiso   1.00
H352   H     0.74873   0.74172   0.32269   0.00000  Uiso   1.00
H353   H     0.48444   0.07954   0.42730   0.00000  Uiso   1.00
H354   H     0.51028   0.20772   0.37581   0.00000  Uiso   1.00
H355   H     0.30335   0.05755   0.46893   0.00000  Uiso   1.00
H356   H     0.64604   0.98489   0.44988   0.00000  Uiso   1.00
H357   H     0.52882   0.33163   0.29869   0.00000  Uiso   1.00
H358   H     0.09251   0.01497   0.49505   0.00000  Uiso   1.00
H359   H     0.81513   0.86176   0.45488   0.00000  Uiso   1.00
O360   O     0.51118   0.35341   0.19593   0.00000  Uiso   1.00
O361   O     0.93877   0.93795   0.45355   0.00000  Uiso   1.00
O362   O     0.88684   0.73694   0.40086   0.00000  Uiso   1.00
N363   N     0.47452   0.22225   0.20467   0.00000  Uiso   1.00
N364   N     0.06659   0.92620   0.38825   0.00000  Uiso   1.00
N365   N     0.74217   0.78295   0.35071   0.00000  Uiso   1.00
N366   N     0.51025   0.28684   0.27580   0.00000  Uiso   1.00
N367   N     0.10232   0.99079   0.45938   0.00000  Uiso   1.00
N368   N     0.77790   0.84754   0.42184   0.00000  Uiso   1.00
