data_job_04543
_audit_creation_date              2018-12-19
_audit_creation_method            'Materials Studio'
_symmetry_space_group_name_H-M    'P1'
_symmetry_Int_Tables_number       1
_symmetry_cell_setting            triclinic
loop_
_symmetry_equiv_pos_as_xyz
  x,y,z
_cell_length_a                    12.3167
_cell_length_b                    14.5441
_cell_length_c                    28.5703
_cell_angle_alpha                 89.6546
_cell_angle_beta                  78.7979
_cell_angle_gamma                 103.2517
loop_
_atom_site_label
_atom_site_type_symbol
_atom_site_fract_x
_atom_site_fract_y
_atom_site_fract_z
_atom_site_U_iso_or_equiv
_atom_site_adp_type
_atom_site_occupancy
C1     C     0.65945   0.53565   0.11891   0.00000  Uiso   1.00
C2     C     0.59587   0.44503   0.14861   0.00000  Uiso   1.00
C3     C     0.61166   0.35501   0.13913   0.00000  Uiso   1.00
C4     C     0.54514   0.28131   0.17059   0.00000  Uiso   1.00
C5     C     0.45845   0.13818   0.21068   0.00000  Uiso   1.00
C6     C     0.56831   0.57928   0.10477   0.00000  Uiso   1.00
C7     C     0.56096   0.60215   0.05844   0.00000  Uiso   1.00
C8     C     0.47124   0.64147   0.05299   0.00000  Uiso   1.00
C9     C     0.34183   0.70682   0.02503   0.00000  Uiso   1.00
C10    C     0.71394   0.60265   0.15318   0.00000  Uiso   1.00
C11    C     0.82903   0.64518   0.14754   0.00000  Uiso   1.00
C12    C     0.86191   0.70420   0.18284   0.00000  Uiso   1.00
C13    C     0.95861   0.80584   0.23003   0.00000  Uiso   1.00
C14    C     0.51320   0.56484   0.19162   0.00000  Uiso   1.00
C15    C     0.51643   0.46089   0.18810   0.00000  Uiso   1.00
C16    C     0.44986   0.38731   0.21958   0.00000  Uiso   1.00
C17    C     0.46556   0.29719   0.21015   0.00000  Uiso   1.00
C18    C     0.48888   0.59513   0.14426   0.00000  Uiso   1.00
C19    C     0.39916   0.63444   0.13889   0.00000  Uiso   1.00
C20    C     0.39167   0.65735   0.09256   0.00000  Uiso   1.00
C21    C     0.63451   0.61850   0.19267   0.00000  Uiso   1.00
C22    C     0.66722   0.67747   0.22799   0.00000  Uiso   1.00
C23    C     0.78234   0.72008   0.22241   0.00000  Uiso   1.00
H24    H     0.72129   0.52331   0.08816   0.00000  Uiso   1.00
H25    H     0.67314   0.34277   0.10856   0.00000  Uiso   1.00
H26    H     0.62245   0.58988   0.02788   0.00000  Uiso   1.00
H27    H     0.89047   0.63290   0.11697   0.00000  Uiso   1.00
H28    H     0.58470   0.14960   0.14859   0.00000  Uiso   1.00
H29    H     0.47784   0.67065   0.97847   0.00000  Uiso   1.00
H30    H     0.04302   0.76138   0.16633   0.00000  Uiso   1.00
H31    H     0.45136   0.57719   0.22237   0.00000  Uiso   1.00
H32    H     0.38840   0.39960   0.25014   0.00000  Uiso   1.00
H33    H     0.33771   0.64670   0.16946   0.00000  Uiso   1.00
H34    H     0.60573   0.68972   0.25854   0.00000  Uiso   1.00
H35    H     0.35359   0.19572   0.26350   0.00000  Uiso   1.00
H36    H     0.24673   0.71678   0.09338   0.00000  Uiso   1.00
H37    H     0.81190   0.80750   0.28124   0.00000  Uiso   1.00
O38    O     0.43257   0.05486   0.22188   0.00000  Uiso   1.00
O39    O     0.29239   0.73848   0.99869   0.00000  Uiso   1.00
O40    O     0.03389   0.85751   0.24516   0.00000  Uiso   1.00
N41    N     0.53896   0.18482   0.17183   0.00000  Uiso   1.00
N42    N     0.43905   0.67197   0.01278   0.00000  Uiso   1.00
N43    N     0.96744   0.75681   0.18840   0.00000  Uiso   1.00
N44    N     0.41460   0.20964   0.23366   0.00000  Uiso   1.00
N45    N     0.31469   0.69679   0.07461   0.00000  Uiso   1.00
N46    N     0.84308   0.78163   0.25023   0.00000  Uiso   1.00
C47    C     0.56601   0.74138   0.63952   0.00000  Uiso   1.00
C48    C     0.50221   0.65016   0.66866   0.00000  Uiso   1.00
C49    C     0.51631   0.56011   0.65805   0.00000  Uiso   1.00
C50    C     0.44989   0.48581   0.68916   0.00000  Uiso   1.00
C51    C     0.36261   0.34182   0.72827   0.00000  Uiso   1.00
C52    C     0.47496   0.78691   0.62675   0.00000  Uiso   1.00
C53    C     0.46616   0.81186   0.58091   0.00000  Uiso   1.00
C54    C     0.37680   0.85269   0.57675   0.00000  Uiso   1.00
C55    C     0.24726   0.92109   0.55081   0.00000  Uiso   1.00
C56    C     0.62282   0.80638   0.67393   0.00000  Uiso   1.00
C57    C     0.73834   0.84772   0.66774   0.00000  Uiso   1.00
C58    C     0.77348   0.90497   0.70329   0.00000  Uiso   1.00
C59    C     0.87352   0.00360   0.75059   0.00000  Uiso   1.00
C60    C     0.42298   0.76956   0.71364   0.00000  Uiso   1.00
C61    C     0.42452   0.66546   0.70891   0.00000  Uiso   1.00
C62    C     0.35807   0.59128   0.74005   0.00000  Uiso   1.00
C63    C     0.37207   0.50114   0.72949   0.00000  Uiso   1.00
C64    C     0.39727   0.80222   0.66701   0.00000  Uiso   1.00
C65    C     0.30791   0.84303   0.66292   0.00000  Uiso   1.00
C66    C     0.29897   0.86802   0.61708   0.00000  Uiso   1.00
C67    C     0.54514   0.82169   0.71419   0.00000  Uiso   1.00
C68    C     0.58010   0.87889   0.74975   0.00000  Uiso   1.00
C69    C     0.69565   0.92031   0.74362   0.00000  Uiso   1.00
H70    H     0.62648   0.72947   0.60817   0.00000  Uiso   1.00
H71    H     0.57643   0.54829   0.62688   0.00000  Uiso   1.00
H72    H     0.52629   0.80001   0.54977   0.00000  Uiso   1.00
H73    H     0.79844   0.83586   0.63658   0.00000  Uiso   1.00
H74    H     0.48665   0.35417   0.66538   0.00000  Uiso   1.00
H75    H     0.38095   0.88496   0.50277   0.00000  Uiso   1.00
H76    H     0.95482   0.96057   0.68584   0.00000  Uiso   1.00
H77    H     0.36249   0.78148   0.74498   0.00000  Uiso   1.00
H78    H     0.29795   0.60315   0.77120   0.00000  Uiso   1.00
H79    H     0.24781   0.85487   0.69408   0.00000  Uiso   1.00
H80    H     0.51996   0.89072   0.78090   0.00000  Uiso   1.00
H81    H     0.26062   0.39869   0.78251   0.00000  Uiso   1.00
H82    H     0.15493   0.92949   0.61990   0.00000  Uiso   1.00
H83    H     0.72879   0.00510   0.80297   0.00000  Uiso   1.00
O84    O     0.33592   0.25818   0.73871   0.00000  Uiso   1.00
O85    O     0.19727   0.95458   0.52538   0.00000  Uiso   1.00
O86    O     0.95016   0.05377   0.76557   0.00000  Uiso   1.00
N87    N     0.44233   0.38912   0.68935   0.00000  Uiso   1.00
N88    N     0.34350   0.88537   0.53732   0.00000  Uiso   1.00
N89    N     0.88001   0.95608   0.70847   0.00000  Uiso   1.00
N90    N     0.32071   0.41308   0.75238   0.00000  Uiso   1.00
N91    N     0.22188   0.90933   0.60035   0.00000  Uiso   1.00
N92    N     0.75839   0.98004   0.77150   0.00000  Uiso   1.00
C93    C     0.00059   0.12480   0.11013   0.00000  Uiso   1.00
C94    C     0.02474   0.22368   0.12908   0.00000  Uiso   1.00
C95    C     0.03543   0.30752   0.10327   0.00000  Uiso   1.00
C96    C     0.05759   0.39064   0.12704   0.00000  Uiso   1.00
C97    C     0.09347   0.54429   0.14918   0.00000  Uiso   1.00
C98    C     0.09737   0.08128   0.11819   0.00000  Uiso   1.00
C99    C     0.16912   0.04539   0.08322   0.00000  Uiso   1.00
C100   C     0.25241   0.00861   0.09783   0.00000  Uiso   1.00
C101   C     0.40099   0.94113   0.10306   0.00000  Uiso   1.00
C102   C     0.89360   0.06842   0.14351   0.00000  Uiso   1.00
C103   C     0.79402   0.02169   0.12983   0.00000  Uiso   1.00
C104   C     0.70575   0.97407   0.16576   0.00000  Uiso   1.00
C105   C     0.53795   0.88662   0.21031   0.00000  Uiso   1.00
C106   C     0.02092   0.12330   0.19825   0.00000  Uiso   1.00
C107   C     0.03578   0.22286   0.17694   0.00000  Uiso   1.00
C108   C     0.05792   0.30587   0.20076   0.00000  Uiso   1.00
C109   C     0.06865   0.38982   0.17499   0.00000  Uiso   1.00
C110   C     0.10842   0.08046   0.16605   0.00000  Uiso   1.00
C111   C     0.19161   0.04373   0.18071   0.00000  Uiso   1.00
C112   C     0.26347   0.00780   0.14578   0.00000  Uiso   1.00
C113   C     0.90464   0.06760   0.19137   0.00000  Uiso   1.00
C114   C     0.81651   0.02004   0.22732   0.00000  Uiso   1.00
C115   C     0.71682   0.97325   0.21371   0.00000  Uiso   1.00
H116   H     0.99200   0.12543   0.07287   0.00000  Uiso   1.00
H117   H     0.02690   0.30813   0.06623   0.00000  Uiso   1.00
H118   H     0.16055   0.04602   0.04619   0.00000  Uiso   1.00
H119   H     0.78551   0.02233   0.09279   0.00000  Uiso   1.00
H120   H     0.07049   0.51032   0.07997   0.00000  Uiso   1.00
H121   H     0.35228   0.95763   0.03772   0.00000  Uiso   1.00
H122   H     0.56144   0.90767   0.13599   0.00000  Uiso   1.00
H123   H     0.02951   0.12266   0.23551   0.00000  Uiso   1.00
H124   H     0.06646   0.30521   0.23780   0.00000  Uiso   1.00
H125   H     0.20012   0.04310   0.21775   0.00000  Uiso   1.00
H126   H     0.82508   0.01942   0.26436   0.00000  Uiso   1.00
H127   H     0.10261   0.50796   0.21922   0.00000  Uiso   1.00
H128   H     0.38441   0.95525   0.17696   0.00000  Uiso   1.00
H129   H     0.59356   0.90531   0.27524   0.00000  Uiso   1.00
O130   O     0.11022   0.62927   0.14816   0.00000  Uiso   1.00
O131   O     0.47990   0.90414   0.09272   0.00000  Uiso   1.00
O132   O     0.44234   0.83862   0.22166   0.00000  Uiso   1.00
N133   N     0.07296   0.48471   0.11244   0.00000  Uiso   1.00
N134   N     0.33643   0.96799   0.07292   0.00000  Uiso   1.00
N135   N     0.59707   0.92126   0.16480   0.00000  Uiso   1.00
N136   N     0.09024   0.48344   0.18736   0.00000  Uiso   1.00
N137   N     0.35371   0.96671   0.14785   0.00000  Uiso   1.00
N138   N     0.61435   0.91999   0.23973   0.00000  Uiso   1.00
C139   C     0.91085   0.32094   0.62698   0.00000  Uiso   1.00
C140   C     0.93438   0.41923   0.64663   0.00000  Uiso   1.00
C141   C     0.94443   0.50365   0.62144   0.00000  Uiso   1.00
C142   C     0.96609   0.58606   0.64580   0.00000  Uiso   1.00
C143   C     0.00099   0.73899   0.66903   0.00000  Uiso   1.00
C144   C     0.00811   0.27754   0.63452   0.00000  Uiso   1.00
C145   C     0.08014   0.24282   0.59916   0.00000  Uiso   1.00
C146   C     0.16385   0.20594   0.61333   0.00000  Uiso   1.00
C147   C     0.31315   0.13883   0.61776   0.00000  Uiso   1.00
C148   C     0.80417   0.26348   0.66012   0.00000  Uiso   1.00
C149   C     0.70473   0.21691   0.64629   0.00000  Uiso   1.00
C150   C     0.61675   0.16817   0.68201   0.00000  Uiso   1.00
C151   C     0.44941   0.07923   0.72620   0.00000  Uiso   1.00
C152   C     0.93143   0.31716   0.71503   0.00000  Uiso   1.00
C153   C     0.94556   0.41717   0.69445   0.00000  Uiso   1.00
C154   C     0.96721   0.49947   0.71886   0.00000  Uiso   1.00
C155   C     0.97729   0.58401   0.69371   0.00000  Uiso   1.00
C156   C     0.01929   0.27548   0.68234   0.00000  Uiso   1.00
C157   C     0.10291   0.23864   0.69657   0.00000  Uiso   1.00
C158   C     0.17505   0.20388   0.66123   0.00000  Uiso   1.00
C159   C     0.81534   0.26142   0.70795   0.00000  Uiso   1.00
C160   C     0.72750   0.21274   0.74370   0.00000  Uiso   1.00
C161   C     0.62795   0.16612   0.72992   0.00000  Uiso   1.00
H162   H     0.90215   0.32254   0.58975   0.00000  Uiso   1.00
H163   H     0.93579   0.50522   0.58443   0.00000  Uiso   1.00
H164   H     0.07146   0.24441   0.56215   0.00000  Uiso   1.00
H165   H     0.69611   0.21852   0.60927   0.00000  Uiso   1.00
H166   H     0.97806   0.70684   0.59963   0.00000  Uiso   1.00
H167   H     0.26410   0.15690   0.55265   0.00000  Uiso   1.00
H168   H     0.47261   0.10229   0.65201   0.00000  Uiso   1.00
H169   H     0.94013   0.31556   0.75226   0.00000  Uiso   1.00
H170   H     0.97585   0.49786   0.75587   0.00000  Uiso   1.00
H171   H     0.11153   0.23706   0.73358   0.00000  Uiso   1.00
H172   H     0.73618   0.21116   0.78070   0.00000  Uiso   1.00
H173   H     0.01058   0.70087   0.73877   0.00000  Uiso   1.00
H174   H     0.29662   0.15092   0.69178   0.00000  Uiso   1.00
H175   H     0.50513   0.09632   0.79115   0.00000  Uiso   1.00
O176   O     0.01717   0.82391   0.66863   0.00000  Uiso   1.00
O177   O     0.39243   0.10239   0.60699   0.00000  Uiso   1.00
O178   O     0.35401   0.03075   0.73736   0.00000  Uiso   1.00
N179   N     0.98079   0.68042   0.63188   0.00000  Uiso   1.00
N180   N     0.24823   0.16627   0.58796   0.00000  Uiso   1.00
N181   N     0.50826   0.11519   0.68085   0.00000  Uiso   1.00
N182   N     0.99829   0.67721   0.70675   0.00000  Uiso   1.00
N183   N     0.26573   0.16306   0.66283   0.00000  Uiso   1.00
N184   N     0.52576   0.11198   0.75572   0.00000  Uiso   1.00
C185   C     0.25311   0.34193   0.95789   0.00000  Uiso   1.00
C186   C     0.30323   0.43287   0.92663   0.00000  Uiso   1.00
C187   C     0.29999   0.52351   0.94073   0.00000  Uiso   1.00
C188   C     0.35071   0.59741   0.90685   0.00000  Uiso   1.00
C189   C     0.42066   0.74110   0.86535   0.00000  Uiso   1.00
C190   C     0.35095   0.29364   0.95725   0.00000  Uiso   1.00
C191   C     0.38783   0.26721   0.99710   0.00000  Uiso   1.00
C192   C     0.47871   0.22390   0.98899   0.00000  Uiso   1.00
C193   C     0.62270   0.15137   0.99504   0.00000  Uiso   1.00
C194   C     0.17082   0.27877   0.93137   0.00000  Uiso   1.00
C195   C     0.05625   0.23981   0.94946   0.00000  Uiso   1.00
C196   C     0.99549   0.18396   0.91955   0.00000  Uiso   1.00
C197   C     0.85981   0.08833   0.88542   0.00000  Uiso   1.00
C198   C     0.34893   0.31201   0.87263   0.00000  Uiso   1.00
C199   C     0.35528   0.41662   0.88032   0.00000  Uiso   1.00
C200   C     0.40601   0.49040   0.84640   0.00000  Uiso   1.00
C201   C     0.40285   0.58113   0.86045   0.00000  Uiso   1.00
C202   C     0.40300   0.27739   0.91094   0.00000  Uiso   1.00
C203   C     0.49384   0.23410   0.90277   0.00000  Uiso   1.00
C204   C     0.53085   0.20762   0.94259   0.00000  Uiso   1.00
C205   C     0.22287   0.26252   0.88505   0.00000  Uiso   1.00
C206   C     0.16227   0.20671   0.85512   0.00000  Uiso   1.00
C207   C     0.04763   0.16767   0.87316   0.00000  Uiso   1.00
H208   H     0.21259   0.35458   0.99395   0.00000  Uiso   1.00
H209   H     0.25971   0.53606   0.97658   0.00000  Uiso   1.00
H210   H     0.34753   0.27979   0.03294   0.00000  Uiso   1.00
H211   H     0.01601   0.25240   0.98530   0.00000  Uiso   1.00
H212   H     0.33495   0.73009   0.93690   0.00000  Uiso   1.00
H213   H     0.52008   0.18971   0.05574   0.00000  Uiso   1.00
H214   H     0.82100   0.13195   0.95528   0.00000  Uiso   1.00
H215   H     0.38945   0.29935   0.83657   0.00000  Uiso   1.00
H216   H     0.44628   0.47780   0.81056   0.00000  Uiso   1.00
H217   H     0.53409   0.22153   0.86692   0.00000  Uiso   1.00
H218   H     0.20257   0.19414   0.81928   0.00000  Uiso   1.00
H219   H     0.48637   0.68281   0.80216   0.00000  Uiso   1.00
H220   H     0.67151   0.14242   0.92099   0.00000  Uiso   1.00
H221   H     0.97243   0.08467   0.82054   0.00000  Uiso   1.00
O222   O     0.44489   0.82484   0.85527   0.00000  Uiso   1.00
O223   O     0.68776   0.11586   0.01117   0.00000  Uiso   1.00
O224   O     0.77059   0.04009   0.87938   0.00000  Uiso   1.00
N225   N     0.36277   0.69448   0.90876   0.00000  Uiso   1.00
N226   N     0.53587   0.18926   0.01986   0.00000  Uiso   1.00
N227   N     0.88230   0.13524   0.92595   0.00000  Uiso   1.00
N228   N     0.44425   0.66903   0.83625   0.00000  Uiso   1.00
N229   N     0.61735   0.16382   0.94736   0.00000  Uiso   1.00
N230   N     0.96378   0.10980   0.85344   0.00000  Uiso   1.00
C231   C     0.35089   0.14982   0.43732   0.00000  Uiso   1.00
C232   C     0.39949   0.24119   0.40629   0.00000  Uiso   1.00
C233   C     0.39587   0.33149   0.42083   0.00000  Uiso   1.00
C234   C     0.44515   0.40590   0.38709   0.00000  Uiso   1.00
C235   C     0.51291   0.55013   0.34600   0.00000  Uiso   1.00
C236   C     0.44954   0.10214   0.43584   0.00000  Uiso   1.00
C237   C     0.48797   0.07553   0.47523   0.00000  Uiso   1.00
C238   C     0.57937   0.03287   0.46636   0.00000  Uiso   1.00
C239   C     0.72476   0.96117   0.47115   0.00000  Uiso   1.00
C240   C     0.26804   0.08662   0.41105   0.00000  Uiso   1.00
C241   C     0.15388   0.04692   0.42961   0.00000  Uiso   1.00
C242   C     0.09248   0.99117   0.39987   0.00000  Uiso   1.00
C243   C     0.95608   0.89537   0.36617   0.00000  Uiso   1.00
C244   C     0.44486   0.12136   0.35154   0.00000  Uiso   1.00
C245   C     0.45054   0.22573   0.35969   0.00000  Uiso   1.00
C246   C     0.49984   0.30002   0.32592   0.00000  Uiso   1.00
C247   C     0.49628   0.39042   0.34041   0.00000  Uiso   1.00
C248   C     0.50058   0.08669   0.38925   0.00000  Uiso   1.00
C249   C     0.59194   0.04405   0.38032   0.00000  Uiso   1.00
C250   C     0.63050   0.01738   0.41968   0.00000  Uiso   1.00
C251   C     0.31908   0.07116   0.36446   0.00000  Uiso   1.00
C252   C     0.25785   0.01545   0.33469   0.00000  Uiso   1.00
C253   C     0.14361   0.97569   0.35319   0.00000  Uiso   1.00
H254   H     0.31115   0.16184   0.47360   0.00000  Uiso   1.00
H255   H     0.35637   0.34343   0.45690   0.00000  Uiso   1.00
H256   H     0.44844   0.08749   0.51129   0.00000  Uiso   1.00
H257   H     0.11441   0.05890   0.46567   0.00000  Uiso   1.00
H258   H     0.42904   0.53793   0.41784   0.00000  Uiso   1.00
H259   H     0.62316   0.99825   0.53252   0.00000  Uiso   1.00
H260   H     0.91878   0.93795   0.43632   0.00000  Uiso   1.00
H261   H     0.48460   0.10933   0.31526   0.00000  Uiso   1.00
H262   H     0.53933   0.28804   0.28986   0.00000  Uiso   1.00
H263   H     0.63141   0.03210   0.34425   0.00000  Uiso   1.00
H264   H     0.29738   0.00351   0.29863   0.00000  Uiso   1.00
H265   H     0.57754   0.49297   0.28227   0.00000  Uiso   1.00
H266   H     0.77167   0.95329   0.39695   0.00000  Uiso   1.00
H267   H     0.06729   0.89300   0.30075   0.00000  Uiso   1.00
O268   O     0.53620   0.63396   0.33621   0.00000  Uiso   1.00
O269   O     0.79087   0.92590   0.48667   0.00000  Uiso   1.00
O270   O     0.86674   0.84680   0.36046   0.00000  Uiso   1.00
N271   N     0.45646   0.50282   0.38941   0.00000  Uiso   1.00
N272   N     0.63797   0.99826   0.49663   0.00000  Uiso   1.00
N273   N     0.97944   0.94187   0.40670   0.00000  Uiso   1.00
N274   N     0.53637   0.47863   0.31646   0.00000  Uiso   1.00
N275   N     0.71788   0.97407   0.42368   0.00000  Uiso   1.00
N276   N     0.05935   0.91768   0.33375   0.00000  Uiso   1.00
C277   C     0.88563   0.73888   0.94354   0.00000  Uiso   1.00
C278   C     0.86295   0.64803   0.91697   0.00000  Uiso   1.00
C279   C     0.85195   0.55746   0.93585   0.00000  Uiso   1.00
C280   C     0.83132   0.48363   0.90576   0.00000  Uiso   1.00
C281   C     0.79745   0.34009   0.87170   0.00000  Uiso   1.00
C282   C     0.78899   0.78636   0.94007   0.00000  Uiso   1.00
C283   C     0.71583   0.81211   0.97837   0.00000  Uiso   1.00
C284   C     0.63295   0.85474   0.96771   0.00000  Uiso   1.00
C285   C     0.48432   0.92602   0.96951   0.00000  Uiso   1.00
C286   C     0.99323   0.80278   0.91395   0.00000  Uiso   1.00
C287   C     0.09179   0.84235   0.93029   0.00000  Uiso   1.00
C288   C     0.18086   0.89882   0.89766   0.00000  Uiso   1.00
C289   C     0.34935   0.99558   0.85890   0.00000  Uiso   1.00
C290   C     0.86855   0.76884   0.85652   0.00000  Uiso   1.00
C291   C     0.85366   0.66430   0.86970   0.00000  Uiso   1.00
C292   C     0.83305   0.59060   0.83957   0.00000  Uiso   1.00
C293   C     0.82203   0.49993   0.85841   0.00000  Uiso   1.00
C294   C     0.77971   0.80263   0.89280   0.00000  Uiso   1.00
C295   C     0.69693   0.84524   0.88209   0.00000  Uiso   1.00
C296   C     0.62365   0.87104   0.92036   0.00000  Uiso   1.00
C297   C     0.98396   0.81905   0.86668   0.00000  Uiso   1.00
C298   C     0.07289   0.87548   0.83401   0.00000  Uiso   1.00
C299   C     0.17156   0.91512   0.85030   0.00000  Uiso   1.00
H300   H     0.89285   0.72622   0.98034   0.00000  Uiso   1.00
H301   H     0.85913   0.54490   0.97243   0.00000  Uiso   1.00
H302   H     0.72304   0.79951   0.01494   0.00000  Uiso   1.00
H303   H     0.09894   0.82974   0.96687   0.00000  Uiso   1.00
H304   H     0.81761   0.35104   0.94283   0.00000  Uiso   1.00
H305   H     0.53068   0.88794   0.03246   0.00000  Uiso   1.00
H306   H     0.32334   0.95168   0.93110   0.00000  Uiso   1.00
H307   H     0.86132   0.78150   0.81972   0.00000  Uiso   1.00
H308   H     0.82587   0.60321   0.80300   0.00000  Uiso   1.00
H309   H     0.68977   0.85783   0.84551   0.00000  Uiso   1.00
H310   H     0.06567   0.88805   0.79744   0.00000  Uiso   1.00
H311   H     0.79060   0.39837   0.80531   0.00000  Uiso   1.00
H312   H     0.50368   0.93527   0.89494   0.00000  Uiso   1.00
H313   H     0.29634   0.99901   0.79358   0.00000  Uiso   1.00
O314   O     0.78132   0.25641   0.86597   0.00000  Uiso   1.00
O315   O     0.40489   0.96083   0.98356   0.00000  Uiso   1.00
O316   O     0.44485   0.04445   0.85058   0.00000  Uiso   1.00
N317   N     0.81614   0.38665   0.91276   0.00000  Uiso   1.00
N318   N     0.54787   0.88861   0.99656   0.00000  Uiso   1.00
N319   N     0.28893   0.94822   0.90180   0.00000  Uiso   1.00
N320   N     0.80161   0.41211   0.83876   0.00000  Uiso   1.00
N321   N     0.53334   0.91407   0.92256   0.00000  Uiso   1.00
N322   N     0.27440   0.97369   0.82780   0.00000  Uiso   1.00
C323   C     0.97346   0.54081   0.42587   0.00000  Uiso   1.00
C324   C     0.95239   0.45149   0.39803   0.00000  Uiso   1.00
C325   C     0.94283   0.36023   0.41563   0.00000  Uiso   1.00
C326   C     0.92354   0.28807   0.38451   0.00000  Uiso   1.00
C327   C     0.89219   0.14656   0.34845   0.00000  Uiso   1.00
C328   C     0.87575   0.58755   0.42326   0.00000  Uiso   1.00
C329   C     0.80176   0.61069   0.46208   0.00000  Uiso   1.00
C330   C     0.71796   0.65306   0.45219   0.00000  Uiso   1.00
C331   C     0.56767   0.72284   0.45530   0.00000  Uiso   1.00
C332   C     0.08041   0.60678   0.39698   0.00000  Uiso   1.00
C333   C     0.17850   0.64611   0.41371   0.00000  Uiso   1.00
C334   C     0.26700   0.70469   0.38171   0.00000  Uiso   1.00
C335   C     0.43448   0.80433   0.34402   0.00000  Uiso   1.00
C336   C     0.95620   0.57494   0.33929   0.00000  Uiso   1.00
C337   C     0.94301   0.47003   0.35100   0.00000  Uiso   1.00
C338   C     0.92374   0.39799   0.31985   0.00000  Uiso   1.00
C339   C     0.91416   0.30664   0.33740   0.00000  Uiso   1.00
C340   C     0.86637   0.60608   0.37624   0.00000  Uiso   1.00
C341   C     0.78266   0.64844   0.36629   0.00000  Uiso   1.00
C342   C     0.70856   0.67163   0.40508   0.00000  Uiso   1.00
C343   C     0.07104   0.62531   0.34996   0.00000  Uiso   1.00
C344   C     0.15940   0.68386   0.31792   0.00000  Uiso   1.00
C345   C     0.25761   0.72327   0.33460   0.00000  Uiso   1.00
H346   H     0.98076   0.52638   0.46248   0.00000  Uiso   1.00
H347   H     0.95008   0.34592   0.45203   0.00000  Uiso   1.00
H348   H     0.80904   0.59634   0.49846   0.00000  Uiso   1.00
H349   H     0.18572   0.63175   0.45010   0.00000  Uiso   1.00
H350   H     0.91190   0.15401   0.41971   0.00000  Uiso   1.00
H351   H     0.61453   0.68207   0.51762   0.00000  Uiso   1.00
H352   H     0.40883   0.75674   0.41565   0.00000  Uiso   1.00
H353   H     0.94890   0.58937   0.30268   0.00000  Uiso   1.00
H354   H     0.91649   0.41235   0.28346   0.00000  Uiso   1.00
H355   H     0.77544   0.66278   0.32990   0.00000  Uiso   1.00
H356   H     0.15212   0.69819   0.28154   0.00000  Uiso   1.00
H357   H     0.88463   0.20793   0.28289   0.00000  Uiso   1.00
H358   H     0.58726   0.73600   0.38081   0.00000  Uiso   1.00
H359   H     0.38156   0.81066   0.27883   0.00000  Uiso   1.00
O360   O     0.87748   0.06338   0.34155   0.00000  Uiso   1.00
O361   O     0.48735   0.75620   0.47001   0.00000  Uiso   1.00
O362   O     0.52946   0.85415   0.33621   0.00000  Uiso   1.00
N363   N     0.90996   0.19099   0.39014   0.00000  Uiso   1.00
N364   N     0.63192   0.68469   0.48169   0.00000  Uiso   1.00
N365   N     0.37451   0.75451   0.38635   0.00000  Uiso   1.00
N366   N     0.89528   0.22001   0.31653   0.00000  Uiso   1.00
N367   N     0.61724   0.71370   0.40807   0.00000  Uiso   1.00
N368   N     0.35984   0.78353   0.31273   0.00000  Uiso   1.00
