data_job_00866
_audit_creation_date              2018-12-19
_audit_creation_method            'Materials Studio'
_symmetry_space_group_name_H-M    'P1'
_symmetry_Int_Tables_number       1
_symmetry_cell_setting            triclinic
loop_
_symmetry_equiv_pos_as_xyz
  x,y,z
_cell_length_a                    11.5675
_cell_length_b                    11.5675
_cell_length_c                    30.0681
_cell_angle_alpha                 90.0000
_cell_angle_beta                  90.0000
_cell_angle_gamma                 120.0000
loop_
_atom_site_label
_atom_site_type_symbol
_atom_site_fract_x
_atom_site_fract_y
_atom_site_fract_z
_atom_site_U_iso_or_equiv
_atom_site_adp_type
_atom_site_occupancy
C1     C     0.28628   0.45296   0.38772   0.00000  Uiso   1.00
C2     C     0.28010   0.31930   0.39438   0.00000  Uiso   1.00
C3     C     0.19258   0.21753   0.42234   0.00000  Uiso   1.00
C4     C     0.20283   0.10302   0.42376   0.00000  Uiso   1.00
C5     C     0.17892   0.89735   0.43801   0.00000  Uiso   1.00
C6     C     0.42932   0.55987   0.39848   0.00000  Uiso   1.00
C7     C     0.46724   0.66039   0.42988   0.00000  Uiso   1.00
C8     C     0.60311   0.74841   0.43474   0.00000  Uiso   1.00
C9     C     0.81085   0.91629   0.45534   0.00000  Uiso   1.00
C10    C     0.26856   0.46437   0.33796   0.00000  Uiso   1.00
C11    C     0.17134   0.48463   0.31848   0.00000  Uiso   1.00
C12    C     0.17188   0.49227   0.27239   0.00000  Uiso   1.00
C13    C     0.13002   0.51187   0.19902   0.00000  Uiso   1.00
C14    C     0.46012   0.43055   0.34051   0.00000  Uiso   1.00
C15    C     0.37453   0.30713   0.36873   0.00000  Uiso   1.00
C16    C     0.38491   0.19273   0.37011   0.00000  Uiso   1.00
C17    C     0.29742   0.09082   0.39807   0.00000  Uiso   1.00
C18    C     0.52374   0.54770   0.37283   0.00000  Uiso   1.00
C19    C     0.65958   0.63560   0.37765   0.00000  Uiso   1.00
C20    C     0.69770   0.73622   0.40905   0.00000  Uiso   1.00
C21    C     0.36298   0.45219   0.31231   0.00000  Uiso   1.00
C22    C     0.36367   0.45982   0.26625   0.00000  Uiso   1.00
C23    C     0.26647   0.48007   0.24670   0.00000  Uiso   1.00
H24    H     0.21277   0.46245   0.40769   0.00000  Uiso   1.00
H25    H     0.11953   0.22700   0.44219   0.00000  Uiso   1.00
H26    H     0.39415   0.66980   0.44972   0.00000  Uiso   1.00
H27    H     0.09829   0.49404   0.33834   0.00000  Uiso   1.00
H28    H     0.05782   0.96061   0.46914   0.00000  Uiso   1.00
H29    H     0.63687   0.89430   0.48501   0.00000  Uiso   1.00
H30    H     0.01300   0.52370   0.25014   0.00000  Uiso   1.00
H31    H     0.53364   0.42108   0.32054   0.00000  Uiso   1.00
H32    H     0.45799   0.18334   0.35026   0.00000  Uiso   1.00
H33    H     0.73262   0.62615   0.35779   0.00000  Uiso   1.00
H34    H     0.43676   0.45039   0.24641   0.00000  Uiso   1.00
H35    H     0.33254   0.92518   0.39453   0.00000  Uiso   1.00
H36    H     0.91159   0.85888   0.41040   0.00000  Uiso   1.00
H37    H     0.28771   0.48827   0.17553   0.00000  Uiso   1.00
O38    O     0.13966   0.78727   0.45296   0.00000  Uiso   1.00
O39    O     0.89935   0.01225   0.47378   0.00000  Uiso   1.00
O40    O     0.08083   0.52602   0.16564   0.00000  Uiso   1.00
N41    N     0.13284   0.98488   0.44749   0.00000  Uiso   1.00
N42    N     0.67422   0.85782   0.46234   0.00000  Uiso   1.00
N43    N     0.09097   0.51137   0.24275   0.00000  Uiso   1.00
N44    N     0.28066   0.96582   0.40734   0.00000  Uiso   1.00
N45    N     0.82204   0.83875   0.42219   0.00000  Uiso   1.00
N46    N     0.23879   0.49231   0.20261   0.00000  Uiso   1.00
C47    C     0.54704   0.83331   0.05439   0.00000  Uiso   1.00
C48    C     0.68070   0.96080   0.06104   0.00000  Uiso   1.00
C49    C     0.78247   0.97504   0.08901   0.00000  Uiso   1.00
C50    C     0.89698   0.09981   0.09043   0.00000  Uiso   1.00
C51    C     0.10265   0.28157   0.10468   0.00000  Uiso   1.00
C52    C     0.44013   0.86944   0.06514   0.00000  Uiso   1.00
C53    C     0.33961   0.80685   0.09655   0.00000  Uiso   1.00
C54    C     0.25159   0.85470   0.10141   0.00000  Uiso   1.00
C55    C     0.08371   0.89456   0.12200   0.00000  Uiso   1.00
C56    C     0.53563   0.80419   0.00463   0.00000  Uiso   1.00
C57    C     0.51537   0.68671   0.98515   0.00000  Uiso   1.00
C58    C     0.50773   0.67961   0.93906   0.00000  Uiso   1.00
C59    C     0.48813   0.61815   0.86569   0.00000  Uiso   1.00
C60    C     0.56945   0.02957   0.00717   0.00000  Uiso   1.00
C61    C     0.69287   0.06740   0.03540   0.00000  Uiso   1.00
C62    C     0.80727   0.19218   0.03677   0.00000  Uiso   1.00
C63    C     0.90918   0.20660   0.06473   0.00000  Uiso   1.00
C64    C     0.45230   0.97604   0.03950   0.00000  Uiso   1.00
C65    C     0.36440   0.02398   0.04431   0.00000  Uiso   1.00
C66    C     0.26378   0.96149   0.07572   0.00000  Uiso   1.00
C67    C     0.54781   0.91079   0.97898   0.00000  Uiso   1.00
C68    C     0.54018   0.90385   0.93291   0.00000  Uiso   1.00
C69    C     0.51993   0.78640   0.91337   0.00000  Uiso   1.00
H70    H     0.53755   0.75032   0.07435   0.00000  Uiso   1.00
H71    H     0.77300   0.89253   0.10885   0.00000  Uiso   1.00
H72    H     0.33020   0.72435   0.11639   0.00000  Uiso   1.00
H73    H     0.50596   0.60425   0.00500   0.00000  Uiso   1.00
H74    H     0.03939   0.09721   0.13580   0.00000  Uiso   1.00
H75    H     0.10570   0.74258   0.15168   0.00000  Uiso   1.00
H76    H     0.47630   0.48930   0.91681   0.00000  Uiso   1.00
H77    H     0.57892   0.11256   0.98721   0.00000  Uiso   1.00
H78    H     0.81666   0.27465   0.01692   0.00000  Uiso   1.00
H79    H     0.37385   0.10647   0.02446   0.00000  Uiso   1.00
H80    H     0.54961   0.98636   0.91308   0.00000  Uiso   1.00
H81    H     0.07482   0.40736   0.06119   0.00000  Uiso   1.00
H82    H     0.14112   0.05271   0.07707   0.00000  Uiso   1.00
H83    H     0.51173   0.79944   0.84219   0.00000  Uiso   1.00
O84    O     0.21273   0.35239   0.11963   0.00000  Uiso   1.00
O85    O     0.98775   0.88710   0.14045   0.00000  Uiso   1.00
O86    O     0.47398   0.55481   0.83230   0.00000  Uiso   1.00
N87    N     0.01512   0.14795   0.11416   0.00000  Uiso   1.00
N88    N     0.14218   0.81640   0.12901   0.00000  Uiso   1.00
N89    N     0.48863   0.57959   0.90942   0.00000  Uiso   1.00
N90    N     0.03418   0.31484   0.07401   0.00000  Uiso   1.00
N91    N     0.16125   0.98329   0.08886   0.00000  Uiso   1.00
N92    N     0.50769   0.74648   0.86927   0.00000  Uiso   1.00
C93    C     0.16669   0.71372   0.72105   0.00000  Uiso   1.00
C94    C     0.03920   0.71990   0.72771   0.00000  Uiso   1.00
C95    C     0.02496   0.80742   0.75568   0.00000  Uiso   1.00
C96    C     0.90019   0.79717   0.75709   0.00000  Uiso   1.00
C97    C     0.71843   0.82108   0.77135   0.00000  Uiso   1.00
C98    C     0.13056   0.57068   0.73181   0.00000  Uiso   1.00
C99    C     0.19315   0.53276   0.76322   0.00000  Uiso   1.00
C100   C     0.14530   0.39689   0.76808   0.00000  Uiso   1.00
C101   C     0.10544   0.18915   0.78867   0.00000  Uiso   1.00
C102   C     0.19581   0.73144   0.67129   0.00000  Uiso   1.00
C103   C     0.31329   0.82866   0.65181   0.00000  Uiso   1.00
C104   C     0.32039   0.82812   0.60572   0.00000  Uiso   1.00
C105   C     0.38185   0.86998   0.53236   0.00000  Uiso   1.00
C106   C     0.97043   0.53988   0.67384   0.00000  Uiso   1.00
C107   C     0.93260   0.62547   0.70207   0.00000  Uiso   1.00
C108   C     0.80782   0.61509   0.70344   0.00000  Uiso   1.00
C109   C     0.79340   0.70258   0.73140   0.00000  Uiso   1.00
C110   C     0.02396   0.47626   0.70617   0.00000  Uiso   1.00
C111   C     0.97602   0.34042   0.71098   0.00000  Uiso   1.00
C112   C     0.03851   0.30230   0.74239   0.00000  Uiso   1.00
C113   C     0.08921   0.63702   0.64565   0.00000  Uiso   1.00
C114   C     0.09615   0.63633   0.59958   0.00000  Uiso   1.00
C115   C     0.21360   0.73353   0.58003   0.00000  Uiso   1.00
H116   H     0.24968   0.78723   0.74102   0.00000  Uiso   1.00
H117   H     0.10747   0.88047   0.77552   0.00000  Uiso   1.00
H118   H     0.27565   0.60585   0.78305   0.00000  Uiso   1.00
H119   H     0.39575   0.90171   0.67167   0.00000  Uiso   1.00
H120   H     0.90279   0.94218   0.80247   0.00000  Uiso   1.00
H121   H     0.25742   0.36313   0.81835   0.00000  Uiso   1.00
H122   H     0.51070   0.98700   0.58347   0.00000  Uiso   1.00
H123   H     0.88744   0.46636   0.65388   0.00000  Uiso   1.00
H124   H     0.72535   0.54201   0.68359   0.00000  Uiso   1.00
H125   H     0.89353   0.26738   0.69113   0.00000  Uiso   1.00
H126   H     0.01364   0.56324   0.57974   0.00000  Uiso   1.00
H127   H     0.59264   0.66746   0.72786   0.00000  Uiso   1.00
H128   H     0.94729   0.08841   0.74373   0.00000  Uiso   1.00
H129   H     0.20056   0.71229   0.50886   0.00000  Uiso   1.00
O130   O     0.64761   0.86034   0.78630   0.00000  Uiso   1.00
O131   O     0.11290   0.10065   0.80712   0.00000  Uiso   1.00
O132   O     0.44519   0.91917   0.49897   0.00000  Uiso   1.00
N133   N     0.85205   0.86716   0.78083   0.00000  Uiso   1.00
N134   N     0.18360   0.32578   0.79567   0.00000  Uiso   1.00
N135   N     0.42041   0.90903   0.57609   0.00000  Uiso   1.00
N136   N     0.68516   0.71934   0.74068   0.00000  Uiso   1.00
N137   N     0.01671   0.17796   0.75553   0.00000  Uiso   1.00
N138   N     0.25352   0.76121   0.53594   0.00000  Uiso   1.00
C139   C     0.45296   0.28628   0.61228   0.00000  Uiso   1.00
C140   C     0.31930   0.28010   0.60562   0.00000  Uiso   1.00
C141   C     0.21753   0.19258   0.57766   0.00000  Uiso   1.00
C142   C     0.10302   0.20283   0.57624   0.00000  Uiso   1.00
C143   C     0.89735   0.17892   0.56199   0.00000  Uiso   1.00
C144   C     0.55987   0.42932   0.60152   0.00000  Uiso   1.00
C145   C     0.66039   0.46724   0.57012   0.00000  Uiso   1.00
C146   C     0.74841   0.60311   0.56526   0.00000  Uiso   1.00
C147   C     0.91629   0.81085   0.54466   0.00000  Uiso   1.00
C148   C     0.46437   0.26856   0.66204   0.00000  Uiso   1.00
C149   C     0.48463   0.17134   0.68152   0.00000  Uiso   1.00
C150   C     0.49227   0.17188   0.72761   0.00000  Uiso   1.00
C151   C     0.51187   0.13002   0.80098   0.00000  Uiso   1.00
C152   C     0.43055   0.46012   0.65949   0.00000  Uiso   1.00
C153   C     0.30713   0.37453   0.63127   0.00000  Uiso   1.00
C154   C     0.19273   0.38491   0.62989   0.00000  Uiso   1.00
C155   C     0.09082   0.29742   0.60193   0.00000  Uiso   1.00
C156   C     0.54770   0.52374   0.62717   0.00000  Uiso   1.00
C157   C     0.63560   0.65958   0.62235   0.00000  Uiso   1.00
C158   C     0.73622   0.69770   0.59095   0.00000  Uiso   1.00
C159   C     0.45219   0.36298   0.68769   0.00000  Uiso   1.00
C160   C     0.45982   0.36367   0.73375   0.00000  Uiso   1.00
C161   C     0.48007   0.26647   0.75330   0.00000  Uiso   1.00
H162   H     0.46245   0.21277   0.59231   0.00000  Uiso   1.00
H163   H     0.22700   0.11953   0.55781   0.00000  Uiso   1.00
H164   H     0.66980   0.39415   0.55028   0.00000  Uiso   1.00
H165   H     0.49404   0.09829   0.66166   0.00000  Uiso   1.00
H166   H     0.96061   0.05782   0.53086   0.00000  Uiso   1.00
H167   H     0.89430   0.63687   0.51499   0.00000  Uiso   1.00
H168   H     0.52370   0.01300   0.74986   0.00000  Uiso   1.00
H169   H     0.42108   0.53364   0.67946   0.00000  Uiso   1.00
H170   H     0.18334   0.45799   0.64974   0.00000  Uiso   1.00
H171   H     0.62615   0.73262   0.64221   0.00000  Uiso   1.00
H172   H     0.45039   0.43676   0.75359   0.00000  Uiso   1.00
H173   H     0.92518   0.33254   0.60547   0.00000  Uiso   1.00
H174   H     0.85888   0.91159   0.58960   0.00000  Uiso   1.00
H175   H     0.48827   0.28771   0.82447   0.00000  Uiso   1.00
O176   O     0.78727   0.13966   0.54704   0.00000  Uiso   1.00
O177   O     0.01225   0.89935   0.52622   0.00000  Uiso   1.00
O178   O     0.52602   0.08083   0.83436   0.00000  Uiso   1.00
N179   N     0.98488   0.13284   0.55251   0.00000  Uiso   1.00
N180   N     0.85782   0.67422   0.53766   0.00000  Uiso   1.00
N181   N     0.51137   0.09097   0.75725   0.00000  Uiso   1.00
N182   N     0.96582   0.28066   0.59266   0.00000  Uiso   1.00
N183   N     0.83875   0.82204   0.57781   0.00000  Uiso   1.00
N184   N     0.49231   0.23879   0.79739   0.00000  Uiso   1.00
C185   C     0.83331   0.54704   0.94561   0.00000  Uiso   1.00
C186   C     0.96080   0.68070   0.93896   0.00000  Uiso   1.00
C187   C     0.97504   0.78247   0.91099   0.00000  Uiso   1.00
C188   C     0.09981   0.89698   0.90957   0.00000  Uiso   1.00
C189   C     0.28157   0.10265   0.89532   0.00000  Uiso   1.00
C190   C     0.86944   0.44013   0.93486   0.00000  Uiso   1.00
C191   C     0.80685   0.33961   0.90345   0.00000  Uiso   1.00
C192   C     0.85470   0.25159   0.89859   0.00000  Uiso   1.00
C193   C     0.89456   0.08371   0.87800   0.00000  Uiso   1.00
C194   C     0.80419   0.53563   0.99537   0.00000  Uiso   1.00
C195   C     0.68671   0.51537   0.01485   0.00000  Uiso   1.00
C196   C     0.67961   0.50773   0.06094   0.00000  Uiso   1.00
C197   C     0.61815   0.48813   0.13431   0.00000  Uiso   1.00
C198   C     0.02957   0.56945   0.99283   0.00000  Uiso   1.00
C199   C     0.06740   0.69287   0.96460   0.00000  Uiso   1.00
C200   C     0.19218   0.80727   0.96323   0.00000  Uiso   1.00
C201   C     0.20660   0.90918   0.93527   0.00000  Uiso   1.00
C202   C     0.97604   0.45230   0.96050   0.00000  Uiso   1.00
C203   C     0.02398   0.36440   0.95569   0.00000  Uiso   1.00
C204   C     0.96149   0.26378   0.92428   0.00000  Uiso   1.00
C205   C     0.91079   0.54781   0.02102   0.00000  Uiso   1.00
C206   C     0.90385   0.54018   0.06709   0.00000  Uiso   1.00
C207   C     0.78640   0.51993   0.08663   0.00000  Uiso   1.00
H208   H     0.75032   0.53755   0.92565   0.00000  Uiso   1.00
H209   H     0.89253   0.77300   0.89115   0.00000  Uiso   1.00
H210   H     0.72435   0.33020   0.88361   0.00000  Uiso   1.00
H211   H     0.60425   0.50596   0.99500   0.00000  Uiso   1.00
H212   H     0.09721   0.03939   0.86420   0.00000  Uiso   1.00
H213   H     0.74258   0.10570   0.84832   0.00000  Uiso   1.00
H214   H     0.48930   0.47630   0.08319   0.00000  Uiso   1.00
H215   H     0.11256   0.57892   0.01279   0.00000  Uiso   1.00
H216   H     0.27465   0.81666   0.98308   0.00000  Uiso   1.00
H217   H     0.10647   0.37385   0.97554   0.00000  Uiso   1.00
H218   H     0.98636   0.54961   0.08692   0.00000  Uiso   1.00
H219   H     0.40736   0.07482   0.93881   0.00000  Uiso   1.00
H220   H     0.05271   0.14112   0.92293   0.00000  Uiso   1.00
H221   H     0.79944   0.51173   0.15781   0.00000  Uiso   1.00
O222   O     0.35239   0.21273   0.88037   0.00000  Uiso   1.00
O223   O     0.88710   0.98775   0.85955   0.00000  Uiso   1.00
O224   O     0.55481   0.47398   0.16770   0.00000  Uiso   1.00
N225   N     0.14795   0.01512   0.88584   0.00000  Uiso   1.00
N226   N     0.81640   0.14218   0.87099   0.00000  Uiso   1.00
N227   N     0.57959   0.48863   0.09058   0.00000  Uiso   1.00
N228   N     0.31484   0.03418   0.92599   0.00000  Uiso   1.00
N229   N     0.98329   0.16125   0.91114   0.00000  Uiso   1.00
N230   N     0.74648   0.50769   0.13073   0.00000  Uiso   1.00
C231   C     0.71372   0.16669   0.27895   0.00000  Uiso   1.00
C232   C     0.71990   0.03920   0.27229   0.00000  Uiso   1.00
C233   C     0.80742   0.02496   0.24432   0.00000  Uiso   1.00
C234   C     0.79717   0.90019   0.24291   0.00000  Uiso   1.00
C235   C     0.82108   0.71843   0.22865   0.00000  Uiso   1.00
C236   C     0.57068   0.13056   0.26819   0.00000  Uiso   1.00
C237   C     0.53276   0.19315   0.23678   0.00000  Uiso   1.00
C238   C     0.39689   0.14530   0.23192   0.00000  Uiso   1.00
C239   C     0.18915   0.10544   0.21133   0.00000  Uiso   1.00
C240   C     0.73144   0.19581   0.32871   0.00000  Uiso   1.00
C241   C     0.82866   0.31329   0.34819   0.00000  Uiso   1.00
C242   C     0.82812   0.32039   0.39428   0.00000  Uiso   1.00
C243   C     0.86998   0.38185   0.46764   0.00000  Uiso   1.00
C244   C     0.53988   0.97043   0.32616   0.00000  Uiso   1.00
C245   C     0.62547   0.93260   0.29793   0.00000  Uiso   1.00
C246   C     0.61509   0.80782   0.29656   0.00000  Uiso   1.00
C247   C     0.70258   0.79340   0.26860   0.00000  Uiso   1.00
C248   C     0.47626   0.02396   0.29383   0.00000  Uiso   1.00
C249   C     0.34042   0.97602   0.28902   0.00000  Uiso   1.00
C250   C     0.30230   0.03851   0.25761   0.00000  Uiso   1.00
C251   C     0.63702   0.08921   0.35435   0.00000  Uiso   1.00
C252   C     0.63633   0.09615   0.40042   0.00000  Uiso   1.00
C253   C     0.73353   0.21360   0.41997   0.00000  Uiso   1.00
H254   H     0.78723   0.24968   0.25898   0.00000  Uiso   1.00
H255   H     0.88047   0.10747   0.22448   0.00000  Uiso   1.00
H256   H     0.60585   0.27565   0.21695   0.00000  Uiso   1.00
H257   H     0.90171   0.39575   0.32833   0.00000  Uiso   1.00
H258   H     0.94218   0.90279   0.19753   0.00000  Uiso   1.00
H259   H     0.36313   0.25742   0.18165   0.00000  Uiso   1.00
H260   H     0.98700   0.51070   0.41653   0.00000  Uiso   1.00
H261   H     0.46636   0.88744   0.34612   0.00000  Uiso   1.00
H262   H     0.54201   0.72535   0.31641   0.00000  Uiso   1.00
H263   H     0.26738   0.89353   0.30887   0.00000  Uiso   1.00
H264   H     0.56324   0.01364   0.42026   0.00000  Uiso   1.00
H265   H     0.66746   0.59264   0.27214   0.00000  Uiso   1.00
H266   H     0.08841   0.94729   0.25627   0.00000  Uiso   1.00
H267   H     0.71229   0.20056   0.49114   0.00000  Uiso   1.00
O268   O     0.86034   0.64761   0.21370   0.00000  Uiso   1.00
O269   O     0.10065   0.11290   0.19288   0.00000  Uiso   1.00
O270   O     0.91917   0.44519   0.50103   0.00000  Uiso   1.00
N271   N     0.86716   0.85205   0.21917   0.00000  Uiso   1.00
N272   N     0.32578   0.18360   0.20433   0.00000  Uiso   1.00
N273   N     0.90903   0.42041   0.42391   0.00000  Uiso   1.00
N274   N     0.71934   0.68516   0.25932   0.00000  Uiso   1.00
N275   N     0.17796   0.01671   0.24447   0.00000  Uiso   1.00
N276   N     0.76121   0.25352   0.46406   0.00000  Uiso   1.00
