data_job_01617
_audit_creation_date              2018-12-19
_audit_creation_method            'Materials Studio'
_symmetry_space_group_name_H-M    'P1'
_symmetry_Int_Tables_number       1
_symmetry_cell_setting            triclinic
loop_
_symmetry_equiv_pos_as_xyz
  x,y,z
_cell_length_a                    14.6635
_cell_length_b                    10.0748
_cell_length_c                    24.0757
_cell_angle_alpha                 90.0000
_cell_angle_beta                  137.8133
_cell_angle_gamma                 90.0000
loop_
_atom_site_label
_atom_site_type_symbol
_atom_site_fract_x
_atom_site_fract_y
_atom_site_fract_z
_atom_site_U_iso_or_equiv
_atom_site_adp_type
_atom_site_occupancy
C1     C     0.27729   0.22546   0.98994   0.00000  Uiso   1.00
C2     C     0.17315   0.25785   0.98782   0.00000  Uiso   1.00
C3     C     0.05708   0.33406   0.92826   0.00000  Uiso   1.00
C4     C     0.97477   0.35217   0.93732   0.00000  Uiso   1.00
C5     C     0.80813   0.41105   0.92397   0.00000  Uiso   1.00
C6     C     0.41378   0.27327   0.07379   0.00000  Uiso   1.00
C7     C     0.50002   0.36242   0.08650   0.00000  Uiso   1.00
C8     C     0.62028   0.39349   0.16793   0.00000  Uiso   1.00
C9     C     0.82726   0.47624   0.28804   0.00000  Uiso   1.00
C10    C     0.28622   0.07445   0.99182   0.00000  Uiso   1.00
C11    C     0.26525   0.99643   0.93563   0.00000  Uiso   1.00
C12    C     0.27815   0.86010   0.94806   0.00000  Uiso   1.00
C13    C     0.28708   0.63414   0.94091   0.00000  Uiso   1.00
C14    C     0.33752   0.12209   0.11194   0.00000  Uiso   1.00
C15    C     0.20588   0.20171   0.05409   0.00000  Uiso   1.00
C16    C     0.12372   0.21969   0.06324   0.00000  Uiso   1.00
C17    C     0.00754   0.29592   0.00370   0.00000  Uiso   1.00
C18    C     0.44650   0.21713   0.14005   0.00000  Uiso   1.00
C19    C     0.56666   0.24806   0.22148   0.00000  Uiso   1.00
C20    C     0.65306   0.33724   0.23431   0.00000  Uiso   1.00
C21    C     0.31894   0.01830   0.05809   0.00000  Uiso   1.00
C22    C     0.33188   0.88206   0.07061   0.00000  Uiso   1.00
C23    C     0.31093   0.80385   0.01445   0.00000  Uiso   1.00
H24    H     0.25182   0.26918   0.93835   0.00000  Uiso   1.00
H25    H     0.03180   0.37751   0.87699   0.00000  Uiso   1.00
H26    H     0.47468   0.40585   0.03521   0.00000  Uiso   1.00
H27    H     0.23993   0.03991   0.88436   0.00000  Uiso   1.00
H28    H     0.80231   0.47288   0.83820   0.00000  Uiso   1.00
H29    H     0.73617   0.53261   0.17181   0.00000  Uiso   1.00
H30    H     0.24117   0.76096   0.85371   0.00000  Uiso   1.00
H31    H     0.36300   0.07838   0.16354   0.00000  Uiso   1.00
H32    H     0.14906   0.17623   0.11453   0.00000  Uiso   1.00
H33    H     0.59195   0.20458   0.27275   0.00000  Uiso   1.00
H34    H     0.35720   0.83865   0.12190   0.00000  Uiso   1.00
H35    H     0.89749   0.30953   0.03100   0.00000  Uiso   1.00
H36    H     0.83136   0.36926   0.36461   0.00000  Uiso   1.00
H37    H     0.33635   0.59761   0.04651   0.00000  Uiso   1.00
O38    O     0.70719   0.45906   0.89831   0.00000  Uiso   1.00
O39    O     0.93239   0.53740   0.33599   0.00000  Uiso   1.00
O40    O     0.28295   0.52502   0.91866   0.00000  Uiso   1.00
N41    N     0.85406   0.42099   0.89029   0.00000  Uiso   1.00
N42    N     0.72715   0.47685   0.20219   0.00000  Uiso   1.00
N43    N     0.26440   0.75542   0.90482   0.00000  Uiso   1.00
N44    N     0.90527   0.33309   0.99403   0.00000  Uiso   1.00
N45    N     0.77837   0.38895   0.30594   0.00000  Uiso   1.00
N46    N     0.31562   0.66752   0.00856   0.00000  Uiso   1.00
C47    C     0.72271   0.72546   0.51006   0.00000  Uiso   1.00
C48    C     0.82685   0.75785   0.51218   0.00000  Uiso   1.00
C49    C     0.94292   0.83406   0.57174   0.00000  Uiso   1.00
C50    C     0.02523   0.85217   0.56268   0.00000  Uiso   1.00
C51    C     0.19187   0.91105   0.57603   0.00000  Uiso   1.00
C52    C     0.58622   0.77327   0.42621   0.00000  Uiso   1.00
C53    C     0.49998   0.86242   0.41350   0.00000  Uiso   1.00
C54    C     0.37972   0.89349   0.33207   0.00000  Uiso   1.00
C55    C     0.17274   0.97624   0.21196   0.00000  Uiso   1.00
C56    C     0.71378   0.57445   0.50818   0.00000  Uiso   1.00
C57    C     0.73475   0.49643   0.56437   0.00000  Uiso   1.00
C58    C     0.72185   0.36010   0.55194   0.00000  Uiso   1.00
C59    C     0.71292   0.13414   0.55909   0.00000  Uiso   1.00
C60    C     0.66248   0.62209   0.38806   0.00000  Uiso   1.00
C61    C     0.79412   0.70171   0.44591   0.00000  Uiso   1.00
C62    C     0.87628   0.71969   0.43676   0.00000  Uiso   1.00
C63    C     0.99246   0.79592   0.49630   0.00000  Uiso   1.00
C64    C     0.55350   0.71713   0.35995   0.00000  Uiso   1.00
C65    C     0.43334   0.74806   0.27852   0.00000  Uiso   1.00
C66    C     0.34694   0.83724   0.26569   0.00000  Uiso   1.00
C67    C     0.68106   0.51830   0.44191   0.00000  Uiso   1.00
C68    C     0.66812   0.38206   0.42939   0.00000  Uiso   1.00
C69    C     0.68907   0.30385   0.48555   0.00000  Uiso   1.00
H70    H     0.74818   0.76918   0.56165   0.00000  Uiso   1.00
H71    H     0.96820   0.87751   0.62301   0.00000  Uiso   1.00
H72    H     0.52532   0.90585   0.46479   0.00000  Uiso   1.00
H73    H     0.76007   0.53991   0.61564   0.00000  Uiso   1.00
H74    H     0.19769   0.97288   0.66180   0.00000  Uiso   1.00
H75    H     0.26383   0.03261   0.32819   0.00000  Uiso   1.00
H76    H     0.75883   0.26096   0.64629   0.00000  Uiso   1.00
H77    H     0.63700   0.57838   0.33646   0.00000  Uiso   1.00
H78    H     0.85094   0.67623   0.38547   0.00000  Uiso   1.00
H79    H     0.40805   0.70458   0.22725   0.00000  Uiso   1.00
H80    H     0.64280   0.33865   0.37810   0.00000  Uiso   1.00
H81    H     0.10251   0.80953   0.46900   0.00000  Uiso   1.00
H82    H     0.16864   0.86926   0.13539   0.00000  Uiso   1.00
H83    H     0.66365   0.09761   0.45349   0.00000  Uiso   1.00
O84    O     0.29281   0.95906   0.60169   0.00000  Uiso   1.00
O85    O     0.06761   0.03740   0.16401   0.00000  Uiso   1.00
O86    O     0.71705   0.02502   0.58134   0.00000  Uiso   1.00
N87    N     0.14594   0.92099   0.60971   0.00000  Uiso   1.00
N88    N     0.27285   0.97685   0.29781   0.00000  Uiso   1.00
N89    N     0.73560   0.25542   0.59518   0.00000  Uiso   1.00
N90    N     0.09473   0.83309   0.50597   0.00000  Uiso   1.00
N91    N     0.22163   0.88895   0.19406   0.00000  Uiso   1.00
N92    N     0.68438   0.16752   0.49144   0.00000  Uiso   1.00
C93    C     0.72271   0.77454   0.01006   0.00000  Uiso   1.00
C94    C     0.82685   0.74215   0.01218   0.00000  Uiso   1.00
C95    C     0.94292   0.66594   0.07174   0.00000  Uiso   1.00
C96    C     0.02523   0.64783   0.06268   0.00000  Uiso   1.00
C97    C     0.19187   0.58895   0.07603   0.00000  Uiso   1.00
C98    C     0.58622   0.72673   0.92621   0.00000  Uiso   1.00
C99    C     0.49998   0.63758   0.91350   0.00000  Uiso   1.00
C100   C     0.37972   0.60651   0.83207   0.00000  Uiso   1.00
C101   C     0.17274   0.52376   0.71196   0.00000  Uiso   1.00
C102   C     0.71378   0.92555   0.00818   0.00000  Uiso   1.00
C103   C     0.73475   0.00357   0.06437   0.00000  Uiso   1.00
C104   C     0.72185   0.13990   0.05194   0.00000  Uiso   1.00
C105   C     0.71292   0.36586   0.05909   0.00000  Uiso   1.00
C106   C     0.66248   0.87791   0.88806   0.00000  Uiso   1.00
C107   C     0.79412   0.79829   0.94591   0.00000  Uiso   1.00
C108   C     0.87628   0.78031   0.93676   0.00000  Uiso   1.00
C109   C     0.99246   0.70408   0.99630   0.00000  Uiso   1.00
C110   C     0.55350   0.78287   0.85995   0.00000  Uiso   1.00
C111   C     0.43334   0.75194   0.77852   0.00000  Uiso   1.00
C112   C     0.34694   0.66276   0.76569   0.00000  Uiso   1.00
C113   C     0.68106   0.98170   0.94191   0.00000  Uiso   1.00
C114   C     0.66812   0.11794   0.92939   0.00000  Uiso   1.00
C115   C     0.68907   0.19615   0.98555   0.00000  Uiso   1.00
H116   H     0.74818   0.73082   0.06165   0.00000  Uiso   1.00
H117   H     0.96820   0.62249   0.12301   0.00000  Uiso   1.00
H118   H     0.52532   0.59415   0.96479   0.00000  Uiso   1.00
H119   H     0.76007   0.96009   0.11564   0.00000  Uiso   1.00
H120   H     0.19769   0.52712   0.16180   0.00000  Uiso   1.00
H121   H     0.26383   0.46739   0.82819   0.00000  Uiso   1.00
H122   H     0.75883   0.23904   0.14629   0.00000  Uiso   1.00
H123   H     0.63700   0.92162   0.83646   0.00000  Uiso   1.00
H124   H     0.85094   0.82377   0.88547   0.00000  Uiso   1.00
H125   H     0.40805   0.79542   0.72725   0.00000  Uiso   1.00
H126   H     0.64280   0.16135   0.87810   0.00000  Uiso   1.00
H127   H     0.10251   0.69047   0.96900   0.00000  Uiso   1.00
H128   H     0.16864   0.63074   0.63539   0.00000  Uiso   1.00
H129   H     0.66365   0.40239   0.95349   0.00000  Uiso   1.00
O130   O     0.29281   0.54094   0.10169   0.00000  Uiso   1.00
O131   O     0.06761   0.46260   0.66401   0.00000  Uiso   1.00
O132   O     0.71705   0.47498   0.08134   0.00000  Uiso   1.00
N133   N     0.14594   0.57901   0.10971   0.00000  Uiso   1.00
N134   N     0.27285   0.52315   0.79781   0.00000  Uiso   1.00
N135   N     0.73560   0.24458   0.09518   0.00000  Uiso   1.00
N136   N     0.09473   0.66691   0.00597   0.00000  Uiso   1.00
N137   N     0.22163   0.61105   0.69406   0.00000  Uiso   1.00
N138   N     0.68438   0.33248   0.99144   0.00000  Uiso   1.00
C139   C     0.27729   0.27454   0.48994   0.00000  Uiso   1.00
C140   C     0.17315   0.24215   0.48782   0.00000  Uiso   1.00
C141   C     0.05708   0.16594   0.42826   0.00000  Uiso   1.00
C142   C     0.97477   0.14783   0.43732   0.00000  Uiso   1.00
C143   C     0.80813   0.08895   0.42397   0.00000  Uiso   1.00
C144   C     0.41378   0.22673   0.57379   0.00000  Uiso   1.00
C145   C     0.50002   0.13758   0.58650   0.00000  Uiso   1.00
C146   C     0.62028   0.10651   0.66793   0.00000  Uiso   1.00
C147   C     0.82726   0.02376   0.78804   0.00000  Uiso   1.00
C148   C     0.28622   0.42555   0.49182   0.00000  Uiso   1.00
C149   C     0.26525   0.50357   0.43563   0.00000  Uiso   1.00
C150   C     0.27815   0.63990   0.44806   0.00000  Uiso   1.00
C151   C     0.28708   0.86586   0.44091   0.00000  Uiso   1.00
C152   C     0.33752   0.37791   0.61194   0.00000  Uiso   1.00
C153   C     0.20588   0.29829   0.55409   0.00000  Uiso   1.00
C154   C     0.12372   0.28031   0.56324   0.00000  Uiso   1.00
C155   C     0.00754   0.20408   0.50370   0.00000  Uiso   1.00
C156   C     0.44650   0.28287   0.64005   0.00000  Uiso   1.00
C157   C     0.56666   0.25194   0.72148   0.00000  Uiso   1.00
C158   C     0.65306   0.16276   0.73431   0.00000  Uiso   1.00
C159   C     0.31894   0.48170   0.55809   0.00000  Uiso   1.00
C160   C     0.33188   0.61794   0.57061   0.00000  Uiso   1.00
C161   C     0.31093   0.69615   0.51445   0.00000  Uiso   1.00
H162   H     0.25182   0.23082   0.43835   0.00000  Uiso   1.00
H163   H     0.03180   0.12249   0.37699   0.00000  Uiso   1.00
H164   H     0.47468   0.09415   0.53521   0.00000  Uiso   1.00
H165   H     0.23993   0.46009   0.38436   0.00000  Uiso   1.00
H166   H     0.80231   0.02712   0.33820   0.00000  Uiso   1.00
H167   H     0.73617   0.96739   0.67181   0.00000  Uiso   1.00
H168   H     0.24117   0.73904   0.35371   0.00000  Uiso   1.00
H169   H     0.36300   0.42162   0.66354   0.00000  Uiso   1.00
H170   H     0.14906   0.32377   0.61453   0.00000  Uiso   1.00
H171   H     0.59195   0.29542   0.77275   0.00000  Uiso   1.00
H172   H     0.35720   0.66135   0.62190   0.00000  Uiso   1.00
H173   H     0.89749   0.19047   0.53100   0.00000  Uiso   1.00
H174   H     0.83136   0.13074   0.86461   0.00000  Uiso   1.00
H175   H     0.33635   0.90239   0.54651   0.00000  Uiso   1.00
O176   O     0.70719   0.04094   0.39831   0.00000  Uiso   1.00
O177   O     0.93239   0.96260   0.83599   0.00000  Uiso   1.00
O178   O     0.28295   0.97498   0.41866   0.00000  Uiso   1.00
N179   N     0.85406   0.07901   0.39029   0.00000  Uiso   1.00
N180   N     0.72715   0.02315   0.70219   0.00000  Uiso   1.00
N181   N     0.26440   0.74458   0.40482   0.00000  Uiso   1.00
N182   N     0.90527   0.16691   0.49403   0.00000  Uiso   1.00
N183   N     0.77837   0.11105   0.80594   0.00000  Uiso   1.00
N184   N     0.31562   0.83248   0.50856   0.00000  Uiso   1.00
