data_job_03953
_audit_creation_date              2018-12-19
_audit_creation_method            'Materials Studio'
_symmetry_space_group_name_H-M    'P1'
_symmetry_Int_Tables_number       1
_symmetry_cell_setting            triclinic
loop_
_symmetry_equiv_pos_as_xyz
  x,y,z
_cell_length_a                    32.2235
_cell_length_b                    32.2235
_cell_length_c                    10.3537
_cell_angle_alpha                 90.0000
_cell_angle_beta                  90.0000
_cell_angle_gamma                 90.0000
loop_
_atom_site_label
_atom_site_type_symbol
_atom_site_fract_x
_atom_site_fract_y
_atom_site_fract_z
_atom_site_U_iso_or_equiv
_atom_site_adp_type
_atom_site_occupancy
C1     C     0.35366   0.76379   0.20927   0.00000  Uiso   1.00
C2     C     0.33549   0.73008   0.29582   0.00000  Uiso   1.00
C3     C     0.31068   0.69739   0.25524   0.00000  Uiso   1.00
C4     C     0.29717   0.66983   0.34936   0.00000  Uiso   1.00
C5     C     0.26728   0.61674   0.46399   0.00000  Uiso   1.00
C6     C     0.33881   0.80497   0.26522   0.00000  Uiso   1.00
C7     C     0.31680   0.83525   0.19891   0.00000  Uiso   1.00
C8     C     0.30609   0.87073   0.26727   0.00000  Uiso   1.00
C9     C     0.28139   0.93393   0.33436   0.00000  Uiso   1.00
C10    C     0.40046   0.76263   0.23077   0.00000  Uiso   1.00
C11    C     0.43028   0.75730   0.13548   0.00000  Uiso   1.00
C12    C     0.47147   0.75715   0.17483   0.00000  Uiso   1.00
C13    C     0.54248   0.75459   0.18843   0.00000  Uiso   1.00
C14    C     0.37379   0.77300   0.44858   0.00000  Uiso   1.00
C15    C     0.34643   0.73509   0.42581   0.00000  Uiso   1.00
C16    C     0.33295   0.70757   0.52001   0.00000  Uiso   1.00
C17    C     0.30812   0.67484   0.47958   0.00000  Uiso   1.00
C18    C     0.34975   0.80997   0.39520   0.00000  Uiso   1.00
C19    C     0.33907   0.84543   0.46367   0.00000  Uiso   1.00
C20    C     0.31704   0.87574   0.39748   0.00000  Uiso   1.00
C21    C     0.41139   0.76763   0.36075   0.00000  Uiso   1.00
C22    C     0.45255   0.76748   0.40025   0.00000  Uiso   1.00
C23    C     0.48242   0.76216   0.30505   0.00000  Uiso   1.00
H24    H     0.34515   0.75990   0.10808   0.00000  Uiso   1.00
H25    H     0.30222   0.69353   0.15464   0.00000  Uiso   1.00
H26    H     0.30835   0.83137   0.09832   0.00000  Uiso   1.00
H27    H     0.42181   0.75344   0.03491   0.00000  Uiso   1.00
H28    H     0.25944   0.62216   0.26360   0.00000  Uiso   1.00
H29    H     0.27237   0.91280   0.14482   0.00000  Uiso   1.00
H30    H     0.51162   0.74847   0.01110   0.00000  Uiso   1.00
H31    H     0.38230   0.77689   0.54978   0.00000  Uiso   1.00
H32    H     0.34141   0.71145   0.62059   0.00000  Uiso   1.00
H33    H     0.34754   0.84929   0.56426   0.00000  Uiso   1.00
H34    H     0.46100   0.77135   0.50085   0.00000  Uiso   1.00
H35    H     0.29125   0.63670   0.64178   0.00000  Uiso   1.00
H36    H     0.30418   0.92735   0.52299   0.00000  Uiso   1.00
H37    H     0.54343   0.76301   0.38928   0.00000  Uiso   1.00
O38    O     0.24777   0.58608   0.49131   0.00000  Uiso   1.00
O39    O     0.26473   0.96740   0.33546   0.00000  Uiso   1.00
O40    O     0.57863   0.75179   0.16003   0.00000  Uiso   1.00
N41    N     0.27255   0.63456   0.34289   0.00000  Uiso   1.00
N42    N     0.28462   0.90629   0.23184   0.00000  Uiso   1.00
N43    N     0.50831   0.75266   0.10682   0.00000  Uiso   1.00
N44    N     0.28966   0.64238   0.54638   0.00000  Uiso   1.00
N45    N     0.30174   0.91412   0.43533   0.00000  Uiso   1.00
N46    N     0.52542   0.76049   0.31031   0.00000  Uiso   1.00
C47    C     0.85366   0.26379   0.70927   0.00000  Uiso   1.00
C48    C     0.83549   0.23008   0.79582   0.00000  Uiso   1.00
C49    C     0.81068   0.19739   0.75524   0.00000  Uiso   1.00
C50    C     0.79717   0.16983   0.84936   0.00000  Uiso   1.00
C51    C     0.76728   0.11674   0.96399   0.00000  Uiso   1.00
C52    C     0.83881   0.30497   0.76522   0.00000  Uiso   1.00
C53    C     0.81680   0.33525   0.69891   0.00000  Uiso   1.00
C54    C     0.80609   0.37073   0.76727   0.00000  Uiso   1.00
C55    C     0.78139   0.43393   0.83436   0.00000  Uiso   1.00
C56    C     0.90046   0.26263   0.73077   0.00000  Uiso   1.00
C57    C     0.93028   0.25730   0.63548   0.00000  Uiso   1.00
C58    C     0.97147   0.25715   0.67483   0.00000  Uiso   1.00
C59    C     0.04248   0.25459   0.68843   0.00000  Uiso   1.00
C60    C     0.87379   0.27300   0.94858   0.00000  Uiso   1.00
C61    C     0.84643   0.23509   0.92581   0.00000  Uiso   1.00
C62    C     0.83295   0.20757   0.02001   0.00000  Uiso   1.00
C63    C     0.80812   0.17484   0.97958   0.00000  Uiso   1.00
C64    C     0.84975   0.30997   0.89520   0.00000  Uiso   1.00
C65    C     0.83907   0.34543   0.96367   0.00000  Uiso   1.00
C66    C     0.81704   0.37574   0.89748   0.00000  Uiso   1.00
C67    C     0.91139   0.26763   0.86075   0.00000  Uiso   1.00
C68    C     0.95255   0.26748   0.90025   0.00000  Uiso   1.00
C69    C     0.98242   0.26216   0.80505   0.00000  Uiso   1.00
H70    H     0.84515   0.25990   0.60808   0.00000  Uiso   1.00
H71    H     0.80222   0.19353   0.65464   0.00000  Uiso   1.00
H72    H     0.80835   0.33137   0.59832   0.00000  Uiso   1.00
H73    H     0.92181   0.25344   0.53491   0.00000  Uiso   1.00
H74    H     0.75944   0.12216   0.76360   0.00000  Uiso   1.00
H75    H     0.77237   0.41280   0.64482   0.00000  Uiso   1.00
H76    H     0.01162   0.24847   0.51110   0.00000  Uiso   1.00
H77    H     0.88230   0.27689   0.04978   0.00000  Uiso   1.00
H78    H     0.84141   0.21145   0.12059   0.00000  Uiso   1.00
H79    H     0.84754   0.34929   0.06426   0.00000  Uiso   1.00
H80    H     0.96100   0.27135   0.00085   0.00000  Uiso   1.00
H81    H     0.79125   0.13670   0.14178   0.00000  Uiso   1.00
H82    H     0.80418   0.42735   0.02299   0.00000  Uiso   1.00
H83    H     0.04343   0.26301   0.88928   0.00000  Uiso   1.00
O84    O     0.74777   0.08608   0.99131   0.00000  Uiso   1.00
O85    O     0.76473   0.46740   0.83546   0.00000  Uiso   1.00
O86    O     0.07863   0.25179   0.66003   0.00000  Uiso   1.00
N87    N     0.77255   0.13456   0.84289   0.00000  Uiso   1.00
N88    N     0.78462   0.40629   0.73184   0.00000  Uiso   1.00
N89    N     0.00831   0.25266   0.60682   0.00000  Uiso   1.00
N90    N     0.78966   0.14238   0.04638   0.00000  Uiso   1.00
N91    N     0.80174   0.41412   0.93533   0.00000  Uiso   1.00
N92    N     0.02542   0.26049   0.81031   0.00000  Uiso   1.00
C93    C     0.64634   0.23621   0.20927   0.00000  Uiso   1.00
C94    C     0.66451   0.26992   0.29582   0.00000  Uiso   1.00
C95    C     0.68932   0.30261   0.25524   0.00000  Uiso   1.00
C96    C     0.70283   0.33017   0.34936   0.00000  Uiso   1.00
C97    C     0.73272   0.38326   0.46399   0.00000  Uiso   1.00
C98    C     0.66119   0.19503   0.26522   0.00000  Uiso   1.00
C99    C     0.68320   0.16475   0.19891   0.00000  Uiso   1.00
C100   C     0.69391   0.12927   0.26727   0.00000  Uiso   1.00
C101   C     0.71861   0.06607   0.33436   0.00000  Uiso   1.00
C102   C     0.59954   0.23737   0.23077   0.00000  Uiso   1.00
C103   C     0.56972   0.24270   0.13548   0.00000  Uiso   1.00
C104   C     0.52853   0.24285   0.17483   0.00000  Uiso   1.00
C105   C     0.45752   0.24541   0.18843   0.00000  Uiso   1.00
C106   C     0.62621   0.22700   0.44858   0.00000  Uiso   1.00
C107   C     0.65357   0.26491   0.42581   0.00000  Uiso   1.00
C108   C     0.66705   0.29243   0.52001   0.00000  Uiso   1.00
C109   C     0.69188   0.32516   0.47958   0.00000  Uiso   1.00
C110   C     0.65025   0.19003   0.39520   0.00000  Uiso   1.00
C111   C     0.66093   0.15457   0.46367   0.00000  Uiso   1.00
C112   C     0.68296   0.12426   0.39748   0.00000  Uiso   1.00
C113   C     0.58861   0.23237   0.36075   0.00000  Uiso   1.00
C114   C     0.54745   0.23252   0.40025   0.00000  Uiso   1.00
C115   C     0.51758   0.23784   0.30505   0.00000  Uiso   1.00
H116   H     0.65485   0.24010   0.10808   0.00000  Uiso   1.00
H117   H     0.69778   0.30647   0.15464   0.00000  Uiso   1.00
H118   H     0.69165   0.16863   0.09832   0.00000  Uiso   1.00
H119   H     0.57819   0.24656   0.03491   0.00000  Uiso   1.00
H120   H     0.74056   0.37784   0.26360   0.00000  Uiso   1.00
H121   H     0.72763   0.08720   0.14482   0.00000  Uiso   1.00
H122   H     0.48838   0.25153   0.01110   0.00000  Uiso   1.00
H123   H     0.61770   0.22311   0.54978   0.00000  Uiso   1.00
H124   H     0.65859   0.28855   0.62059   0.00000  Uiso   1.00
H125   H     0.65246   0.15071   0.56426   0.00000  Uiso   1.00
H126   H     0.53900   0.22865   0.50085   0.00000  Uiso   1.00
H127   H     0.70875   0.36330   0.64178   0.00000  Uiso   1.00
H128   H     0.69582   0.07265   0.52299   0.00000  Uiso   1.00
H129   H     0.45657   0.23699   0.38928   0.00000  Uiso   1.00
O130   O     0.75223   0.41392   0.49131   0.00000  Uiso   1.00
O131   O     0.73527   0.03260   0.33546   0.00000  Uiso   1.00
O132   O     0.42137   0.24821   0.16003   0.00000  Uiso   1.00
N133   N     0.72745   0.36544   0.34289   0.00000  Uiso   1.00
N134   N     0.71538   0.09371   0.23184   0.00000  Uiso   1.00
N135   N     0.49169   0.24734   0.10682   0.00000  Uiso   1.00
N136   N     0.71034   0.35762   0.54638   0.00000  Uiso   1.00
N137   N     0.69826   0.08588   0.43533   0.00000  Uiso   1.00
N138   N     0.47458   0.23951   0.31031   0.00000  Uiso   1.00
C139   C     0.14634   0.73621   0.70927   0.00000  Uiso   1.00
C140   C     0.16451   0.76992   0.79582   0.00000  Uiso   1.00
C141   C     0.18932   0.80261   0.75524   0.00000  Uiso   1.00
C142   C     0.20283   0.83017   0.84936   0.00000  Uiso   1.00
C143   C     0.23272   0.88326   0.96399   0.00000  Uiso   1.00
C144   C     0.16119   0.69503   0.76522   0.00000  Uiso   1.00
C145   C     0.18320   0.66475   0.69891   0.00000  Uiso   1.00
C146   C     0.19391   0.62927   0.76727   0.00000  Uiso   1.00
C147   C     0.21861   0.56607   0.83436   0.00000  Uiso   1.00
C148   C     0.09954   0.73737   0.73077   0.00000  Uiso   1.00
C149   C     0.06972   0.74270   0.63548   0.00000  Uiso   1.00
C150   C     0.02853   0.74285   0.67483   0.00000  Uiso   1.00
C151   C     0.95752   0.74541   0.68843   0.00000  Uiso   1.00
C152   C     0.12621   0.72700   0.94858   0.00000  Uiso   1.00
C153   C     0.15357   0.76491   0.92581   0.00000  Uiso   1.00
C154   C     0.16705   0.79243   0.02001   0.00000  Uiso   1.00
C155   C     0.19188   0.82516   0.97958   0.00000  Uiso   1.00
C156   C     0.15025   0.69003   0.89520   0.00000  Uiso   1.00
C157   C     0.16093   0.65457   0.96367   0.00000  Uiso   1.00
C158   C     0.18296   0.62426   0.89748   0.00000  Uiso   1.00
C159   C     0.08861   0.73237   0.86075   0.00000  Uiso   1.00
C160   C     0.04745   0.73252   0.90025   0.00000  Uiso   1.00
C161   C     0.01758   0.73784   0.80505   0.00000  Uiso   1.00
H162   H     0.15485   0.74010   0.60808   0.00000  Uiso   1.00
H163   H     0.19778   0.80647   0.65464   0.00000  Uiso   1.00
H164   H     0.19165   0.66863   0.59832   0.00000  Uiso   1.00
H165   H     0.07819   0.74656   0.53491   0.00000  Uiso   1.00
H166   H     0.24056   0.87784   0.76360   0.00000  Uiso   1.00
H167   H     0.22763   0.58720   0.64482   0.00000  Uiso   1.00
H168   H     0.98838   0.75153   0.51110   0.00000  Uiso   1.00
H169   H     0.11770   0.72311   0.04978   0.00000  Uiso   1.00
H170   H     0.15859   0.78855   0.12059   0.00000  Uiso   1.00
H171   H     0.15246   0.65071   0.06426   0.00000  Uiso   1.00
H172   H     0.03900   0.72865   0.00085   0.00000  Uiso   1.00
H173   H     0.20875   0.86330   0.14178   0.00000  Uiso   1.00
H174   H     0.19582   0.57265   0.02299   0.00000  Uiso   1.00
H175   H     0.95657   0.73699   0.88928   0.00000  Uiso   1.00
O176   O     0.25223   0.91392   0.99131   0.00000  Uiso   1.00
O177   O     0.23527   0.53260   0.83546   0.00000  Uiso   1.00
O178   O     0.92137   0.74821   0.66003   0.00000  Uiso   1.00
N179   N     0.22745   0.86544   0.84289   0.00000  Uiso   1.00
N180   N     0.21538   0.59371   0.73184   0.00000  Uiso   1.00
N181   N     0.99169   0.74734   0.60682   0.00000  Uiso   1.00
N182   N     0.21034   0.85762   0.04638   0.00000  Uiso   1.00
N183   N     0.19826   0.58588   0.93533   0.00000  Uiso   1.00
N184   N     0.97458   0.73951   0.81031   0.00000  Uiso   1.00
C185   C     0.23621   0.35366   0.20927   0.00000  Uiso   1.00
C186   C     0.26992   0.33549   0.29582   0.00000  Uiso   1.00
C187   C     0.30261   0.31068   0.25524   0.00000  Uiso   1.00
C188   C     0.33017   0.29717   0.34936   0.00000  Uiso   1.00
C189   C     0.38326   0.26728   0.46399   0.00000  Uiso   1.00
C190   C     0.19503   0.33881   0.26522   0.00000  Uiso   1.00
C191   C     0.16475   0.31680   0.19891   0.00000  Uiso   1.00
C192   C     0.12927   0.30609   0.26727   0.00000  Uiso   1.00
C193   C     0.06607   0.28139   0.33436   0.00000  Uiso   1.00
C194   C     0.23737   0.40046   0.23077   0.00000  Uiso   1.00
C195   C     0.24270   0.43028   0.13548   0.00000  Uiso   1.00
C196   C     0.24285   0.47147   0.17483   0.00000  Uiso   1.00
C197   C     0.24541   0.54248   0.18843   0.00000  Uiso   1.00
C198   C     0.22700   0.37379   0.44858   0.00000  Uiso   1.00
C199   C     0.26491   0.34643   0.42581   0.00000  Uiso   1.00
C200   C     0.29243   0.33295   0.52001   0.00000  Uiso   1.00
C201   C     0.32516   0.30812   0.47958   0.00000  Uiso   1.00
C202   C     0.19003   0.34975   0.39520   0.00000  Uiso   1.00
C203   C     0.15457   0.33907   0.46367   0.00000  Uiso   1.00
C204   C     0.12426   0.31704   0.39748   0.00000  Uiso   1.00
C205   C     0.23237   0.41139   0.36075   0.00000  Uiso   1.00
C206   C     0.23252   0.45255   0.40025   0.00000  Uiso   1.00
C207   C     0.23784   0.48242   0.30505   0.00000  Uiso   1.00
H208   H     0.24010   0.34515   0.10808   0.00000  Uiso   1.00
H209   H     0.30647   0.30222   0.15464   0.00000  Uiso   1.00
H210   H     0.16863   0.30835   0.09832   0.00000  Uiso   1.00
H211   H     0.24656   0.42181   0.03491   0.00000  Uiso   1.00
H212   H     0.37784   0.25944   0.26360   0.00000  Uiso   1.00
H213   H     0.08720   0.27237   0.14482   0.00000  Uiso   1.00
H214   H     0.25153   0.51162   0.01110   0.00000  Uiso   1.00
H215   H     0.22311   0.38230   0.54978   0.00000  Uiso   1.00
H216   H     0.28855   0.34141   0.62059   0.00000  Uiso   1.00
H217   H     0.15071   0.34754   0.56426   0.00000  Uiso   1.00
H218   H     0.22865   0.46100   0.50085   0.00000  Uiso   1.00
H219   H     0.36330   0.29125   0.64178   0.00000  Uiso   1.00
H220   H     0.07265   0.30418   0.52299   0.00000  Uiso   1.00
H221   H     0.23699   0.54343   0.38928   0.00000  Uiso   1.00
O222   O     0.41392   0.24777   0.49131   0.00000  Uiso   1.00
O223   O     0.03260   0.26473   0.33546   0.00000  Uiso   1.00
O224   O     0.24821   0.57863   0.16003   0.00000  Uiso   1.00
N225   N     0.36544   0.27255   0.34289   0.00000  Uiso   1.00
N226   N     0.09371   0.28462   0.23184   0.00000  Uiso   1.00
N227   N     0.24734   0.50831   0.10682   0.00000  Uiso   1.00
N228   N     0.35762   0.28966   0.54638   0.00000  Uiso   1.00
N229   N     0.08588   0.30174   0.43533   0.00000  Uiso   1.00
N230   N     0.23951   0.52542   0.31031   0.00000  Uiso   1.00
C231   C     0.73621   0.85366   0.70927   0.00000  Uiso   1.00
C232   C     0.76992   0.83549   0.79582   0.00000  Uiso   1.00
C233   C     0.80261   0.81068   0.75524   0.00000  Uiso   1.00
C234   C     0.83017   0.79717   0.84936   0.00000  Uiso   1.00
C235   C     0.88326   0.76728   0.96399   0.00000  Uiso   1.00
C236   C     0.69503   0.83881   0.76522   0.00000  Uiso   1.00
C237   C     0.66475   0.81680   0.69891   0.00000  Uiso   1.00
C238   C     0.62927   0.80609   0.76727   0.00000  Uiso   1.00
C239   C     0.56607   0.78139   0.83436   0.00000  Uiso   1.00
C240   C     0.73737   0.90046   0.73077   0.00000  Uiso   1.00
C241   C     0.74270   0.93028   0.63548   0.00000  Uiso   1.00
C242   C     0.74285   0.97147   0.67483   0.00000  Uiso   1.00
C243   C     0.74541   0.04248   0.68843   0.00000  Uiso   1.00
C244   C     0.72700   0.87379   0.94858   0.00000  Uiso   1.00
C245   C     0.76491   0.84643   0.92581   0.00000  Uiso   1.00
C246   C     0.79243   0.83295   0.02001   0.00000  Uiso   1.00
C247   C     0.82516   0.80812   0.97958   0.00000  Uiso   1.00
C248   C     0.69003   0.84975   0.89520   0.00000  Uiso   1.00
C249   C     0.65457   0.83907   0.96367   0.00000  Uiso   1.00
C250   C     0.62426   0.81704   0.89748   0.00000  Uiso   1.00
C251   C     0.73237   0.91139   0.86075   0.00000  Uiso   1.00
C252   C     0.73252   0.95255   0.90025   0.00000  Uiso   1.00
C253   C     0.73784   0.98242   0.80505   0.00000  Uiso   1.00
H254   H     0.74010   0.84515   0.60808   0.00000  Uiso   1.00
H255   H     0.80647   0.80222   0.65464   0.00000  Uiso   1.00
H256   H     0.66863   0.80835   0.59832   0.00000  Uiso   1.00
H257   H     0.74656   0.92181   0.53491   0.00000  Uiso   1.00
H258   H     0.87784   0.75944   0.76360   0.00000  Uiso   1.00
H259   H     0.58720   0.77237   0.64482   0.00000  Uiso   1.00
H260   H     0.75153   0.01162   0.51110   0.00000  Uiso   1.00
H261   H     0.72311   0.88230   0.04978   0.00000  Uiso   1.00
H262   H     0.78855   0.84141   0.12059   0.00000  Uiso   1.00
H263   H     0.65071   0.84754   0.06426   0.00000  Uiso   1.00
H264   H     0.72865   0.96100   0.00085   0.00000  Uiso   1.00
H265   H     0.86330   0.79125   0.14178   0.00000  Uiso   1.00
H266   H     0.57265   0.80418   0.02299   0.00000  Uiso   1.00
H267   H     0.73699   0.04343   0.88928   0.00000  Uiso   1.00
O268   O     0.91392   0.74777   0.99131   0.00000  Uiso   1.00
O269   O     0.53260   0.76473   0.83546   0.00000  Uiso   1.00
O270   O     0.74821   0.07863   0.66003   0.00000  Uiso   1.00
N271   N     0.86544   0.77255   0.84289   0.00000  Uiso   1.00
N272   N     0.59371   0.78462   0.73184   0.00000  Uiso   1.00
N273   N     0.74734   0.00831   0.60682   0.00000  Uiso   1.00
N274   N     0.85762   0.78966   0.04638   0.00000  Uiso   1.00
N275   N     0.58588   0.80174   0.93533   0.00000  Uiso   1.00
N276   N     0.73951   0.02542   0.81031   0.00000  Uiso   1.00
C277   C     0.76379   0.64634   0.20927   0.00000  Uiso   1.00
C278   C     0.73008   0.66451   0.29582   0.00000  Uiso   1.00
C279   C     0.69739   0.68932   0.25524   0.00000  Uiso   1.00
C280   C     0.66983   0.70283   0.34936   0.00000  Uiso   1.00
C281   C     0.61674   0.73272   0.46399   0.00000  Uiso   1.00
C282   C     0.80497   0.66119   0.26522   0.00000  Uiso   1.00
C283   C     0.83525   0.68320   0.19891   0.00000  Uiso   1.00
C284   C     0.87073   0.69391   0.26727   0.00000  Uiso   1.00
C285   C     0.93393   0.71861   0.33436   0.00000  Uiso   1.00
C286   C     0.76263   0.59954   0.23077   0.00000  Uiso   1.00
C287   C     0.75730   0.56972   0.13548   0.00000  Uiso   1.00
C288   C     0.75715   0.52853   0.17483   0.00000  Uiso   1.00
C289   C     0.75459   0.45752   0.18843   0.00000  Uiso   1.00
C290   C     0.77300   0.62621   0.44858   0.00000  Uiso   1.00
C291   C     0.73509   0.65357   0.42581   0.00000  Uiso   1.00
C292   C     0.70757   0.66705   0.52001   0.00000  Uiso   1.00
C293   C     0.67484   0.69188   0.47958   0.00000  Uiso   1.00
C294   C     0.80997   0.65025   0.39520   0.00000  Uiso   1.00
C295   C     0.84543   0.66093   0.46367   0.00000  Uiso   1.00
C296   C     0.87574   0.68296   0.39748   0.00000  Uiso   1.00
C297   C     0.76763   0.58861   0.36075   0.00000  Uiso   1.00
C298   C     0.76748   0.54745   0.40025   0.00000  Uiso   1.00
C299   C     0.76216   0.51758   0.30505   0.00000  Uiso   1.00
H300   H     0.75990   0.65485   0.10808   0.00000  Uiso   1.00
H301   H     0.69353   0.69778   0.15464   0.00000  Uiso   1.00
H302   H     0.83137   0.69165   0.09832   0.00000  Uiso   1.00
H303   H     0.75344   0.57819   0.03491   0.00000  Uiso   1.00
H304   H     0.62216   0.74056   0.26360   0.00000  Uiso   1.00
H305   H     0.91280   0.72763   0.14482   0.00000  Uiso   1.00
H306   H     0.74847   0.48838   0.01110   0.00000  Uiso   1.00
H307   H     0.77689   0.61770   0.54978   0.00000  Uiso   1.00
H308   H     0.71145   0.65859   0.62059   0.00000  Uiso   1.00
H309   H     0.84929   0.65246   0.56426   0.00000  Uiso   1.00
H310   H     0.77135   0.53900   0.50085   0.00000  Uiso   1.00
H311   H     0.63670   0.70875   0.64178   0.00000  Uiso   1.00
H312   H     0.92735   0.69582   0.52299   0.00000  Uiso   1.00
H313   H     0.76301   0.45657   0.38928   0.00000  Uiso   1.00
O314   O     0.58608   0.75223   0.49131   0.00000  Uiso   1.00
O315   O     0.96740   0.73527   0.33546   0.00000  Uiso   1.00
O316   O     0.75179   0.42137   0.16003   0.00000  Uiso   1.00
N317   N     0.63456   0.72745   0.34289   0.00000  Uiso   1.00
N318   N     0.90629   0.71538   0.23184   0.00000  Uiso   1.00
N319   N     0.75266   0.49169   0.10682   0.00000  Uiso   1.00
N320   N     0.64238   0.71034   0.54638   0.00000  Uiso   1.00
N321   N     0.91412   0.69826   0.43533   0.00000  Uiso   1.00
N322   N     0.76049   0.47458   0.31031   0.00000  Uiso   1.00
C323   C     0.26379   0.14634   0.70927   0.00000  Uiso   1.00
C324   C     0.23008   0.16451   0.79582   0.00000  Uiso   1.00
C325   C     0.19739   0.18932   0.75524   0.00000  Uiso   1.00
C326   C     0.16983   0.20283   0.84936   0.00000  Uiso   1.00
C327   C     0.11674   0.23272   0.96399   0.00000  Uiso   1.00
C328   C     0.30497   0.16119   0.76522   0.00000  Uiso   1.00
C329   C     0.33525   0.18320   0.69891   0.00000  Uiso   1.00
C330   C     0.37073   0.19391   0.76727   0.00000  Uiso   1.00
C331   C     0.43393   0.21861   0.83436   0.00000  Uiso   1.00
C332   C     0.26263   0.09954   0.73077   0.00000  Uiso   1.00
C333   C     0.25730   0.06972   0.63548   0.00000  Uiso   1.00
C334   C     0.25715   0.02853   0.67483   0.00000  Uiso   1.00
C335   C     0.25459   0.95752   0.68843   0.00000  Uiso   1.00
C336   C     0.27300   0.12621   0.94858   0.00000  Uiso   1.00
C337   C     0.23509   0.15357   0.92581   0.00000  Uiso   1.00
C338   C     0.20757   0.16705   0.02001   0.00000  Uiso   1.00
C339   C     0.17484   0.19188   0.97958   0.00000  Uiso   1.00
C340   C     0.30997   0.15025   0.89520   0.00000  Uiso   1.00
C341   C     0.34543   0.16093   0.96367   0.00000  Uiso   1.00
C342   C     0.37574   0.18296   0.89748   0.00000  Uiso   1.00
C343   C     0.26763   0.08861   0.86075   0.00000  Uiso   1.00
C344   C     0.26748   0.04745   0.90025   0.00000  Uiso   1.00
C345   C     0.26216   0.01758   0.80505   0.00000  Uiso   1.00
H346   H     0.25990   0.15485   0.60808   0.00000  Uiso   1.00
H347   H     0.19353   0.19778   0.65464   0.00000  Uiso   1.00
H348   H     0.33137   0.19165   0.59832   0.00000  Uiso   1.00
H349   H     0.25344   0.07819   0.53491   0.00000  Uiso   1.00
H350   H     0.12216   0.24056   0.76360   0.00000  Uiso   1.00
H351   H     0.41280   0.22763   0.64482   0.00000  Uiso   1.00
H352   H     0.24847   0.98838   0.51110   0.00000  Uiso   1.00
H353   H     0.27689   0.11770   0.04978   0.00000  Uiso   1.00
H354   H     0.21145   0.15859   0.12059   0.00000  Uiso   1.00
H355   H     0.34929   0.15246   0.06426   0.00000  Uiso   1.00
H356   H     0.27135   0.03900   0.00085   0.00000  Uiso   1.00
H357   H     0.13670   0.20875   0.14178   0.00000  Uiso   1.00
H358   H     0.42735   0.19582   0.02299   0.00000  Uiso   1.00
H359   H     0.26301   0.95657   0.88928   0.00000  Uiso   1.00
O360   O     0.08608   0.25223   0.99131   0.00000  Uiso   1.00
O361   O     0.46740   0.23527   0.83546   0.00000  Uiso   1.00
O362   O     0.25179   0.92137   0.66003   0.00000  Uiso   1.00
N363   N     0.13456   0.22745   0.84289   0.00000  Uiso   1.00
N364   N     0.40629   0.21538   0.73184   0.00000  Uiso   1.00
N365   N     0.25266   0.99169   0.60682   0.00000  Uiso   1.00
N366   N     0.14238   0.21034   0.04638   0.00000  Uiso   1.00
N367   N     0.41412   0.19826   0.93533   0.00000  Uiso   1.00
N368   N     0.26049   0.97458   0.81031   0.00000  Uiso   1.00
