data_job_04032
_audit_creation_date              2018-12-19
_audit_creation_method            'Materials Studio'
_symmetry_space_group_name_H-M    'P1'
_symmetry_Int_Tables_number       1
_symmetry_cell_setting            triclinic
loop_
_symmetry_equiv_pos_as_xyz
  x,y,z
_cell_length_a                    18.6193
_cell_length_b                    12.2361
_cell_length_c                    47.2599
_cell_angle_alpha                 90.0000
_cell_angle_beta                  117.0025
_cell_angle_gamma                 90.0000
loop_
_atom_site_label
_atom_site_type_symbol
_atom_site_fract_x
_atom_site_fract_y
_atom_site_fract_z
_atom_site_U_iso_or_equiv
_atom_site_adp_type
_atom_site_occupancy
C1     C     0.64827   0.65608   0.90969   0.00000  Uiso   1.00
C2     C     0.61947   0.72979   0.92851   0.00000  Uiso   1.00
C3     C     0.65977   0.82094   0.94598   0.00000  Uiso   1.00
C4     C     0.62342   0.87754   0.96151   0.00000  Uiso   1.00
C5     C     0.58994   0.99711   0.99101   0.00000  Uiso   1.00
C6     C     0.58068   0.65546   0.87573   0.00000  Uiso   1.00
C7     C     0.58838   0.68410   0.84882   0.00000  Uiso   1.00
C8     C     0.51938   0.67811   0.81992   0.00000  Uiso   1.00
C9     C     0.42570   0.68220   0.76747   0.00000  Uiso   1.00
C10    C     0.65131   0.54080   0.92244   0.00000  Uiso   1.00
C11    C     0.71837   0.47301   0.93480   0.00000  Uiso   1.00
C12    C     0.70883   0.37047   0.94522   0.00000  Uiso   1.00
C13    C     0.72480   0.19654   0.96531   0.00000  Uiso   1.00
C14    C     0.51207   0.59451   0.90622   0.00000  Uiso   1.00
C15    C     0.54549   0.69635   0.92662   0.00000  Uiso   1.00
C16    C     0.50908   0.75282   0.94214   0.00000  Uiso   1.00
C17    C     0.54931   0.84403   0.95962   0.00000  Uiso   1.00
C18    C     0.50671   0.62202   0.87384   0.00000  Uiso   1.00
C19    C     0.43769   0.61598   0.84498   0.00000  Uiso   1.00
C20    C     0.44527   0.64460   0.81803   0.00000  Uiso   1.00
C21    C     0.57733   0.50735   0.92056   0.00000  Uiso   1.00
C22    C     0.56768   0.40490   0.93096   0.00000  Uiso   1.00
C23    C     0.63471   0.33697   0.94333   0.00000  Uiso   1.00
H24    H     0.70586   0.68211   0.91116   0.00000  Uiso   1.00
H25    H     0.71701   0.84680   0.94743   0.00000  Uiso   1.00
H26    H     0.64563   0.70996   0.85029   0.00000  Uiso   1.00
H27    H     0.77561   0.49892   0.93626   0.00000  Uiso   1.00
H28    H     0.69674   0.01466   0.98681   0.00000  Uiso   1.00
H29    H     0.54624   0.72610   0.78197   0.00000  Uiso   1.00
H30    H     0.82031   0.28107   0.96326   0.00000  Uiso   1.00
H31    H     0.45447   0.56847   0.90475   0.00000  Uiso   1.00
H32    H     0.45183   0.72692   0.94067   0.00000  Uiso   1.00
H33    H     0.38045   0.59009   0.84352   0.00000  Uiso   1.00
H34    H     0.51042   0.37904   0.92950   0.00000  Uiso   1.00
H35    H     0.48150   0.91736   0.98132   0.00000  Uiso   1.00
H36    H     0.33100   0.62880   0.77648   0.00000  Uiso   1.00
H37    H     0.60508   0.18377   0.95777   0.00000  Uiso   1.00
O38    O     0.59191   0.07232   0.00780   0.00000  Uiso   1.00
O39    O     0.39446   0.69372   0.73907   0.00000  Uiso   1.00
O40    O     0.75404   0.10985   0.97691   0.00000  Uiso   1.00
N41    N     0.64645   0.97000   0.98059   0.00000  Uiso   1.00
N42    N     0.50574   0.70023   0.78908   0.00000  Uiso   1.00
N43    N     0.76197   0.28415   0.95856   0.00000  Uiso   1.00
N44    N     0.53064   0.91765   0.97764   0.00000  Uiso   1.00
N45    N     0.38993   0.64788   0.78613   0.00000  Uiso   1.00
N46    N     0.64616   0.23180   0.95561   0.00000  Uiso   1.00
C47    C     0.14827   0.15608   0.90969   0.00000  Uiso   1.00
C48    C     0.11947   0.22979   0.92851   0.00000  Uiso   1.00
C49    C     0.15977   0.32094   0.94598   0.00000  Uiso   1.00
C50    C     0.12342   0.37754   0.96151   0.00000  Uiso   1.00
C51    C     0.08994   0.49711   0.99101   0.00000  Uiso   1.00
C52    C     0.08068   0.15546   0.87573   0.00000  Uiso   1.00
C53    C     0.08838   0.18410   0.84882   0.00000  Uiso   1.00
C54    C     0.01938   0.17811   0.81992   0.00000  Uiso   1.00
C55    C     0.92570   0.18220   0.76747   0.00000  Uiso   1.00
C56    C     0.15131   0.04080   0.92244   0.00000  Uiso   1.00
C57    C     0.21837   0.97301   0.93480   0.00000  Uiso   1.00
C58    C     0.20883   0.87047   0.94522   0.00000  Uiso   1.00
C59    C     0.22480   0.69654   0.96531   0.00000  Uiso   1.00
C60    C     0.01207   0.09451   0.90622   0.00000  Uiso   1.00
C61    C     0.04549   0.19635   0.92662   0.00000  Uiso   1.00
C62    C     0.00908   0.25282   0.94214   0.00000  Uiso   1.00
C63    C     0.04931   0.34403   0.95962   0.00000  Uiso   1.00
C64    C     0.00671   0.12202   0.87384   0.00000  Uiso   1.00
C65    C     0.93769   0.11598   0.84498   0.00000  Uiso   1.00
C66    C     0.94527   0.14460   0.81803   0.00000  Uiso   1.00
C67    C     0.07733   0.00735   0.92056   0.00000  Uiso   1.00
C68    C     0.06768   0.90490   0.93096   0.00000  Uiso   1.00
C69    C     0.13471   0.83697   0.94333   0.00000  Uiso   1.00
H70    H     0.20586   0.18211   0.91116   0.00000  Uiso   1.00
H71    H     0.21701   0.34680   0.94743   0.00000  Uiso   1.00
H72    H     0.14563   0.20996   0.85029   0.00000  Uiso   1.00
H73    H     0.27561   0.99892   0.93626   0.00000  Uiso   1.00
H74    H     0.19674   0.51466   0.98681   0.00000  Uiso   1.00
H75    H     0.04624   0.22610   0.78197   0.00000  Uiso   1.00
H76    H     0.32031   0.78107   0.96326   0.00000  Uiso   1.00
H77    H     0.95447   0.06847   0.90475   0.00000  Uiso   1.00
H78    H     0.95183   0.22692   0.94067   0.00000  Uiso   1.00
H79    H     0.88045   0.09009   0.84352   0.00000  Uiso   1.00
H80    H     0.01042   0.87904   0.92950   0.00000  Uiso   1.00
H81    H     0.98150   0.41736   0.98132   0.00000  Uiso   1.00
H82    H     0.83100   0.12880   0.77648   0.00000  Uiso   1.00
H83    H     0.10508   0.68377   0.95777   0.00000  Uiso   1.00
O84    O     0.09191   0.57232   0.00780   0.00000  Uiso   1.00
O85    O     0.89446   0.19372   0.73907   0.00000  Uiso   1.00
O86    O     0.25404   0.60985   0.97691   0.00000  Uiso   1.00
N87    N     0.14645   0.47000   0.98059   0.00000  Uiso   1.00
N88    N     0.00574   0.20023   0.78908   0.00000  Uiso   1.00
N89    N     0.26197   0.78415   0.95856   0.00000  Uiso   1.00
N90    N     0.03064   0.41765   0.97764   0.00000  Uiso   1.00
N91    N     0.88993   0.14788   0.78613   0.00000  Uiso   1.00
N92    N     0.14616   0.73180   0.95561   0.00000  Uiso   1.00
C93    C     0.35173   0.65608   0.59031   0.00000  Uiso   1.00
C94    C     0.38053   0.72979   0.57149   0.00000  Uiso   1.00
C95    C     0.34023   0.82094   0.55402   0.00000  Uiso   1.00
C96    C     0.37658   0.87754   0.53849   0.00000  Uiso   1.00
C97    C     0.41006   0.99711   0.50899   0.00000  Uiso   1.00
C98    C     0.41932   0.65546   0.62427   0.00000  Uiso   1.00
C99    C     0.41162   0.68410   0.65118   0.00000  Uiso   1.00
C100   C     0.48062   0.67811   0.68008   0.00000  Uiso   1.00
C101   C     0.57430   0.68220   0.73253   0.00000  Uiso   1.00
C102   C     0.34869   0.54080   0.57756   0.00000  Uiso   1.00
C103   C     0.28163   0.47301   0.56520   0.00000  Uiso   1.00
C104   C     0.29117   0.37047   0.55478   0.00000  Uiso   1.00
C105   C     0.27520   0.19654   0.53469   0.00000  Uiso   1.00
C106   C     0.48793   0.59451   0.59378   0.00000  Uiso   1.00
C107   C     0.45451   0.69635   0.57338   0.00000  Uiso   1.00
C108   C     0.49092   0.75282   0.55786   0.00000  Uiso   1.00
C109   C     0.45069   0.84403   0.54038   0.00000  Uiso   1.00
C110   C     0.49329   0.62202   0.62616   0.00000  Uiso   1.00
C111   C     0.56231   0.61598   0.65502   0.00000  Uiso   1.00
C112   C     0.55473   0.64460   0.68197   0.00000  Uiso   1.00
C113   C     0.42267   0.50735   0.57944   0.00000  Uiso   1.00
C114   C     0.43232   0.40490   0.56904   0.00000  Uiso   1.00
C115   C     0.36529   0.33697   0.55667   0.00000  Uiso   1.00
H116   H     0.29414   0.68211   0.58884   0.00000  Uiso   1.00
H117   H     0.28299   0.84680   0.55257   0.00000  Uiso   1.00
H118   H     0.35437   0.70996   0.64971   0.00000  Uiso   1.00
H119   H     0.22439   0.49892   0.56374   0.00000  Uiso   1.00
H120   H     0.30326   0.01466   0.51319   0.00000  Uiso   1.00
H121   H     0.45376   0.72610   0.71803   0.00000  Uiso   1.00
H122   H     0.17969   0.28107   0.53674   0.00000  Uiso   1.00
H123   H     0.54553   0.56847   0.59525   0.00000  Uiso   1.00
H124   H     0.54817   0.72692   0.55933   0.00000  Uiso   1.00
H125   H     0.61955   0.59009   0.65648   0.00000  Uiso   1.00
H126   H     0.48958   0.37904   0.57050   0.00000  Uiso   1.00
H127   H     0.51850   0.91736   0.51868   0.00000  Uiso   1.00
H128   H     0.66900   0.62880   0.72352   0.00000  Uiso   1.00
H129   H     0.39492   0.18377   0.54223   0.00000  Uiso   1.00
O130   O     0.40809   0.07232   0.49220   0.00000  Uiso   1.00
O131   O     0.60554   0.69372   0.76093   0.00000  Uiso   1.00
O132   O     0.24596   0.10985   0.52309   0.00000  Uiso   1.00
N133   N     0.35355   0.97000   0.51941   0.00000  Uiso   1.00
N134   N     0.49426   0.70023   0.71092   0.00000  Uiso   1.00
N135   N     0.23803   0.28415   0.54144   0.00000  Uiso   1.00
N136   N     0.46936   0.91765   0.52236   0.00000  Uiso   1.00
N137   N     0.61007   0.64788   0.71387   0.00000  Uiso   1.00
N138   N     0.35384   0.23180   0.54439   0.00000  Uiso   1.00
C139   C     0.85173   0.15608   0.59031   0.00000  Uiso   1.00
C140   C     0.88053   0.22979   0.57149   0.00000  Uiso   1.00
C141   C     0.84023   0.32094   0.55402   0.00000  Uiso   1.00
C142   C     0.87658   0.37754   0.53849   0.00000  Uiso   1.00
C143   C     0.91006   0.49711   0.50899   0.00000  Uiso   1.00
C144   C     0.91932   0.15546   0.62427   0.00000  Uiso   1.00
C145   C     0.91162   0.18410   0.65118   0.00000  Uiso   1.00
C146   C     0.98062   0.17811   0.68008   0.00000  Uiso   1.00
C147   C     0.07430   0.18220   0.73253   0.00000  Uiso   1.00
C148   C     0.84869   0.04080   0.57756   0.00000  Uiso   1.00
C149   C     0.78163   0.97301   0.56520   0.00000  Uiso   1.00
C150   C     0.79117   0.87047   0.55478   0.00000  Uiso   1.00
C151   C     0.77520   0.69654   0.53469   0.00000  Uiso   1.00
C152   C     0.98793   0.09451   0.59378   0.00000  Uiso   1.00
C153   C     0.95451   0.19635   0.57338   0.00000  Uiso   1.00
C154   C     0.99092   0.25282   0.55786   0.00000  Uiso   1.00
C155   C     0.95069   0.34403   0.54038   0.00000  Uiso   1.00
C156   C     0.99329   0.12202   0.62616   0.00000  Uiso   1.00
C157   C     0.06231   0.11598   0.65502   0.00000  Uiso   1.00
C158   C     0.05473   0.14460   0.68197   0.00000  Uiso   1.00
C159   C     0.92267   0.00735   0.57944   0.00000  Uiso   1.00
C160   C     0.93232   0.90490   0.56904   0.00000  Uiso   1.00
C161   C     0.86529   0.83697   0.55667   0.00000  Uiso   1.00
H162   H     0.79414   0.18211   0.58884   0.00000  Uiso   1.00
H163   H     0.78299   0.34680   0.55257   0.00000  Uiso   1.00
H164   H     0.85437   0.20996   0.64971   0.00000  Uiso   1.00
H165   H     0.72439   0.99892   0.56374   0.00000  Uiso   1.00
H166   H     0.80326   0.51466   0.51319   0.00000  Uiso   1.00
H167   H     0.95376   0.22610   0.71803   0.00000  Uiso   1.00
H168   H     0.67969   0.78107   0.53674   0.00000  Uiso   1.00
H169   H     0.04553   0.06847   0.59525   0.00000  Uiso   1.00
H170   H     0.04817   0.22692   0.55933   0.00000  Uiso   1.00
H171   H     0.11955   0.09009   0.65648   0.00000  Uiso   1.00
H172   H     0.98958   0.87904   0.57050   0.00000  Uiso   1.00
H173   H     0.01850   0.41736   0.51868   0.00000  Uiso   1.00
H174   H     0.16900   0.12880   0.72352   0.00000  Uiso   1.00
H175   H     0.89492   0.68377   0.54223   0.00000  Uiso   1.00
O176   O     0.90809   0.57232   0.49220   0.00000  Uiso   1.00
O177   O     0.10554   0.19372   0.76093   0.00000  Uiso   1.00
O178   O     0.74596   0.60985   0.52309   0.00000  Uiso   1.00
N179   N     0.85355   0.47000   0.51941   0.00000  Uiso   1.00
N180   N     0.99426   0.20023   0.71092   0.00000  Uiso   1.00
N181   N     0.73803   0.78415   0.54144   0.00000  Uiso   1.00
N182   N     0.96936   0.41765   0.52236   0.00000  Uiso   1.00
N183   N     0.11007   0.14788   0.71387   0.00000  Uiso   1.00
N184   N     0.85384   0.73180   0.54439   0.00000  Uiso   1.00
C185   C     0.35173   0.34392   0.09031   0.00000  Uiso   1.00
C186   C     0.38053   0.27021   0.07149   0.00000  Uiso   1.00
C187   C     0.34023   0.17906   0.05402   0.00000  Uiso   1.00
C188   C     0.37658   0.12246   0.03849   0.00000  Uiso   1.00
C189   C     0.41006   0.00289   0.00899   0.00000  Uiso   1.00
C190   C     0.41932   0.34454   0.12427   0.00000  Uiso   1.00
C191   C     0.41162   0.31590   0.15118   0.00000  Uiso   1.00
C192   C     0.48062   0.32189   0.18008   0.00000  Uiso   1.00
C193   C     0.57430   0.31780   0.23253   0.00000  Uiso   1.00
C194   C     0.34869   0.45920   0.07756   0.00000  Uiso   1.00
C195   C     0.28163   0.52699   0.06520   0.00000  Uiso   1.00
C196   C     0.29117   0.62953   0.05478   0.00000  Uiso   1.00
C197   C     0.27520   0.80346   0.03469   0.00000  Uiso   1.00
C198   C     0.48793   0.40549   0.09378   0.00000  Uiso   1.00
C199   C     0.45451   0.30365   0.07338   0.00000  Uiso   1.00
C200   C     0.49092   0.24718   0.05786   0.00000  Uiso   1.00
C201   C     0.45069   0.15597   0.04038   0.00000  Uiso   1.00
C202   C     0.49329   0.37798   0.12616   0.00000  Uiso   1.00
C203   C     0.56231   0.38402   0.15502   0.00000  Uiso   1.00
C204   C     0.55473   0.35540   0.18197   0.00000  Uiso   1.00
C205   C     0.42267   0.49265   0.07944   0.00000  Uiso   1.00
C206   C     0.43232   0.59510   0.06904   0.00000  Uiso   1.00
C207   C     0.36529   0.66303   0.05667   0.00000  Uiso   1.00
H208   H     0.29414   0.31789   0.08884   0.00000  Uiso   1.00
H209   H     0.28299   0.15320   0.05257   0.00000  Uiso   1.00
H210   H     0.35437   0.29004   0.14971   0.00000  Uiso   1.00
H211   H     0.22439   0.50108   0.06374   0.00000  Uiso   1.00
H212   H     0.30326   0.98534   0.01319   0.00000  Uiso   1.00
H213   H     0.45376   0.27390   0.21803   0.00000  Uiso   1.00
H214   H     0.17969   0.71893   0.03674   0.00000  Uiso   1.00
H215   H     0.54553   0.43153   0.09525   0.00000  Uiso   1.00
H216   H     0.54817   0.27308   0.05933   0.00000  Uiso   1.00
H217   H     0.61955   0.40991   0.15648   0.00000  Uiso   1.00
H218   H     0.48958   0.62096   0.07050   0.00000  Uiso   1.00
H219   H     0.51850   0.08264   0.01868   0.00000  Uiso   1.00
H220   H     0.66900   0.37120   0.22352   0.00000  Uiso   1.00
H221   H     0.39492   0.81623   0.04223   0.00000  Uiso   1.00
O222   O     0.40809   0.92768   0.99220   0.00000  Uiso   1.00
O223   O     0.60554   0.30628   0.26093   0.00000  Uiso   1.00
O224   O     0.24596   0.89015   0.02309   0.00000  Uiso   1.00
N225   N     0.35355   0.03000   0.01941   0.00000  Uiso   1.00
N226   N     0.49426   0.29977   0.21092   0.00000  Uiso   1.00
N227   N     0.23803   0.71585   0.04144   0.00000  Uiso   1.00
N228   N     0.46936   0.08235   0.02236   0.00000  Uiso   1.00
N229   N     0.61007   0.35212   0.21387   0.00000  Uiso   1.00
N230   N     0.35384   0.76820   0.04439   0.00000  Uiso   1.00
C231   C     0.85173   0.84392   0.09031   0.00000  Uiso   1.00
C232   C     0.88053   0.77021   0.07149   0.00000  Uiso   1.00
C233   C     0.84023   0.67906   0.05402   0.00000  Uiso   1.00
C234   C     0.87658   0.62246   0.03849   0.00000  Uiso   1.00
C235   C     0.91006   0.50289   0.00899   0.00000  Uiso   1.00
C236   C     0.91932   0.84454   0.12427   0.00000  Uiso   1.00
C237   C     0.91162   0.81590   0.15118   0.00000  Uiso   1.00
C238   C     0.98062   0.82189   0.18008   0.00000  Uiso   1.00
C239   C     0.07430   0.81780   0.23253   0.00000  Uiso   1.00
C240   C     0.84869   0.95920   0.07756   0.00000  Uiso   1.00
C241   C     0.78163   0.02699   0.06520   0.00000  Uiso   1.00
C242   C     0.79117   0.12953   0.05478   0.00000  Uiso   1.00
C243   C     0.77520   0.30346   0.03469   0.00000  Uiso   1.00
C244   C     0.98793   0.90549   0.09378   0.00000  Uiso   1.00
C245   C     0.95451   0.80365   0.07338   0.00000  Uiso   1.00
C246   C     0.99092   0.74718   0.05786   0.00000  Uiso   1.00
C247   C     0.95069   0.65597   0.04038   0.00000  Uiso   1.00
C248   C     0.99329   0.87798   0.12616   0.00000  Uiso   1.00
C249   C     0.06231   0.88402   0.15502   0.00000  Uiso   1.00
C250   C     0.05473   0.85540   0.18197   0.00000  Uiso   1.00
C251   C     0.92267   0.99265   0.07944   0.00000  Uiso   1.00
C252   C     0.93232   0.09510   0.06904   0.00000  Uiso   1.00
C253   C     0.86529   0.16303   0.05667   0.00000  Uiso   1.00
H254   H     0.79414   0.81789   0.08884   0.00000  Uiso   1.00
H255   H     0.78299   0.65320   0.05257   0.00000  Uiso   1.00
H256   H     0.85437   0.79004   0.14971   0.00000  Uiso   1.00
H257   H     0.72439   0.00108   0.06374   0.00000  Uiso   1.00
H258   H     0.80326   0.48534   0.01319   0.00000  Uiso   1.00
H259   H     0.95376   0.77390   0.21803   0.00000  Uiso   1.00
H260   H     0.67969   0.21893   0.03674   0.00000  Uiso   1.00
H261   H     0.04553   0.93153   0.09525   0.00000  Uiso   1.00
H262   H     0.04817   0.77308   0.05933   0.00000  Uiso   1.00
H263   H     0.11955   0.90991   0.15648   0.00000  Uiso   1.00
H264   H     0.98958   0.12096   0.07050   0.00000  Uiso   1.00
H265   H     0.01850   0.58264   0.01868   0.00000  Uiso   1.00
H266   H     0.16900   0.87120   0.22352   0.00000  Uiso   1.00
H267   H     0.89492   0.31623   0.04223   0.00000  Uiso   1.00
O268   O     0.90809   0.42768   0.99220   0.00000  Uiso   1.00
O269   O     0.10554   0.80628   0.26093   0.00000  Uiso   1.00
O270   O     0.74596   0.39015   0.02309   0.00000  Uiso   1.00
N271   N     0.85355   0.53000   0.01941   0.00000  Uiso   1.00
N272   N     0.99426   0.79977   0.21092   0.00000  Uiso   1.00
N273   N     0.73803   0.21585   0.04144   0.00000  Uiso   1.00
N274   N     0.96936   0.58235   0.02236   0.00000  Uiso   1.00
N275   N     0.11007   0.85212   0.21387   0.00000  Uiso   1.00
N276   N     0.85384   0.26820   0.04439   0.00000  Uiso   1.00
C277   C     0.64827   0.34392   0.40969   0.00000  Uiso   1.00
C278   C     0.61947   0.27021   0.42851   0.00000  Uiso   1.00
C279   C     0.65977   0.17906   0.44598   0.00000  Uiso   1.00
C280   C     0.62342   0.12246   0.46151   0.00000  Uiso   1.00
C281   C     0.58994   0.00289   0.49101   0.00000  Uiso   1.00
C282   C     0.58068   0.34454   0.37573   0.00000  Uiso   1.00
C283   C     0.58838   0.31590   0.34882   0.00000  Uiso   1.00
C284   C     0.51938   0.32189   0.31992   0.00000  Uiso   1.00
C285   C     0.42570   0.31780   0.26747   0.00000  Uiso   1.00
C286   C     0.65131   0.45920   0.42244   0.00000  Uiso   1.00
C287   C     0.71837   0.52699   0.43480   0.00000  Uiso   1.00
C288   C     0.70883   0.62953   0.44522   0.00000  Uiso   1.00
C289   C     0.72480   0.80346   0.46531   0.00000  Uiso   1.00
C290   C     0.51207   0.40549   0.40622   0.00000  Uiso   1.00
C291   C     0.54549   0.30365   0.42662   0.00000  Uiso   1.00
C292   C     0.50908   0.24718   0.44214   0.00000  Uiso   1.00
C293   C     0.54931   0.15597   0.45962   0.00000  Uiso   1.00
C294   C     0.50671   0.37798   0.37384   0.00000  Uiso   1.00
C295   C     0.43769   0.38402   0.34498   0.00000  Uiso   1.00
C296   C     0.44527   0.35540   0.31803   0.00000  Uiso   1.00
C297   C     0.57733   0.49265   0.42056   0.00000  Uiso   1.00
C298   C     0.56768   0.59510   0.43096   0.00000  Uiso   1.00
C299   C     0.63471   0.66303   0.44333   0.00000  Uiso   1.00
H300   H     0.70586   0.31789   0.41116   0.00000  Uiso   1.00
H301   H     0.71701   0.15320   0.44743   0.00000  Uiso   1.00
H302   H     0.64563   0.29004   0.35029   0.00000  Uiso   1.00
H303   H     0.77561   0.50108   0.43626   0.00000  Uiso   1.00
H304   H     0.69674   0.98534   0.48681   0.00000  Uiso   1.00
H305   H     0.54624   0.27390   0.28197   0.00000  Uiso   1.00
H306   H     0.82031   0.71893   0.46326   0.00000  Uiso   1.00
H307   H     0.45447   0.43153   0.40475   0.00000  Uiso   1.00
H308   H     0.45183   0.27308   0.44067   0.00000  Uiso   1.00
H309   H     0.38045   0.40991   0.34352   0.00000  Uiso   1.00
H310   H     0.51042   0.62096   0.42950   0.00000  Uiso   1.00
H311   H     0.48150   0.08264   0.48132   0.00000  Uiso   1.00
H312   H     0.33100   0.37120   0.27648   0.00000  Uiso   1.00
H313   H     0.60508   0.81623   0.45777   0.00000  Uiso   1.00
O314   O     0.59191   0.92768   0.50780   0.00000  Uiso   1.00
O315   O     0.39446   0.30628   0.23907   0.00000  Uiso   1.00
O316   O     0.75404   0.89015   0.47691   0.00000  Uiso   1.00
N317   N     0.64645   0.03000   0.48059   0.00000  Uiso   1.00
N318   N     0.50574   0.29977   0.28908   0.00000  Uiso   1.00
N319   N     0.76197   0.71585   0.45856   0.00000  Uiso   1.00
N320   N     0.53064   0.08235   0.47764   0.00000  Uiso   1.00
N321   N     0.38993   0.35212   0.28613   0.00000  Uiso   1.00
N322   N     0.64616   0.76820   0.45561   0.00000  Uiso   1.00
C323   C     0.14827   0.84392   0.40969   0.00000  Uiso   1.00
C324   C     0.11947   0.77021   0.42851   0.00000  Uiso   1.00
C325   C     0.15977   0.67906   0.44598   0.00000  Uiso   1.00
C326   C     0.12342   0.62246   0.46151   0.00000  Uiso   1.00
C327   C     0.08994   0.50289   0.49101   0.00000  Uiso   1.00
C328   C     0.08068   0.84454   0.37573   0.00000  Uiso   1.00
C329   C     0.08838   0.81590   0.34882   0.00000  Uiso   1.00
C330   C     0.01938   0.82189   0.31992   0.00000  Uiso   1.00
C331   C     0.92570   0.81780   0.26747   0.00000  Uiso   1.00
C332   C     0.15131   0.95920   0.42244   0.00000  Uiso   1.00
C333   C     0.21837   0.02699   0.43480   0.00000  Uiso   1.00
C334   C     0.20883   0.12953   0.44522   0.00000  Uiso   1.00
C335   C     0.22480   0.30346   0.46531   0.00000  Uiso   1.00
C336   C     0.01207   0.90549   0.40622   0.00000  Uiso   1.00
C337   C     0.04549   0.80365   0.42662   0.00000  Uiso   1.00
C338   C     0.00908   0.74718   0.44214   0.00000  Uiso   1.00
C339   C     0.04931   0.65597   0.45962   0.00000  Uiso   1.00
C340   C     0.00671   0.87798   0.37384   0.00000  Uiso   1.00
C341   C     0.93769   0.88402   0.34498   0.00000  Uiso   1.00
C342   C     0.94527   0.85540   0.31803   0.00000  Uiso   1.00
C343   C     0.07733   0.99265   0.42056   0.00000  Uiso   1.00
C344   C     0.06768   0.09510   0.43096   0.00000  Uiso   1.00
C345   C     0.13471   0.16303   0.44333   0.00000  Uiso   1.00
H346   H     0.20586   0.81789   0.41116   0.00000  Uiso   1.00
H347   H     0.21701   0.65320   0.44743   0.00000  Uiso   1.00
H348   H     0.14563   0.79004   0.35029   0.00000  Uiso   1.00
H349   H     0.27561   0.00108   0.43626   0.00000  Uiso   1.00
H350   H     0.19674   0.48534   0.48681   0.00000  Uiso   1.00
H351   H     0.04624   0.77390   0.28197   0.00000  Uiso   1.00
H352   H     0.32031   0.21893   0.46326   0.00000  Uiso   1.00
H353   H     0.95447   0.93153   0.40475   0.00000  Uiso   1.00
H354   H     0.95183   0.77308   0.44067   0.00000  Uiso   1.00
H355   H     0.88045   0.90991   0.34352   0.00000  Uiso   1.00
H356   H     0.01042   0.12096   0.42950   0.00000  Uiso   1.00
H357   H     0.98150   0.58264   0.48132   0.00000  Uiso   1.00
H358   H     0.83100   0.87120   0.27648   0.00000  Uiso   1.00
H359   H     0.10508   0.31623   0.45777   0.00000  Uiso   1.00
O360   O     0.09191   0.42768   0.50780   0.00000  Uiso   1.00
O361   O     0.89446   0.80628   0.23907   0.00000  Uiso   1.00
O362   O     0.25404   0.39015   0.47691   0.00000  Uiso   1.00
N363   N     0.14645   0.53000   0.48059   0.00000  Uiso   1.00
N364   N     0.00574   0.79977   0.28908   0.00000  Uiso   1.00
N365   N     0.26197   0.21585   0.45856   0.00000  Uiso   1.00
N366   N     0.03064   0.58235   0.47764   0.00000  Uiso   1.00
N367   N     0.88993   0.85212   0.28613   0.00000  Uiso   1.00
N368   N     0.14616   0.26820   0.45561   0.00000  Uiso   1.00
