data_job_00908
_audit_creation_date              2018-12-19
_audit_creation_method            'Materials Studio'
_symmetry_space_group_name_H-M    'P1'
_symmetry_Int_Tables_number       1
_symmetry_cell_setting            triclinic
loop_
_symmetry_equiv_pos_as_xyz
  x,y,z
_cell_length_a                    19.0062
_cell_length_b                    15.0257
_cell_length_c                    14.6593
_cell_angle_alpha                 90.0000
_cell_angle_beta                  149.2702
_cell_angle_gamma                 90.0000
loop_
_atom_site_label
_atom_site_type_symbol
_atom_site_fract_x
_atom_site_fract_y
_atom_site_fract_z
_atom_site_U_iso_or_equiv
_atom_site_adp_type
_atom_site_occupancy
C1     C     0.16949   0.21004   0.10955   0.00000  Uiso   1.00
C2     C     0.19553   0.15076   0.05591   0.00000  Uiso   1.00
C3     C     0.29298   0.08342   0.15915   0.00000  Uiso   1.00
C4     C     0.30076   0.03681   0.08620   0.00000  Uiso   1.00
C5     C     0.35441   0.94174   0.02882   0.00000  Uiso   1.00
C6     C     0.18624   0.30552   0.09475   0.00000  Uiso   1.00
C7     C     0.27588   0.36830   0.23065   0.00000  Uiso   1.00
C8     C     0.27582   0.45197   0.19037   0.00000  Uiso   1.00
C9     C     0.31498   0.59718   0.19326   0.00000  Uiso   1.00
C10    C     0.01741   0.19918   0.96339   0.00000  Uiso   1.00
C11    C     0.96508   0.17257   0.98883   0.00000  Uiso   1.00
C12    C     0.82286   0.16672   0.83797   0.00000  Uiso   1.00
C13    C     0.59989   0.14683   0.63690   0.00000  Uiso   1.00
C14    C     0.00999   0.24701   0.79639   0.00000  Uiso   1.00
C15    C     0.10889   0.17084   0.88581   0.00000  Uiso   1.00
C16    C     0.11651   0.12432   0.81268   0.00000  Uiso   1.00
C17    C     0.21396   0.05692   0.91580   0.00000  Uiso   1.00
C18    C     0.09961   0.32560   0.92466   0.00000  Uiso   1.00
C19    C     0.09941   0.40920   0.88417   0.00000  Uiso   1.00
C20    C     0.18903   0.47208   0.01997   0.00000  Uiso   1.00
C21    C     0.93077   0.21926   0.79329   0.00000  Uiso   1.00
C22    C     0.78861   0.21346   0.64236   0.00000  Uiso   1.00
C23    C     0.73607   0.18684   0.66756   0.00000  Uiso   1.00
H24    H     0.23694   0.19441   0.24197   0.00000  Uiso   1.00
H25    H     0.36002   0.06791   0.29079   0.00000  Uiso   1.00
H26    H     0.34290   0.35274   0.36226   0.00000  Uiso   1.00
H27    H     0.03215   0.15704   0.12048   0.00000  Uiso   1.00
H28    H     0.45830   0.93652   0.26992   0.00000  Uiso   1.00
H29    H     0.42218   0.53713   0.42060   0.00000  Uiso   1.00
H30    H     0.76690   0.12445   0.91077   0.00000  Uiso   1.00
H31    H     0.94253   0.26264   0.66396   0.00000  Uiso   1.00
H32    H     0.04945   0.13987   0.68105   0.00000  Uiso   1.00
H33    H     0.03234   0.42471   0.75253   0.00000  Uiso   1.00
H34    H     0.72160   0.22900   0.51075   0.00000  Uiso   1.00
H35    H     0.20624   0.99494   0.77504   0.00000  Uiso   1.00
H36    H     0.17011   0.59555   0.92572   0.00000  Uiso   1.00
H37    H     0.51484   0.18286   0.41589   0.00000  Uiso   1.00
O38    O     0.40795   0.88376   0.04418   0.00000  Uiso   1.00
O39    O     0.36054   0.67173   0.24186   0.00000  Uiso   1.00
O40    O     0.50084   0.13029   0.57297   0.00000  Uiso   1.00
N41    N     0.38429   0.96711   0.15109   0.00000  Uiso   1.00
N42    N     0.35053   0.52863   0.29198   0.00000  Uiso   1.00
N43    N     0.73790   0.14283   0.81533   0.00000  Uiso   1.00
N44    N     0.24865   0.99854   0.88480   0.00000  Uiso   1.00
N45    N     0.21490   0.56006   0.02569   0.00000  Uiso   1.00
N46    N     0.60227   0.17426   0.54904   0.00000  Uiso   1.00
C47    C     0.83051   0.71004   0.39045   0.00000  Uiso   1.00
C48    C     0.80447   0.65076   0.44409   0.00000  Uiso   1.00
C49    C     0.70702   0.58342   0.34085   0.00000  Uiso   1.00
C50    C     0.69924   0.53681   0.41380   0.00000  Uiso   1.00
C51    C     0.64559   0.44174   0.47118   0.00000  Uiso   1.00
C52    C     0.81376   0.80552   0.40525   0.00000  Uiso   1.00
C53    C     0.72412   0.86830   0.26935   0.00000  Uiso   1.00
C54    C     0.72418   0.95197   0.30963   0.00000  Uiso   1.00
C55    C     0.68502   0.09718   0.30674   0.00000  Uiso   1.00
C56    C     0.98259   0.69918   0.53661   0.00000  Uiso   1.00
C57    C     0.03492   0.67257   0.51117   0.00000  Uiso   1.00
C58    C     0.17714   0.66672   0.66203   0.00000  Uiso   1.00
C59    C     0.40011   0.64683   0.86310   0.00000  Uiso   1.00
C60    C     0.99001   0.74701   0.70361   0.00000  Uiso   1.00
C61    C     0.89111   0.67084   0.61419   0.00000  Uiso   1.00
C62    C     0.88349   0.62432   0.68732   0.00000  Uiso   1.00
C63    C     0.78604   0.55692   0.58420   0.00000  Uiso   1.00
C64    C     0.90039   0.82560   0.57534   0.00000  Uiso   1.00
C65    C     0.90059   0.90920   0.61583   0.00000  Uiso   1.00
C66    C     0.81097   0.97208   0.48003   0.00000  Uiso   1.00
C67    C     0.06923   0.71926   0.70671   0.00000  Uiso   1.00
C68    C     0.21139   0.71346   0.85764   0.00000  Uiso   1.00
C69    C     0.26393   0.68684   0.83244   0.00000  Uiso   1.00
H70    H     0.76306   0.69441   0.25803   0.00000  Uiso   1.00
H71    H     0.63998   0.56791   0.20921   0.00000  Uiso   1.00
H72    H     0.65710   0.85274   0.13774   0.00000  Uiso   1.00
H73    H     0.96785   0.65704   0.37952   0.00000  Uiso   1.00
H74    H     0.54170   0.43652   0.23008   0.00000  Uiso   1.00
H75    H     0.57782   0.03713   0.07940   0.00000  Uiso   1.00
H76    H     0.23310   0.62445   0.58923   0.00000  Uiso   1.00
H77    H     0.05747   0.76264   0.83604   0.00000  Uiso   1.00
H78    H     0.95055   0.63987   0.81895   0.00000  Uiso   1.00
H79    H     0.96766   0.92471   0.74747   0.00000  Uiso   1.00
H80    H     0.27840   0.72900   0.98925   0.00000  Uiso   1.00
H81    H     0.79376   0.49494   0.72496   0.00000  Uiso   1.00
H82    H     0.82989   0.09555   0.57428   0.00000  Uiso   1.00
H83    H     0.48516   0.68286   0.08411   0.00000  Uiso   1.00
O84    O     0.59205   0.38376   0.45582   0.00000  Uiso   1.00
O85    O     0.63946   0.17173   0.25814   0.00000  Uiso   1.00
O86    O     0.49916   0.63029   0.92703   0.00000  Uiso   1.00
N87    N     0.61571   0.46711   0.34891   0.00000  Uiso   1.00
N88    N     0.64947   0.02863   0.20802   0.00000  Uiso   1.00
N89    N     0.26210   0.64283   0.68467   0.00000  Uiso   1.00
N90    N     0.75135   0.49854   0.61520   0.00000  Uiso   1.00
N91    N     0.78510   0.06006   0.47431   0.00000  Uiso   1.00
N92    N     0.39773   0.67426   0.95096   0.00000  Uiso   1.00
C93    C     0.83051   0.78996   0.89045   0.00000  Uiso   1.00
C94    C     0.80447   0.84924   0.94409   0.00000  Uiso   1.00
C95    C     0.70702   0.91658   0.84085   0.00000  Uiso   1.00
C96    C     0.69924   0.96319   0.91380   0.00000  Uiso   1.00
C97    C     0.64559   0.05826   0.97118   0.00000  Uiso   1.00
C98    C     0.81376   0.69448   0.90525   0.00000  Uiso   1.00
C99    C     0.72412   0.63170   0.76935   0.00000  Uiso   1.00
C100   C     0.72418   0.54803   0.80963   0.00000  Uiso   1.00
C101   C     0.68502   0.40282   0.80674   0.00000  Uiso   1.00
C102   C     0.98259   0.80082   0.03661   0.00000  Uiso   1.00
C103   C     0.03492   0.82743   0.01117   0.00000  Uiso   1.00
C104   C     0.17714   0.83328   0.16203   0.00000  Uiso   1.00
C105   C     0.40011   0.85317   0.36310   0.00000  Uiso   1.00
C106   C     0.99001   0.75299   0.20361   0.00000  Uiso   1.00
C107   C     0.89111   0.82916   0.11419   0.00000  Uiso   1.00
C108   C     0.88349   0.87568   0.18732   0.00000  Uiso   1.00
C109   C     0.78604   0.94308   0.08420   0.00000  Uiso   1.00
C110   C     0.90039   0.67440   0.07534   0.00000  Uiso   1.00
C111   C     0.90059   0.59080   0.11583   0.00000  Uiso   1.00
C112   C     0.81097   0.52792   0.98003   0.00000  Uiso   1.00
C113   C     0.06923   0.78074   0.20671   0.00000  Uiso   1.00
C114   C     0.21139   0.78654   0.35764   0.00000  Uiso   1.00
C115   C     0.26393   0.81316   0.33244   0.00000  Uiso   1.00
H116   H     0.76306   0.80559   0.75803   0.00000  Uiso   1.00
H117   H     0.63998   0.93209   0.70921   0.00000  Uiso   1.00
H118   H     0.65710   0.64726   0.63774   0.00000  Uiso   1.00
H119   H     0.96785   0.84296   0.87952   0.00000  Uiso   1.00
H120   H     0.54170   0.06348   0.73008   0.00000  Uiso   1.00
H121   H     0.57782   0.46287   0.57940   0.00000  Uiso   1.00
H122   H     0.23310   0.87555   0.08923   0.00000  Uiso   1.00
H123   H     0.05747   0.73736   0.33604   0.00000  Uiso   1.00
H124   H     0.95055   0.86013   0.31895   0.00000  Uiso   1.00
H125   H     0.96766   0.57529   0.24747   0.00000  Uiso   1.00
H126   H     0.27840   0.77100   0.48925   0.00000  Uiso   1.00
H127   H     0.79376   0.00506   0.22496   0.00000  Uiso   1.00
H128   H     0.82989   0.40445   0.07428   0.00000  Uiso   1.00
H129   H     0.48516   0.81714   0.58411   0.00000  Uiso   1.00
O130   O     0.59205   0.11624   0.95582   0.00000  Uiso   1.00
O131   O     0.63946   0.32827   0.75814   0.00000  Uiso   1.00
O132   O     0.49916   0.86971   0.42703   0.00000  Uiso   1.00
N133   N     0.61571   0.03289   0.84891   0.00000  Uiso   1.00
N134   N     0.64947   0.47137   0.70802   0.00000  Uiso   1.00
N135   N     0.26210   0.85717   0.18467   0.00000  Uiso   1.00
N136   N     0.75135   0.00146   0.11520   0.00000  Uiso   1.00
N137   N     0.78510   0.43994   0.97431   0.00000  Uiso   1.00
N138   N     0.39773   0.82574   0.45096   0.00000  Uiso   1.00
C139   C     0.16949   0.28996   0.60955   0.00000  Uiso   1.00
C140   C     0.19553   0.34924   0.55591   0.00000  Uiso   1.00
C141   C     0.29298   0.41658   0.65915   0.00000  Uiso   1.00
C142   C     0.30076   0.46319   0.58620   0.00000  Uiso   1.00
C143   C     0.35441   0.55826   0.52882   0.00000  Uiso   1.00
C144   C     0.18624   0.19448   0.59475   0.00000  Uiso   1.00
C145   C     0.27588   0.13170   0.73065   0.00000  Uiso   1.00
C146   C     0.27582   0.04803   0.69037   0.00000  Uiso   1.00
C147   C     0.31498   0.90282   0.69326   0.00000  Uiso   1.00
C148   C     0.01741   0.30082   0.46339   0.00000  Uiso   1.00
C149   C     0.96508   0.32743   0.48883   0.00000  Uiso   1.00
C150   C     0.82286   0.33328   0.33797   0.00000  Uiso   1.00
C151   C     0.59989   0.35317   0.13690   0.00000  Uiso   1.00
C152   C     0.00999   0.25299   0.29639   0.00000  Uiso   1.00
C153   C     0.10889   0.32916   0.38581   0.00000  Uiso   1.00
C154   C     0.11651   0.37568   0.31268   0.00000  Uiso   1.00
C155   C     0.21396   0.44308   0.41580   0.00000  Uiso   1.00
C156   C     0.09961   0.17440   0.42466   0.00000  Uiso   1.00
C157   C     0.09941   0.09080   0.38417   0.00000  Uiso   1.00
C158   C     0.18903   0.02792   0.51997   0.00000  Uiso   1.00
C159   C     0.93077   0.28074   0.29329   0.00000  Uiso   1.00
C160   C     0.78861   0.28654   0.14236   0.00000  Uiso   1.00
C161   C     0.73607   0.31316   0.16756   0.00000  Uiso   1.00
H162   H     0.23694   0.30559   0.74197   0.00000  Uiso   1.00
H163   H     0.36002   0.43209   0.79079   0.00000  Uiso   1.00
H164   H     0.34290   0.14726   0.86226   0.00000  Uiso   1.00
H165   H     0.03215   0.34296   0.62048   0.00000  Uiso   1.00
H166   H     0.45830   0.56348   0.76992   0.00000  Uiso   1.00
H167   H     0.42218   0.96287   0.92060   0.00000  Uiso   1.00
H168   H     0.76690   0.37555   0.41077   0.00000  Uiso   1.00
H169   H     0.94253   0.23736   0.16396   0.00000  Uiso   1.00
H170   H     0.04945   0.36013   0.18105   0.00000  Uiso   1.00
H171   H     0.03234   0.07529   0.25253   0.00000  Uiso   1.00
H172   H     0.72160   0.27100   0.01075   0.00000  Uiso   1.00
H173   H     0.20624   0.50506   0.27504   0.00000  Uiso   1.00
H174   H     0.17011   0.90445   0.42572   0.00000  Uiso   1.00
H175   H     0.51484   0.31714   0.91589   0.00000  Uiso   1.00
O176   O     0.40795   0.61624   0.54418   0.00000  Uiso   1.00
O177   O     0.36054   0.82827   0.74186   0.00000  Uiso   1.00
O178   O     0.50084   0.36971   0.07297   0.00000  Uiso   1.00
N179   N     0.38429   0.53289   0.65109   0.00000  Uiso   1.00
N180   N     0.35053   0.97137   0.79198   0.00000  Uiso   1.00
N181   N     0.73790   0.35717   0.31533   0.00000  Uiso   1.00
N182   N     0.24865   0.50146   0.38480   0.00000  Uiso   1.00
N183   N     0.21490   0.93994   0.52569   0.00000  Uiso   1.00
N184   N     0.60227   0.32574   0.04904   0.00000  Uiso   1.00
