data_job_02262
_audit_creation_date              2018-12-19
_audit_creation_method            'Materials Studio'
_symmetry_space_group_name_H-M    'P1'
_symmetry_Int_Tables_number       1
_symmetry_cell_setting            triclinic
loop_
_symmetry_equiv_pos_as_xyz
  x,y,z
_cell_length_a                    25.9301
_cell_length_b                    26.8594
_cell_length_c                    10.8107
_cell_angle_alpha                 90.0000
_cell_angle_beta                  110.7320
_cell_angle_gamma                 90.0000
loop_
_atom_site_label
_atom_site_type_symbol
_atom_site_fract_x
_atom_site_fract_y
_atom_site_fract_z
_atom_site_U_iso_or_equiv
_atom_site_adp_type
_atom_site_occupancy
C1     C     0.75066   0.95421   0.55119   0.00000  Uiso   1.00
C2     C     0.69806   0.96829   0.43759   0.00000  Uiso   1.00
C3     C     0.66535   0.00955   0.43400   0.00000  Uiso   1.00
C4     C     0.61890   0.01588   0.32114   0.00000  Uiso   1.00
C5     C     0.53923   0.04286   0.16081   0.00000  Uiso   1.00
C6     C     0.74157   0.90148   0.59161   0.00000  Uiso   1.00
C7     C     0.74546   0.88657   0.71752   0.00000  Uiso   1.00
C8     C     0.73565   0.83666   0.73431   0.00000  Uiso   1.00
C9     C     0.72358   0.75990   0.81311   0.00000  Uiso   1.00
C10    C     0.79567   0.95029   0.49140   0.00000  Uiso   1.00
C11    C     0.84505   0.97640   0.53308   0.00000  Uiso   1.00
C12    C     0.88079   0.96757   0.46552   0.00000  Uiso   1.00
C13    C     0.95270   0.96660   0.38874   0.00000  Uiso   1.00
C14    C     0.72634   0.89207   0.35714   0.00000  Uiso   1.00
C15    C     0.68485   0.93454   0.33219   0.00000  Uiso   1.00
C16    C     0.63844   0.94080   0.21930   0.00000  Uiso   1.00
C17    C     0.60567   0.98207   0.21555   0.00000  Uiso   1.00
C18    C     0.72836   0.86773   0.48621   0.00000  Uiso   1.00
C19    C     0.71855   0.81782   0.50282   0.00000  Uiso   1.00
C20    C     0.72242   0.80284   0.62872   0.00000  Uiso   1.00
C21    C     0.78246   0.91653   0.38600   0.00000  Uiso   1.00
C22    C     0.81813   0.90766   0.31837   0.00000  Uiso   1.00
C23    C     0.86755   0.93376   0.35993   0.00000  Uiso   1.00
H24    H     0.76094   0.98049   0.63326   0.00000  Uiso   1.00
H25    H     0.67558   0.03566   0.51560   0.00000  Uiso   1.00
H26    H     0.75569   0.91270   0.79907   0.00000  Uiso   1.00
H27    H     0.85525   0.00252   0.61465   0.00000  Uiso   1.00
H28    H     0.57511   0.08194   0.33869   0.00000  Uiso   1.00
H29    H     0.74404   0.82266   0.93641   0.00000  Uiso   1.00
H30    H     0.95399   0.01206   0.54753   0.00000  Uiso   1.00
H31    H     0.71605   0.86579   0.27508   0.00000  Uiso   1.00
H32    H     0.62823   0.91468   0.13775   0.00000  Uiso   1.00
H33    H     0.70833   0.79171   0.42123   0.00000  Uiso   1.00
H34    H     0.80790   0.88153   0.23681   0.00000  Uiso   1.00
H35    H     0.53668   0.98374   0.03202   0.00000  Uiso   1.00
H36    H     0.70560   0.72446   0.62975   0.00000  Uiso   1.00
H37    H     0.91556   0.91387   0.24087   0.00000  Uiso   1.00
O38    O     0.49893   0.06706   0.10150   0.00000  Uiso   1.00
O39    O     0.72056   0.72689   0.88570   0.00000  Uiso   1.00
O40    O     0.99601   0.97539   0.37550   0.00000  Uiso   1.00
N41    N     0.57813   0.05212   0.28535   0.00000  Uiso   1.00
N42    N     0.73605   0.80972   0.84418   0.00000  Uiso   1.00
N43    N     0.93235   0.98678   0.48063   0.00000  Uiso   1.00
N44    N     0.55745   0.99929   0.12033   0.00000  Uiso   1.00
N45    N     0.71537   0.75688   0.67916   0.00000  Uiso   1.00
N46    N     0.91167   0.93394   0.31562   0.00000  Uiso   1.00
C47    C     0.24658   0.92720   0.94555   0.00000  Uiso   1.00
C48    C     0.29828   0.94295   0.05957   0.00000  Uiso   1.00
C49    C     0.32942   0.98526   0.06262   0.00000  Uiso   1.00
C50    C     0.37525   0.99307   0.17600   0.00000  Uiso   1.00
C51    C     0.45339   0.02259   0.33683   0.00000  Uiso   1.00
C52    C     0.25798   0.87481   0.90723   0.00000  Uiso   1.00
C53    C     0.25523   0.85983   0.78218   0.00000  Uiso   1.00
C54    C     0.26714   0.81028   0.76732   0.00000  Uiso   1.00
C55    C     0.28267   0.73401   0.69161   0.00000  Uiso   1.00
C56    C     0.20133   0.92177   0.00412   0.00000  Uiso   1.00
C57    C     0.15094   0.94626   0.96053   0.00000  Uiso   1.00
C58    C     0.11514   0.93622   0.02723   0.00000  Uiso   1.00
C59    C     0.04272   0.93285   0.10196   0.00000  Uiso   1.00
C60    C     0.27261   0.86582   0.14149   0.00000  Uiso   1.00
C61    C     0.31241   0.90961   0.16600   0.00000  Uiso   1.00
C62    C     0.35821   0.91736   0.27941   0.00000  Uiso   1.00
C63    C     0.38941   0.95968   0.28262   0.00000  Uiso   1.00
C64    C     0.27212   0.84148   0.01365   0.00000  Uiso   1.00
C65    C     0.28403   0.79193   0.99897   0.00000  Uiso   1.00
C66    C     0.28130   0.77688   0.87394   0.00000  Uiso   1.00
C67    C     0.21546   0.88843   0.11055   0.00000  Uiso   1.00
C68    C     0.17974   0.87836   0.17732   0.00000  Uiso   1.00
C69    C     0.12930   0.90283   0.13385   0.00000  Uiso   1.00
H70    H     0.23558   0.95315   0.86269   0.00000  Uiso   1.00
H71    H     0.31847   0.01105   0.98023   0.00000  Uiso   1.00
H72    H     0.24429   0.88564   0.69984   0.00000  Uiso   1.00
H73    H     0.14001   0.97205   0.87817   0.00000  Uiso   1.00
H74    H     0.41661   0.06054   0.15747   0.00000  Uiso   1.00
H75    H     0.26018   0.79610   0.56623   0.00000  Uiso   1.00
H76    H     0.04030   0.97831   0.94227   0.00000  Uiso   1.00
H77    H     0.28361   0.83987   0.22435   0.00000  Uiso   1.00
H78    H     0.36914   0.89156   0.36175   0.00000  Uiso   1.00
H79    H     0.29496   0.76615   0.08135   0.00000  Uiso   1.00
H80    H     0.19069   0.85256   0.25968   0.00000  Uiso   1.00
H81    H     0.45774   0.96355   0.46712   0.00000  Uiso   1.00
H82    H     0.30131   0.69911   0.87587   0.00000  Uiso   1.00
H83    H     0.08143   0.88132   0.25191   0.00000  Uiso   1.00
O84    O     0.49258   0.04808   0.39613   0.00000  Uiso   1.00
O85    O     0.28734   0.70115   0.62044   0.00000  Uiso   1.00
O86    O     0.99886   0.94021   0.11380   0.00000  Uiso   1.00
N87    N     0.41455   0.03062   0.21150   0.00000  Uiso   1.00
N88    N     0.26830   0.78339   0.65873   0.00000  Uiso   1.00
N89    N     0.06273   0.95373   0.01027   0.00000  Uiso   1.00
N90    N     0.43668   0.97844   0.37812   0.00000  Uiso   1.00
N91    N     0.29044   0.73120   0.82535   0.00000  Uiso   1.00
N92    N     0.08486   0.90155   0.17689   0.00000  Uiso   1.00
C93    C     0.25066   0.45421   0.55119   0.00000  Uiso   1.00
C94    C     0.19806   0.46829   0.43759   0.00000  Uiso   1.00
C95    C     0.16535   0.50955   0.43400   0.00000  Uiso   1.00
C96    C     0.11890   0.51588   0.32114   0.00000  Uiso   1.00
C97    C     0.03923   0.54286   0.16081   0.00000  Uiso   1.00
C98    C     0.24157   0.40148   0.59161   0.00000  Uiso   1.00
C99    C     0.24546   0.38657   0.71752   0.00000  Uiso   1.00
C100   C     0.23565   0.33666   0.73431   0.00000  Uiso   1.00
C101   C     0.22358   0.25990   0.81311   0.00000  Uiso   1.00
C102   C     0.29567   0.45029   0.49140   0.00000  Uiso   1.00
C103   C     0.34505   0.47640   0.53308   0.00000  Uiso   1.00
C104   C     0.38079   0.46757   0.46552   0.00000  Uiso   1.00
C105   C     0.45270   0.46660   0.38874   0.00000  Uiso   1.00
C106   C     0.22634   0.39207   0.35714   0.00000  Uiso   1.00
C107   C     0.18485   0.43454   0.33219   0.00000  Uiso   1.00
C108   C     0.13844   0.44080   0.21930   0.00000  Uiso   1.00
C109   C     0.10567   0.48207   0.21555   0.00000  Uiso   1.00
C110   C     0.22836   0.36773   0.48621   0.00000  Uiso   1.00
C111   C     0.21855   0.31782   0.50282   0.00000  Uiso   1.00
C112   C     0.22242   0.30284   0.62872   0.00000  Uiso   1.00
C113   C     0.28246   0.41653   0.38600   0.00000  Uiso   1.00
C114   C     0.31813   0.40766   0.31837   0.00000  Uiso   1.00
C115   C     0.36755   0.43376   0.35993   0.00000  Uiso   1.00
H116   H     0.26094   0.48049   0.63326   0.00000  Uiso   1.00
H117   H     0.17558   0.53566   0.51560   0.00000  Uiso   1.00
H118   H     0.25569   0.41270   0.79907   0.00000  Uiso   1.00
H119   H     0.35525   0.50252   0.61465   0.00000  Uiso   1.00
H120   H     0.07511   0.58194   0.33869   0.00000  Uiso   1.00
H121   H     0.24404   0.32266   0.93641   0.00000  Uiso   1.00
H122   H     0.45399   0.51206   0.54753   0.00000  Uiso   1.00
H123   H     0.21605   0.36579   0.27508   0.00000  Uiso   1.00
H124   H     0.12823   0.41468   0.13775   0.00000  Uiso   1.00
H125   H     0.20833   0.29171   0.42123   0.00000  Uiso   1.00
H126   H     0.30790   0.38153   0.23681   0.00000  Uiso   1.00
H127   H     0.03668   0.48374   0.03202   0.00000  Uiso   1.00
H128   H     0.20560   0.22446   0.62975   0.00000  Uiso   1.00
H129   H     0.41556   0.41387   0.24087   0.00000  Uiso   1.00
O130   O     0.99893   0.56706   0.10150   0.00000  Uiso   1.00
O131   O     0.22056   0.22689   0.88570   0.00000  Uiso   1.00
O132   O     0.49601   0.47539   0.37550   0.00000  Uiso   1.00
N133   N     0.07813   0.55212   0.28535   0.00000  Uiso   1.00
N134   N     0.23605   0.30972   0.84418   0.00000  Uiso   1.00
N135   N     0.43235   0.48678   0.48063   0.00000  Uiso   1.00
N136   N     0.05745   0.49929   0.12033   0.00000  Uiso   1.00
N137   N     0.21537   0.25688   0.67916   0.00000  Uiso   1.00
N138   N     0.41167   0.43394   0.31562   0.00000  Uiso   1.00
C139   C     0.74658   0.42720   0.94555   0.00000  Uiso   1.00
C140   C     0.79828   0.44295   0.05957   0.00000  Uiso   1.00
C141   C     0.82942   0.48526   0.06262   0.00000  Uiso   1.00
C142   C     0.87525   0.49307   0.17600   0.00000  Uiso   1.00
C143   C     0.95339   0.52259   0.33683   0.00000  Uiso   1.00
C144   C     0.75798   0.37481   0.90723   0.00000  Uiso   1.00
C145   C     0.75523   0.35983   0.78218   0.00000  Uiso   1.00
C146   C     0.76714   0.31028   0.76732   0.00000  Uiso   1.00
C147   C     0.78267   0.23401   0.69161   0.00000  Uiso   1.00
C148   C     0.70133   0.42177   0.00412   0.00000  Uiso   1.00
C149   C     0.65094   0.44626   0.96053   0.00000  Uiso   1.00
C150   C     0.61514   0.43622   0.02723   0.00000  Uiso   1.00
C151   C     0.54272   0.43285   0.10196   0.00000  Uiso   1.00
C152   C     0.77261   0.36582   0.14149   0.00000  Uiso   1.00
C153   C     0.81241   0.40961   0.16600   0.00000  Uiso   1.00
C154   C     0.85821   0.41736   0.27941   0.00000  Uiso   1.00
C155   C     0.88941   0.45968   0.28262   0.00000  Uiso   1.00
C156   C     0.77212   0.34148   0.01365   0.00000  Uiso   1.00
C157   C     0.78403   0.29193   0.99897   0.00000  Uiso   1.00
C158   C     0.78130   0.27688   0.87394   0.00000  Uiso   1.00
C159   C     0.71546   0.38843   0.11055   0.00000  Uiso   1.00
C160   C     0.67974   0.37836   0.17732   0.00000  Uiso   1.00
C161   C     0.62930   0.40283   0.13385   0.00000  Uiso   1.00
H162   H     0.73558   0.45315   0.86269   0.00000  Uiso   1.00
H163   H     0.81847   0.51105   0.98023   0.00000  Uiso   1.00
H164   H     0.74429   0.38564   0.69984   0.00000  Uiso   1.00
H165   H     0.64001   0.47205   0.87817   0.00000  Uiso   1.00
H166   H     0.91661   0.56054   0.15747   0.00000  Uiso   1.00
H167   H     0.76018   0.29610   0.56623   0.00000  Uiso   1.00
H168   H     0.54030   0.47831   0.94227   0.00000  Uiso   1.00
H169   H     0.78361   0.33987   0.22435   0.00000  Uiso   1.00
H170   H     0.86914   0.39156   0.36175   0.00000  Uiso   1.00
H171   H     0.79496   0.26615   0.08135   0.00000  Uiso   1.00
H172   H     0.69069   0.35256   0.25968   0.00000  Uiso   1.00
H173   H     0.95774   0.46355   0.46712   0.00000  Uiso   1.00
H174   H     0.80131   0.19911   0.87587   0.00000  Uiso   1.00
H175   H     0.58143   0.38132   0.25191   0.00000  Uiso   1.00
O176   O     0.99258   0.54808   0.39613   0.00000  Uiso   1.00
O177   O     0.78734   0.20115   0.62044   0.00000  Uiso   1.00
O178   O     0.49886   0.44021   0.11380   0.00000  Uiso   1.00
N179   N     0.91455   0.53062   0.21150   0.00000  Uiso   1.00
N180   N     0.76830   0.28339   0.65873   0.00000  Uiso   1.00
N181   N     0.56273   0.45373   0.01027   0.00000  Uiso   1.00
N182   N     0.93668   0.47844   0.37812   0.00000  Uiso   1.00
N183   N     0.79044   0.23120   0.82535   0.00000  Uiso   1.00
N184   N     0.58486   0.40155   0.17689   0.00000  Uiso   1.00
C185   C     0.75066   0.04579   0.05119   0.00000  Uiso   1.00
C186   C     0.69806   0.03171   0.93759   0.00000  Uiso   1.00
C187   C     0.66535   0.99045   0.93400   0.00000  Uiso   1.00
C188   C     0.61890   0.98412   0.82114   0.00000  Uiso   1.00
C189   C     0.53923   0.95714   0.66081   0.00000  Uiso   1.00
C190   C     0.74157   0.09852   0.09161   0.00000  Uiso   1.00
C191   C     0.74546   0.11343   0.21752   0.00000  Uiso   1.00
C192   C     0.73565   0.16334   0.23431   0.00000  Uiso   1.00
C193   C     0.72358   0.24010   0.31311   0.00000  Uiso   1.00
C194   C     0.79567   0.04971   0.99140   0.00000  Uiso   1.00
C195   C     0.84505   0.02360   0.03308   0.00000  Uiso   1.00
C196   C     0.88079   0.03243   0.96552   0.00000  Uiso   1.00
C197   C     0.95270   0.03340   0.88874   0.00000  Uiso   1.00
C198   C     0.72634   0.10793   0.85714   0.00000  Uiso   1.00
C199   C     0.68485   0.06546   0.83219   0.00000  Uiso   1.00
C200   C     0.63844   0.05920   0.71930   0.00000  Uiso   1.00
C201   C     0.60567   0.01793   0.71555   0.00000  Uiso   1.00
C202   C     0.72836   0.13227   0.98621   0.00000  Uiso   1.00
C203   C     0.71855   0.18218   0.00282   0.00000  Uiso   1.00
C204   C     0.72242   0.19716   0.12872   0.00000  Uiso   1.00
C205   C     0.78246   0.08347   0.88600   0.00000  Uiso   1.00
C206   C     0.81813   0.09234   0.81837   0.00000  Uiso   1.00
C207   C     0.86755   0.06624   0.85993   0.00000  Uiso   1.00
H208   H     0.76094   0.01951   0.13326   0.00000  Uiso   1.00
H209   H     0.67558   0.96434   0.01560   0.00000  Uiso   1.00
H210   H     0.75569   0.08730   0.29907   0.00000  Uiso   1.00
H211   H     0.85525   0.99748   0.11465   0.00000  Uiso   1.00
H212   H     0.57511   0.91806   0.83869   0.00000  Uiso   1.00
H213   H     0.74404   0.17734   0.43641   0.00000  Uiso   1.00
H214   H     0.95399   0.98794   0.04753   0.00000  Uiso   1.00
H215   H     0.71605   0.13421   0.77508   0.00000  Uiso   1.00
H216   H     0.62823   0.08532   0.63775   0.00000  Uiso   1.00
H217   H     0.70833   0.20829   0.92123   0.00000  Uiso   1.00
H218   H     0.80790   0.11847   0.73681   0.00000  Uiso   1.00
H219   H     0.53668   0.01626   0.53202   0.00000  Uiso   1.00
H220   H     0.70560   0.27554   0.12975   0.00000  Uiso   1.00
H221   H     0.91556   0.08613   0.74087   0.00000  Uiso   1.00
O222   O     0.49893   0.93294   0.60150   0.00000  Uiso   1.00
O223   O     0.72056   0.27311   0.38570   0.00000  Uiso   1.00
O224   O     0.99601   0.02461   0.87550   0.00000  Uiso   1.00
N225   N     0.57813   0.94788   0.78535   0.00000  Uiso   1.00
N226   N     0.73605   0.19028   0.34418   0.00000  Uiso   1.00
N227   N     0.93235   0.01322   0.98063   0.00000  Uiso   1.00
N228   N     0.55745   0.00071   0.62033   0.00000  Uiso   1.00
N229   N     0.71537   0.24312   0.17916   0.00000  Uiso   1.00
N230   N     0.91167   0.06606   0.81562   0.00000  Uiso   1.00
C231   C     0.24658   0.07280   0.44555   0.00000  Uiso   1.00
C232   C     0.29828   0.05705   0.55957   0.00000  Uiso   1.00
C233   C     0.32942   0.01474   0.56262   0.00000  Uiso   1.00
C234   C     0.37525   0.00693   0.67600   0.00000  Uiso   1.00
C235   C     0.45339   0.97741   0.83683   0.00000  Uiso   1.00
C236   C     0.25798   0.12519   0.40723   0.00000  Uiso   1.00
C237   C     0.25523   0.14017   0.28218   0.00000  Uiso   1.00
C238   C     0.26714   0.18972   0.26732   0.00000  Uiso   1.00
C239   C     0.28267   0.26599   0.19161   0.00000  Uiso   1.00
C240   C     0.20133   0.07823   0.50412   0.00000  Uiso   1.00
C241   C     0.15094   0.05374   0.46053   0.00000  Uiso   1.00
C242   C     0.11514   0.06378   0.52723   0.00000  Uiso   1.00
C243   C     0.04272   0.06715   0.60196   0.00000  Uiso   1.00
C244   C     0.27261   0.13418   0.64149   0.00000  Uiso   1.00
C245   C     0.31241   0.09039   0.66600   0.00000  Uiso   1.00
C246   C     0.35821   0.08264   0.77941   0.00000  Uiso   1.00
C247   C     0.38941   0.04032   0.78262   0.00000  Uiso   1.00
C248   C     0.27212   0.15852   0.51365   0.00000  Uiso   1.00
C249   C     0.28403   0.20807   0.49897   0.00000  Uiso   1.00
C250   C     0.28130   0.22312   0.37394   0.00000  Uiso   1.00
C251   C     0.21546   0.11157   0.61055   0.00000  Uiso   1.00
C252   C     0.17974   0.12164   0.67732   0.00000  Uiso   1.00
C253   C     0.12930   0.09717   0.63385   0.00000  Uiso   1.00
H254   H     0.23558   0.04685   0.36269   0.00000  Uiso   1.00
H255   H     0.31847   0.98895   0.48023   0.00000  Uiso   1.00
H256   H     0.24429   0.11436   0.19984   0.00000  Uiso   1.00
H257   H     0.14001   0.02795   0.37817   0.00000  Uiso   1.00
H258   H     0.41661   0.93946   0.65747   0.00000  Uiso   1.00
H259   H     0.26018   0.20390   0.06623   0.00000  Uiso   1.00
H260   H     0.04030   0.02169   0.44227   0.00000  Uiso   1.00
H261   H     0.28361   0.16013   0.72435   0.00000  Uiso   1.00
H262   H     0.36914   0.10844   0.86175   0.00000  Uiso   1.00
H263   H     0.29496   0.23385   0.58135   0.00000  Uiso   1.00
H264   H     0.19069   0.14744   0.75968   0.00000  Uiso   1.00
H265   H     0.45774   0.03645   0.96712   0.00000  Uiso   1.00
H266   H     0.30131   0.30089   0.37587   0.00000  Uiso   1.00
H267   H     0.08143   0.11868   0.75191   0.00000  Uiso   1.00
O268   O     0.49258   0.95192   0.89613   0.00000  Uiso   1.00
O269   O     0.28734   0.29885   0.12044   0.00000  Uiso   1.00
O270   O     0.99886   0.05979   0.61380   0.00000  Uiso   1.00
N271   N     0.41455   0.96938   0.71150   0.00000  Uiso   1.00
N272   N     0.26830   0.21661   0.15873   0.00000  Uiso   1.00
N273   N     0.06273   0.04627   0.51027   0.00000  Uiso   1.00
N274   N     0.43668   0.02156   0.87812   0.00000  Uiso   1.00
N275   N     0.29044   0.26880   0.32535   0.00000  Uiso   1.00
N276   N     0.08486   0.09845   0.67689   0.00000  Uiso   1.00
C277   C     0.25066   0.54579   0.05119   0.00000  Uiso   1.00
C278   C     0.19806   0.53171   0.93759   0.00000  Uiso   1.00
C279   C     0.16535   0.49045   0.93400   0.00000  Uiso   1.00
C280   C     0.11890   0.48412   0.82114   0.00000  Uiso   1.00
C281   C     0.03923   0.45714   0.66081   0.00000  Uiso   1.00
C282   C     0.24157   0.59852   0.09161   0.00000  Uiso   1.00
C283   C     0.24546   0.61343   0.21752   0.00000  Uiso   1.00
C284   C     0.23565   0.66334   0.23431   0.00000  Uiso   1.00
C285   C     0.22358   0.74010   0.31311   0.00000  Uiso   1.00
C286   C     0.29567   0.54971   0.99140   0.00000  Uiso   1.00
C287   C     0.34505   0.52360   0.03308   0.00000  Uiso   1.00
C288   C     0.38079   0.53243   0.96552   0.00000  Uiso   1.00
C289   C     0.45270   0.53340   0.88874   0.00000  Uiso   1.00
C290   C     0.22634   0.60793   0.85714   0.00000  Uiso   1.00
C291   C     0.18485   0.56546   0.83219   0.00000  Uiso   1.00
C292   C     0.13844   0.55920   0.71930   0.00000  Uiso   1.00
C293   C     0.10567   0.51793   0.71555   0.00000  Uiso   1.00
C294   C     0.22836   0.63227   0.98621   0.00000  Uiso   1.00
C295   C     0.21855   0.68218   0.00282   0.00000  Uiso   1.00
C296   C     0.22242   0.69716   0.12872   0.00000  Uiso   1.00
C297   C     0.28246   0.58347   0.88600   0.00000  Uiso   1.00
C298   C     0.31813   0.59234   0.81837   0.00000  Uiso   1.00
C299   C     0.36755   0.56624   0.85993   0.00000  Uiso   1.00
H300   H     0.26094   0.51951   0.13326   0.00000  Uiso   1.00
H301   H     0.17558   0.46434   0.01560   0.00000  Uiso   1.00
H302   H     0.25569   0.58730   0.29907   0.00000  Uiso   1.00
H303   H     0.35525   0.49748   0.11465   0.00000  Uiso   1.00
H304   H     0.07511   0.41806   0.83869   0.00000  Uiso   1.00
H305   H     0.24404   0.67734   0.43641   0.00000  Uiso   1.00
H306   H     0.45399   0.48794   0.04753   0.00000  Uiso   1.00
H307   H     0.21605   0.63421   0.77508   0.00000  Uiso   1.00
H308   H     0.12823   0.58532   0.63775   0.00000  Uiso   1.00
H309   H     0.20833   0.70829   0.92123   0.00000  Uiso   1.00
H310   H     0.30790   0.61847   0.73681   0.00000  Uiso   1.00
H311   H     0.03668   0.51626   0.53202   0.00000  Uiso   1.00
H312   H     0.20560   0.77554   0.12975   0.00000  Uiso   1.00
H313   H     0.41556   0.58613   0.74087   0.00000  Uiso   1.00
O314   O     0.99893   0.43294   0.60150   0.00000  Uiso   1.00
O315   O     0.22056   0.77311   0.38570   0.00000  Uiso   1.00
O316   O     0.49601   0.52461   0.87550   0.00000  Uiso   1.00
N317   N     0.07813   0.44788   0.78535   0.00000  Uiso   1.00
N318   N     0.23605   0.69028   0.34418   0.00000  Uiso   1.00
N319   N     0.43235   0.51322   0.98063   0.00000  Uiso   1.00
N320   N     0.05745   0.50071   0.62033   0.00000  Uiso   1.00
N321   N     0.21537   0.74312   0.17916   0.00000  Uiso   1.00
N322   N     0.41167   0.56606   0.81562   0.00000  Uiso   1.00
C323   C     0.74658   0.57280   0.44555   0.00000  Uiso   1.00
C324   C     0.79828   0.55705   0.55957   0.00000  Uiso   1.00
C325   C     0.82942   0.51474   0.56262   0.00000  Uiso   1.00
C326   C     0.87525   0.50693   0.67600   0.00000  Uiso   1.00
C327   C     0.95339   0.47741   0.83683   0.00000  Uiso   1.00
C328   C     0.75798   0.62519   0.40723   0.00000  Uiso   1.00
C329   C     0.75523   0.64017   0.28218   0.00000  Uiso   1.00
C330   C     0.76714   0.68972   0.26732   0.00000  Uiso   1.00
C331   C     0.78267   0.76599   0.19161   0.00000  Uiso   1.00
C332   C     0.70133   0.57823   0.50412   0.00000  Uiso   1.00
C333   C     0.65094   0.55374   0.46053   0.00000  Uiso   1.00
C334   C     0.61514   0.56378   0.52723   0.00000  Uiso   1.00
C335   C     0.54272   0.56715   0.60196   0.00000  Uiso   1.00
C336   C     0.77261   0.63418   0.64149   0.00000  Uiso   1.00
C337   C     0.81241   0.59039   0.66600   0.00000  Uiso   1.00
C338   C     0.85821   0.58264   0.77941   0.00000  Uiso   1.00
C339   C     0.88941   0.54032   0.78262   0.00000  Uiso   1.00
C340   C     0.77212   0.65852   0.51365   0.00000  Uiso   1.00
C341   C     0.78403   0.70807   0.49897   0.00000  Uiso   1.00
C342   C     0.78130   0.72312   0.37394   0.00000  Uiso   1.00
C343   C     0.71546   0.61157   0.61055   0.00000  Uiso   1.00
C344   C     0.67974   0.62164   0.67732   0.00000  Uiso   1.00
C345   C     0.62930   0.59717   0.63385   0.00000  Uiso   1.00
H346   H     0.73558   0.54685   0.36269   0.00000  Uiso   1.00
H347   H     0.81847   0.48895   0.48023   0.00000  Uiso   1.00
H348   H     0.74429   0.61436   0.19984   0.00000  Uiso   1.00
H349   H     0.64001   0.52795   0.37817   0.00000  Uiso   1.00
H350   H     0.91661   0.43946   0.65747   0.00000  Uiso   1.00
H351   H     0.76018   0.70390   0.06623   0.00000  Uiso   1.00
H352   H     0.54030   0.52169   0.44227   0.00000  Uiso   1.00
H353   H     0.78361   0.66013   0.72435   0.00000  Uiso   1.00
H354   H     0.86914   0.60844   0.86175   0.00000  Uiso   1.00
H355   H     0.79496   0.73385   0.58135   0.00000  Uiso   1.00
H356   H     0.69069   0.64744   0.75968   0.00000  Uiso   1.00
H357   H     0.95774   0.53645   0.96712   0.00000  Uiso   1.00
H358   H     0.80131   0.80089   0.37587   0.00000  Uiso   1.00
H359   H     0.58143   0.61868   0.75191   0.00000  Uiso   1.00
O360   O     0.99258   0.45192   0.89613   0.00000  Uiso   1.00
O361   O     0.78734   0.79885   0.12044   0.00000  Uiso   1.00
O362   O     0.49886   0.55979   0.61380   0.00000  Uiso   1.00
N363   N     0.91455   0.46938   0.71150   0.00000  Uiso   1.00
N364   N     0.76830   0.71661   0.15873   0.00000  Uiso   1.00
N365   N     0.56273   0.54627   0.51027   0.00000  Uiso   1.00
N366   N     0.93668   0.52156   0.87812   0.00000  Uiso   1.00
N367   N     0.79044   0.76880   0.32535   0.00000  Uiso   1.00
N368   N     0.58486   0.59845   0.67689   0.00000  Uiso   1.00
