data_job_01777
_audit_creation_date              2018-12-19
_audit_creation_method            'Materials Studio'
_symmetry_space_group_name_H-M    'P1'
_symmetry_Int_Tables_number       1
_symmetry_cell_setting            triclinic
loop_
_symmetry_equiv_pos_as_xyz
  x,y,z
_cell_length_a                    26.8857
_cell_length_b                    12.4626
_cell_length_c                    30.6615
_cell_angle_alpha                 90.0000
_cell_angle_beta                  140.9226
_cell_angle_gamma                 90.0000
loop_
_atom_site_label
_atom_site_type_symbol
_atom_site_fract_x
_atom_site_fract_y
_atom_site_fract_z
_atom_site_U_iso_or_equiv
_atom_site_adp_type
_atom_site_occupancy
C1     C     0.71015   0.75454   0.58336   0.00000  Uiso   1.00
C2     C     0.63504   0.74046   0.50546   0.00000  Uiso   1.00
C3     C     0.62855   0.75452   0.45628   0.00000  Uiso   1.00
C4     C     0.55468   0.73783   0.38763   0.00000  Uiso   1.00
C5     C     0.44793   0.72054   0.26951   0.00000  Uiso   1.00
C6     C     0.69062   0.83711   0.60515   0.00000  Uiso   1.00
C7     C     0.73087   0.93244   0.63980   0.00000  Uiso   1.00
C8     C     0.70381   0.99711   0.65508   0.00000  Uiso   1.00
C9     C     0.68338   0.12984   0.69177   0.00000  Uiso   1.00
C10    C     0.72281   0.64860   0.61586   0.00000  Uiso   1.00
C11    C     0.79013   0.58542   0.65954   0.00000  Uiso   1.00
C12    C     0.79017   0.49139   0.68385   0.00000  Uiso   1.00
C13    C     0.81972   0.33142   0.73717   0.00000  Uiso   1.00
C14    C     0.59052   0.69988   0.54889   0.00000  Uiso   1.00
C15    C     0.57006   0.71077   0.48673   0.00000  Uiso   1.00
C16    C     0.49619   0.69405   0.41814   0.00000  Uiso   1.00
C17    C     0.48959   0.70809   0.36887   0.00000  Uiso   1.00
C18    C     0.62564   0.80743   0.58642   0.00000  Uiso   1.00
C19    C     0.59852   0.87197   0.60166   0.00000  Uiso   1.00
C20    C     0.63871   0.96737   0.63632   0.00000  Uiso   1.00
C21    C     0.65783   0.61891   0.59713   0.00000  Uiso   1.00
C22    C     0.65777   0.52496   0.62139   0.00000  Uiso   1.00
C23    C     0.72508   0.46165   0.66509   0.00000  Uiso   1.00
H24    H     0.76074   0.77765   0.59794   0.00000  Uiso   1.00
H25    H     0.67884   0.77750   0.47079   0.00000  Uiso   1.00
H26    H     0.78116   0.95538   0.65429   0.00000  Uiso   1.00
H27    H     0.84040   0.60842   0.67402   0.00000  Uiso   1.00
H28    H     0.55939   0.76428   0.32157   0.00000  Uiso   1.00
H29    H     0.77514   0.13934   0.70850   0.00000  Uiso   1.00
H30    H     0.90007   0.40771   0.75010   0.00000  Uiso   1.00
H31    H     0.53993   0.67677   0.53431   0.00000  Uiso   1.00
H32    H     0.44591   0.67108   0.40366   0.00000  Uiso   1.00
H33    H     0.54823   0.84897   0.58716   0.00000  Uiso   1.00
H34    H     0.60747   0.50201   0.60688   0.00000  Uiso   1.00
H35    H     0.37033   0.67791   0.26708   0.00000  Uiso   1.00
H36    H     0.58609   0.05297   0.65401   0.00000  Uiso   1.00
H37    H     0.71102   0.32134   0.69561   0.00000  Uiso   1.00
O38    O     0.40699   0.71921   0.20953   0.00000  Uiso   1.00
O39    O     0.69007   0.21126   0.71718   0.00000  Uiso   1.00
O40    O     0.85397   0.25137   0.77175   0.00000  Uiso   1.00
N41    N     0.52780   0.74471   0.32667   0.00000  Uiso   1.00
N42    N     0.72951   0.09538   0.68842   0.00000  Uiso   1.00
N43    N     0.84632   0.41138   0.72733   0.00000  Uiso   1.00
N44    N     0.42607   0.69824   0.29735   0.00000  Uiso   1.00
N45    N     0.62778   0.04890   0.65910   0.00000  Uiso   1.00
N46    N     0.74459   0.36490   0.69801   0.00000  Uiso   1.00
C47    C     0.21015   0.25454   0.58336   0.00000  Uiso   1.00
C48    C     0.13504   0.24046   0.50546   0.00000  Uiso   1.00
C49    C     0.12855   0.25452   0.45628   0.00000  Uiso   1.00
C50    C     0.05468   0.23783   0.38763   0.00000  Uiso   1.00
C51    C     0.94793   0.22054   0.26951   0.00000  Uiso   1.00
C52    C     0.19062   0.33711   0.60515   0.00000  Uiso   1.00
C53    C     0.23087   0.43244   0.63980   0.00000  Uiso   1.00
C54    C     0.20381   0.49711   0.65508   0.00000  Uiso   1.00
C55    C     0.18338   0.62984   0.69177   0.00000  Uiso   1.00
C56    C     0.22281   0.14860   0.61586   0.00000  Uiso   1.00
C57    C     0.29013   0.08542   0.65954   0.00000  Uiso   1.00
C58    C     0.29017   0.99139   0.68385   0.00000  Uiso   1.00
C59    C     0.31972   0.83142   0.73717   0.00000  Uiso   1.00
C60    C     0.09052   0.19988   0.54889   0.00000  Uiso   1.00
C61    C     0.07006   0.21077   0.48673   0.00000  Uiso   1.00
C62    C     0.99619   0.19405   0.41814   0.00000  Uiso   1.00
C63    C     0.98959   0.20809   0.36887   0.00000  Uiso   1.00
C64    C     0.12564   0.30743   0.58642   0.00000  Uiso   1.00
C65    C     0.09852   0.37197   0.60166   0.00000  Uiso   1.00
C66    C     0.13871   0.46737   0.63632   0.00000  Uiso   1.00
C67    C     0.15783   0.11891   0.59713   0.00000  Uiso   1.00
C68    C     0.15777   0.02496   0.62139   0.00000  Uiso   1.00
C69    C     0.22508   0.96165   0.66509   0.00000  Uiso   1.00
H70    H     0.26074   0.27765   0.59794   0.00000  Uiso   1.00
H71    H     0.17884   0.27750   0.47079   0.00000  Uiso   1.00
H72    H     0.28116   0.45538   0.65429   0.00000  Uiso   1.00
H73    H     0.34040   0.10842   0.67402   0.00000  Uiso   1.00
H74    H     0.05939   0.26428   0.32157   0.00000  Uiso   1.00
H75    H     0.27514   0.63934   0.70850   0.00000  Uiso   1.00
H76    H     0.40007   0.90771   0.75010   0.00000  Uiso   1.00
H77    H     0.03993   0.17677   0.53431   0.00000  Uiso   1.00
H78    H     0.94591   0.17108   0.40366   0.00000  Uiso   1.00
H79    H     0.04823   0.34897   0.58716   0.00000  Uiso   1.00
H80    H     0.10747   0.00201   0.60688   0.00000  Uiso   1.00
H81    H     0.87033   0.17791   0.26708   0.00000  Uiso   1.00
H82    H     0.08609   0.55297   0.65401   0.00000  Uiso   1.00
H83    H     0.21102   0.82134   0.69561   0.00000  Uiso   1.00
O84    O     0.90699   0.21921   0.20953   0.00000  Uiso   1.00
O85    O     0.19007   0.71126   0.71718   0.00000  Uiso   1.00
O86    O     0.35397   0.75137   0.77175   0.00000  Uiso   1.00
N87    N     0.02780   0.24471   0.32667   0.00000  Uiso   1.00
N88    N     0.22951   0.59538   0.68842   0.00000  Uiso   1.00
N89    N     0.34632   0.91138   0.72733   0.00000  Uiso   1.00
N90    N     0.92607   0.19824   0.29735   0.00000  Uiso   1.00
N91    N     0.12778   0.54890   0.65910   0.00000  Uiso   1.00
N92    N     0.24459   0.86490   0.69801   0.00000  Uiso   1.00
C93    C     0.28985   0.75454   0.91664   0.00000  Uiso   1.00
C94    C     0.36496   0.74046   0.99454   0.00000  Uiso   1.00
C95    C     0.37145   0.75452   0.04372   0.00000  Uiso   1.00
C96    C     0.44532   0.73783   0.11237   0.00000  Uiso   1.00
C97    C     0.55207   0.72054   0.23049   0.00000  Uiso   1.00
C98    C     0.30938   0.83711   0.89485   0.00000  Uiso   1.00
C99    C     0.26913   0.93244   0.86020   0.00000  Uiso   1.00
C100   C     0.29619   0.99711   0.84492   0.00000  Uiso   1.00
C101   C     0.31662   0.12984   0.80823   0.00000  Uiso   1.00
C102   C     0.27719   0.64860   0.88414   0.00000  Uiso   1.00
C103   C     0.20987   0.58542   0.84046   0.00000  Uiso   1.00
C104   C     0.20983   0.49139   0.81615   0.00000  Uiso   1.00
C105   C     0.18028   0.33142   0.76283   0.00000  Uiso   1.00
C106   C     0.40948   0.69988   0.95111   0.00000  Uiso   1.00
C107   C     0.42994   0.71077   0.01327   0.00000  Uiso   1.00
C108   C     0.50381   0.69405   0.08186   0.00000  Uiso   1.00
C109   C     0.51041   0.70809   0.13113   0.00000  Uiso   1.00
C110   C     0.37436   0.80743   0.91358   0.00000  Uiso   1.00
C111   C     0.40148   0.87197   0.89834   0.00000  Uiso   1.00
C112   C     0.36129   0.96737   0.86368   0.00000  Uiso   1.00
C113   C     0.34217   0.61891   0.90287   0.00000  Uiso   1.00
C114   C     0.34223   0.52496   0.87861   0.00000  Uiso   1.00
C115   C     0.27492   0.46165   0.83491   0.00000  Uiso   1.00
H116   H     0.23926   0.77765   0.90206   0.00000  Uiso   1.00
H117   H     0.32116   0.77750   0.02921   0.00000  Uiso   1.00
H118   H     0.21884   0.95538   0.84571   0.00000  Uiso   1.00
H119   H     0.15960   0.60842   0.82598   0.00000  Uiso   1.00
H120   H     0.44061   0.76428   0.17843   0.00000  Uiso   1.00
H121   H     0.22486   0.13934   0.79150   0.00000  Uiso   1.00
H122   H     0.09993   0.40771   0.74990   0.00000  Uiso   1.00
H123   H     0.46007   0.67677   0.96569   0.00000  Uiso   1.00
H124   H     0.55409   0.67108   0.09634   0.00000  Uiso   1.00
H125   H     0.45177   0.84897   0.91284   0.00000  Uiso   1.00
H126   H     0.39253   0.50201   0.89312   0.00000  Uiso   1.00
H127   H     0.62967   0.67791   0.23292   0.00000  Uiso   1.00
H128   H     0.41391   0.05297   0.84599   0.00000  Uiso   1.00
H129   H     0.28898   0.32134   0.80439   0.00000  Uiso   1.00
O130   O     0.59301   0.71921   0.29047   0.00000  Uiso   1.00
O131   O     0.30993   0.21126   0.78282   0.00000  Uiso   1.00
O132   O     0.14603   0.25137   0.72825   0.00000  Uiso   1.00
N133   N     0.47220   0.74471   0.17333   0.00000  Uiso   1.00
N134   N     0.27049   0.09538   0.81158   0.00000  Uiso   1.00
N135   N     0.15368   0.41138   0.77267   0.00000  Uiso   1.00
N136   N     0.57393   0.69824   0.20265   0.00000  Uiso   1.00
N137   N     0.37222   0.04890   0.84090   0.00000  Uiso   1.00
N138   N     0.25541   0.36490   0.80199   0.00000  Uiso   1.00
C139   C     0.78985   0.25454   0.91664   0.00000  Uiso   1.00
C140   C     0.86496   0.24046   0.99454   0.00000  Uiso   1.00
C141   C     0.87145   0.25452   0.04372   0.00000  Uiso   1.00
C142   C     0.94532   0.23783   0.11237   0.00000  Uiso   1.00
C143   C     0.05207   0.22054   0.23049   0.00000  Uiso   1.00
C144   C     0.80938   0.33711   0.89485   0.00000  Uiso   1.00
C145   C     0.76913   0.43244   0.86020   0.00000  Uiso   1.00
C146   C     0.79619   0.49711   0.84492   0.00000  Uiso   1.00
C147   C     0.81662   0.62984   0.80823   0.00000  Uiso   1.00
C148   C     0.77719   0.14860   0.88414   0.00000  Uiso   1.00
C149   C     0.70987   0.08542   0.84046   0.00000  Uiso   1.00
C150   C     0.70983   0.99139   0.81615   0.00000  Uiso   1.00
C151   C     0.68028   0.83142   0.76283   0.00000  Uiso   1.00
C152   C     0.90948   0.19988   0.95111   0.00000  Uiso   1.00
C153   C     0.92994   0.21077   0.01327   0.00000  Uiso   1.00
C154   C     0.00381   0.19405   0.08186   0.00000  Uiso   1.00
C155   C     0.01041   0.20809   0.13113   0.00000  Uiso   1.00
C156   C     0.87436   0.30743   0.91358   0.00000  Uiso   1.00
C157   C     0.90148   0.37197   0.89834   0.00000  Uiso   1.00
C158   C     0.86129   0.46737   0.86368   0.00000  Uiso   1.00
C159   C     0.84217   0.11891   0.90287   0.00000  Uiso   1.00
C160   C     0.84223   0.02496   0.87861   0.00000  Uiso   1.00
C161   C     0.77492   0.96165   0.83491   0.00000  Uiso   1.00
H162   H     0.73926   0.27765   0.90206   0.00000  Uiso   1.00
H163   H     0.82116   0.27750   0.02921   0.00000  Uiso   1.00
H164   H     0.71884   0.45538   0.84571   0.00000  Uiso   1.00
H165   H     0.65960   0.10842   0.82598   0.00000  Uiso   1.00
H166   H     0.94061   0.26428   0.17843   0.00000  Uiso   1.00
H167   H     0.72486   0.63934   0.79150   0.00000  Uiso   1.00
H168   H     0.59993   0.90771   0.74990   0.00000  Uiso   1.00
H169   H     0.96007   0.17677   0.96569   0.00000  Uiso   1.00
H170   H     0.05409   0.17108   0.09634   0.00000  Uiso   1.00
H171   H     0.95177   0.34897   0.91284   0.00000  Uiso   1.00
H172   H     0.89253   0.00201   0.89312   0.00000  Uiso   1.00
H173   H     0.12967   0.17791   0.23292   0.00000  Uiso   1.00
H174   H     0.91391   0.55297   0.84599   0.00000  Uiso   1.00
H175   H     0.78898   0.82134   0.80439   0.00000  Uiso   1.00
O176   O     0.09301   0.21921   0.29047   0.00000  Uiso   1.00
O177   O     0.80993   0.71126   0.78282   0.00000  Uiso   1.00
O178   O     0.64603   0.75137   0.72825   0.00000  Uiso   1.00
N179   N     0.97220   0.24471   0.17333   0.00000  Uiso   1.00
N180   N     0.77049   0.59538   0.81158   0.00000  Uiso   1.00
N181   N     0.65368   0.91138   0.77267   0.00000  Uiso   1.00
N182   N     0.07393   0.19824   0.20265   0.00000  Uiso   1.00
N183   N     0.87222   0.54890   0.84090   0.00000  Uiso   1.00
N184   N     0.75541   0.86490   0.80199   0.00000  Uiso   1.00
C185   C     0.28985   0.24546   0.41664   0.00000  Uiso   1.00
C186   C     0.36496   0.25954   0.49454   0.00000  Uiso   1.00
C187   C     0.37145   0.24548   0.54372   0.00000  Uiso   1.00
C188   C     0.44532   0.26217   0.61237   0.00000  Uiso   1.00
C189   C     0.55207   0.27946   0.73049   0.00000  Uiso   1.00
C190   C     0.30938   0.16289   0.39485   0.00000  Uiso   1.00
C191   C     0.26913   0.06756   0.36020   0.00000  Uiso   1.00
C192   C     0.29619   0.00289   0.34492   0.00000  Uiso   1.00
C193   C     0.31662   0.87016   0.30823   0.00000  Uiso   1.00
C194   C     0.27719   0.35140   0.38414   0.00000  Uiso   1.00
C195   C     0.20987   0.41458   0.34046   0.00000  Uiso   1.00
C196   C     0.20983   0.50861   0.31615   0.00000  Uiso   1.00
C197   C     0.18028   0.66858   0.26283   0.00000  Uiso   1.00
C198   C     0.40948   0.30012   0.45111   0.00000  Uiso   1.00
C199   C     0.42994   0.28923   0.51327   0.00000  Uiso   1.00
C200   C     0.50381   0.30595   0.58186   0.00000  Uiso   1.00
C201   C     0.51041   0.29191   0.63113   0.00000  Uiso   1.00
C202   C     0.37436   0.19257   0.41358   0.00000  Uiso   1.00
C203   C     0.40148   0.12803   0.39834   0.00000  Uiso   1.00
C204   C     0.36129   0.03263   0.36368   0.00000  Uiso   1.00
C205   C     0.34217   0.38109   0.40287   0.00000  Uiso   1.00
C206   C     0.34223   0.47504   0.37861   0.00000  Uiso   1.00
C207   C     0.27492   0.53835   0.33491   0.00000  Uiso   1.00
H208   H     0.23926   0.22235   0.40206   0.00000  Uiso   1.00
H209   H     0.32116   0.22250   0.52921   0.00000  Uiso   1.00
H210   H     0.21884   0.04462   0.34571   0.00000  Uiso   1.00
H211   H     0.15960   0.39158   0.32598   0.00000  Uiso   1.00
H212   H     0.44061   0.23572   0.67843   0.00000  Uiso   1.00
H213   H     0.22486   0.86066   0.29150   0.00000  Uiso   1.00
H214   H     0.09993   0.59229   0.24990   0.00000  Uiso   1.00
H215   H     0.46007   0.32323   0.46569   0.00000  Uiso   1.00
H216   H     0.55409   0.32892   0.59634   0.00000  Uiso   1.00
H217   H     0.45177   0.15103   0.41284   0.00000  Uiso   1.00
H218   H     0.39253   0.49799   0.39312   0.00000  Uiso   1.00
H219   H     0.62967   0.32209   0.73292   0.00000  Uiso   1.00
H220   H     0.41391   0.94703   0.34599   0.00000  Uiso   1.00
H221   H     0.28898   0.67866   0.30439   0.00000  Uiso   1.00
O222   O     0.59301   0.28079   0.79047   0.00000  Uiso   1.00
O223   O     0.30993   0.78874   0.28282   0.00000  Uiso   1.00
O224   O     0.14603   0.74863   0.22825   0.00000  Uiso   1.00
N225   N     0.47220   0.25529   0.67333   0.00000  Uiso   1.00
N226   N     0.27049   0.90462   0.31158   0.00000  Uiso   1.00
N227   N     0.15368   0.58862   0.27267   0.00000  Uiso   1.00
N228   N     0.57393   0.30176   0.70265   0.00000  Uiso   1.00
N229   N     0.37222   0.95110   0.34090   0.00000  Uiso   1.00
N230   N     0.25541   0.63510   0.30199   0.00000  Uiso   1.00
C231   C     0.78985   0.74546   0.41664   0.00000  Uiso   1.00
C232   C     0.86496   0.75954   0.49454   0.00000  Uiso   1.00
C233   C     0.87145   0.74548   0.54372   0.00000  Uiso   1.00
C234   C     0.94532   0.76217   0.61237   0.00000  Uiso   1.00
C235   C     0.05207   0.77946   0.73049   0.00000  Uiso   1.00
C236   C     0.80938   0.66289   0.39485   0.00000  Uiso   1.00
C237   C     0.76913   0.56756   0.36020   0.00000  Uiso   1.00
C238   C     0.79619   0.50289   0.34492   0.00000  Uiso   1.00
C239   C     0.81662   0.37016   0.30823   0.00000  Uiso   1.00
C240   C     0.77719   0.85140   0.38414   0.00000  Uiso   1.00
C241   C     0.70987   0.91458   0.34046   0.00000  Uiso   1.00
C242   C     0.70983   0.00861   0.31615   0.00000  Uiso   1.00
C243   C     0.68028   0.16858   0.26283   0.00000  Uiso   1.00
C244   C     0.90948   0.80012   0.45111   0.00000  Uiso   1.00
C245   C     0.92994   0.78923   0.51327   0.00000  Uiso   1.00
C246   C     0.00381   0.80595   0.58186   0.00000  Uiso   1.00
C247   C     0.01041   0.79191   0.63113   0.00000  Uiso   1.00
C248   C     0.87436   0.69257   0.41358   0.00000  Uiso   1.00
C249   C     0.90148   0.62803   0.39834   0.00000  Uiso   1.00
C250   C     0.86129   0.53263   0.36368   0.00000  Uiso   1.00
C251   C     0.84217   0.88109   0.40287   0.00000  Uiso   1.00
C252   C     0.84223   0.97504   0.37861   0.00000  Uiso   1.00
C253   C     0.77492   0.03835   0.33491   0.00000  Uiso   1.00
H254   H     0.73926   0.72235   0.40206   0.00000  Uiso   1.00
H255   H     0.82116   0.72250   0.52921   0.00000  Uiso   1.00
H256   H     0.71884   0.54462   0.34571   0.00000  Uiso   1.00
H257   H     0.65960   0.89158   0.32598   0.00000  Uiso   1.00
H258   H     0.94061   0.73572   0.67843   0.00000  Uiso   1.00
H259   H     0.72486   0.36066   0.29150   0.00000  Uiso   1.00
H260   H     0.59993   0.09229   0.24990   0.00000  Uiso   1.00
H261   H     0.96007   0.82323   0.46569   0.00000  Uiso   1.00
H262   H     0.05409   0.82892   0.59634   0.00000  Uiso   1.00
H263   H     0.95177   0.65103   0.41284   0.00000  Uiso   1.00
H264   H     0.89253   0.99799   0.39312   0.00000  Uiso   1.00
H265   H     0.12967   0.82209   0.73292   0.00000  Uiso   1.00
H266   H     0.91391   0.44703   0.34599   0.00000  Uiso   1.00
H267   H     0.78898   0.17866   0.30439   0.00000  Uiso   1.00
O268   O     0.09301   0.78079   0.79047   0.00000  Uiso   1.00
O269   O     0.80993   0.28874   0.28282   0.00000  Uiso   1.00
O270   O     0.64603   0.24863   0.22825   0.00000  Uiso   1.00
N271   N     0.97220   0.75529   0.67333   0.00000  Uiso   1.00
N272   N     0.77049   0.40462   0.31158   0.00000  Uiso   1.00
N273   N     0.65368   0.08862   0.27267   0.00000  Uiso   1.00
N274   N     0.07393   0.80176   0.70265   0.00000  Uiso   1.00
N275   N     0.87222   0.45110   0.34090   0.00000  Uiso   1.00
N276   N     0.75541   0.13510   0.30199   0.00000  Uiso   1.00
C277   C     0.71015   0.24546   0.08336   0.00000  Uiso   1.00
C278   C     0.63504   0.25954   0.00546   0.00000  Uiso   1.00
C279   C     0.62855   0.24548   0.95628   0.00000  Uiso   1.00
C280   C     0.55468   0.26217   0.88763   0.00000  Uiso   1.00
C281   C     0.44793   0.27946   0.76951   0.00000  Uiso   1.00
C282   C     0.69062   0.16289   0.10515   0.00000  Uiso   1.00
C283   C     0.73087   0.06756   0.13980   0.00000  Uiso   1.00
C284   C     0.70381   0.00289   0.15508   0.00000  Uiso   1.00
C285   C     0.68338   0.87016   0.19177   0.00000  Uiso   1.00
C286   C     0.72281   0.35140   0.11586   0.00000  Uiso   1.00
C287   C     0.79013   0.41458   0.15954   0.00000  Uiso   1.00
C288   C     0.79017   0.50861   0.18385   0.00000  Uiso   1.00
C289   C     0.81972   0.66858   0.23717   0.00000  Uiso   1.00
C290   C     0.59052   0.30012   0.04889   0.00000  Uiso   1.00
C291   C     0.57006   0.28923   0.98673   0.00000  Uiso   1.00
C292   C     0.49619   0.30595   0.91814   0.00000  Uiso   1.00
C293   C     0.48959   0.29191   0.86887   0.00000  Uiso   1.00
C294   C     0.62564   0.19257   0.08642   0.00000  Uiso   1.00
C295   C     0.59852   0.12803   0.10166   0.00000  Uiso   1.00
C296   C     0.63871   0.03263   0.13632   0.00000  Uiso   1.00
C297   C     0.65783   0.38109   0.09713   0.00000  Uiso   1.00
C298   C     0.65777   0.47504   0.12139   0.00000  Uiso   1.00
C299   C     0.72508   0.53835   0.16509   0.00000  Uiso   1.00
H300   H     0.76074   0.22235   0.09794   0.00000  Uiso   1.00
H301   H     0.67884   0.22250   0.97079   0.00000  Uiso   1.00
H302   H     0.78116   0.04462   0.15429   0.00000  Uiso   1.00
H303   H     0.84040   0.39158   0.17402   0.00000  Uiso   1.00
H304   H     0.55939   0.23572   0.82157   0.00000  Uiso   1.00
H305   H     0.77514   0.86066   0.20850   0.00000  Uiso   1.00
H306   H     0.90007   0.59229   0.25010   0.00000  Uiso   1.00
H307   H     0.53993   0.32323   0.03431   0.00000  Uiso   1.00
H308   H     0.44591   0.32892   0.90366   0.00000  Uiso   1.00
H309   H     0.54823   0.15103   0.08716   0.00000  Uiso   1.00
H310   H     0.60747   0.49799   0.10688   0.00000  Uiso   1.00
H311   H     0.37033   0.32209   0.76708   0.00000  Uiso   1.00
H312   H     0.58609   0.94703   0.15401   0.00000  Uiso   1.00
H313   H     0.71102   0.67866   0.19561   0.00000  Uiso   1.00
O314   O     0.40699   0.28079   0.70953   0.00000  Uiso   1.00
O315   O     0.69007   0.78874   0.21718   0.00000  Uiso   1.00
O316   O     0.85397   0.74863   0.27175   0.00000  Uiso   1.00
N317   N     0.52780   0.25529   0.82667   0.00000  Uiso   1.00
N318   N     0.72951   0.90462   0.18842   0.00000  Uiso   1.00
N319   N     0.84632   0.58862   0.22733   0.00000  Uiso   1.00
N320   N     0.42607   0.30176   0.79735   0.00000  Uiso   1.00
N321   N     0.62778   0.95110   0.15910   0.00000  Uiso   1.00
N322   N     0.74459   0.63510   0.19801   0.00000  Uiso   1.00
C323   C     0.21015   0.74546   0.08336   0.00000  Uiso   1.00
C324   C     0.13504   0.75954   0.00546   0.00000  Uiso   1.00
C325   C     0.12855   0.74548   0.95628   0.00000  Uiso   1.00
C326   C     0.05468   0.76217   0.88763   0.00000  Uiso   1.00
C327   C     0.94793   0.77946   0.76951   0.00000  Uiso   1.00
C328   C     0.19062   0.66289   0.10515   0.00000  Uiso   1.00
C329   C     0.23087   0.56756   0.13980   0.00000  Uiso   1.00
C330   C     0.20381   0.50289   0.15508   0.00000  Uiso   1.00
C331   C     0.18338   0.37016   0.19177   0.00000  Uiso   1.00
C332   C     0.22281   0.85140   0.11586   0.00000  Uiso   1.00
C333   C     0.29013   0.91458   0.15954   0.00000  Uiso   1.00
C334   C     0.29017   0.00861   0.18385   0.00000  Uiso   1.00
C335   C     0.31972   0.16858   0.23717   0.00000  Uiso   1.00
C336   C     0.09052   0.80012   0.04889   0.00000  Uiso   1.00
C337   C     0.07006   0.78923   0.98673   0.00000  Uiso   1.00
C338   C     0.99619   0.80595   0.91814   0.00000  Uiso   1.00
C339   C     0.98959   0.79191   0.86887   0.00000  Uiso   1.00
C340   C     0.12564   0.69257   0.08642   0.00000  Uiso   1.00
C341   C     0.09852   0.62803   0.10166   0.00000  Uiso   1.00
C342   C     0.13871   0.53263   0.13632   0.00000  Uiso   1.00
C343   C     0.15783   0.88109   0.09713   0.00000  Uiso   1.00
C344   C     0.15777   0.97504   0.12139   0.00000  Uiso   1.00
C345   C     0.22508   0.03835   0.16509   0.00000  Uiso   1.00
H346   H     0.26074   0.72235   0.09794   0.00000  Uiso   1.00
H347   H     0.17884   0.72250   0.97079   0.00000  Uiso   1.00
H348   H     0.28116   0.54462   0.15429   0.00000  Uiso   1.00
H349   H     0.34040   0.89158   0.17402   0.00000  Uiso   1.00
H350   H     0.05939   0.73572   0.82157   0.00000  Uiso   1.00
H351   H     0.27514   0.36066   0.20850   0.00000  Uiso   1.00
H352   H     0.40007   0.09229   0.25010   0.00000  Uiso   1.00
H353   H     0.03993   0.82323   0.03431   0.00000  Uiso   1.00
H354   H     0.94591   0.82892   0.90366   0.00000  Uiso   1.00
H355   H     0.04823   0.65103   0.08716   0.00000  Uiso   1.00
H356   H     0.10747   0.99799   0.10688   0.00000  Uiso   1.00
H357   H     0.87033   0.82209   0.76708   0.00000  Uiso   1.00
H358   H     0.08609   0.44703   0.15401   0.00000  Uiso   1.00
H359   H     0.21102   0.17866   0.19561   0.00000  Uiso   1.00
O360   O     0.90699   0.78079   0.70953   0.00000  Uiso   1.00
O361   O     0.19007   0.28874   0.21718   0.00000  Uiso   1.00
O362   O     0.35397   0.24863   0.27175   0.00000  Uiso   1.00
N363   N     0.02780   0.75529   0.82667   0.00000  Uiso   1.00
N364   N     0.22951   0.40462   0.18842   0.00000  Uiso   1.00
N365   N     0.34632   0.08862   0.22733   0.00000  Uiso   1.00
N366   N     0.92607   0.80176   0.79735   0.00000  Uiso   1.00
N367   N     0.12778   0.45110   0.15910   0.00000  Uiso   1.00
N368   N     0.24459   0.13510   0.19801   0.00000  Uiso   1.00
