data_job_00330
_audit_creation_date              2018-12-19
_audit_creation_method            'Materials Studio'
_symmetry_space_group_name_H-M    'P1'
_symmetry_Int_Tables_number       1
_symmetry_cell_setting            triclinic
loop_
_symmetry_equiv_pos_as_xyz
  x,y,z
_cell_length_a                    34.6660
_cell_length_b                    12.8810
_cell_length_c                    11.8158
_cell_angle_alpha                 90.0000
_cell_angle_beta                  90.0000
_cell_angle_gamma                 90.0000
loop_
_atom_site_label
_atom_site_type_symbol
_atom_site_fract_x
_atom_site_fract_y
_atom_site_fract_z
_atom_site_U_iso_or_equiv
_atom_site_adp_type
_atom_site_occupancy
C1     C     0.60998   0.36105   0.61432   0.00000  Uiso   1.00
C2     C     0.60313   0.25763   0.55481   0.00000  Uiso   1.00
C3     C     0.56874   0.22592   0.50563   0.00000  Uiso   1.00
C4     C     0.56834   0.12849   0.45539   0.00000  Uiso   1.00
C5     C     0.55270   0.97751   0.36319   0.00000  Uiso   1.00
C6     C     0.62415   0.33425   0.73296   0.00000  Uiso   1.00
C7     C     0.60743   0.36697   0.83355   0.00000  Uiso   1.00
C8     C     0.62473   0.33404   0.93327   0.00000  Uiso   1.00
C9     C     0.64174   0.30209   0.11764   0.00000  Uiso   1.00
C10    C     0.64409   0.41134   0.55400   0.00000  Uiso   1.00
C11    C     0.64414   0.50889   0.50414   0.00000  Uiso   1.00
C12    C     0.67822   0.54089   0.45321   0.00000  Uiso   1.00
C13    C     0.72618   0.62863   0.35972   0.00000  Uiso   1.00
C14    C     0.67042   0.24441   0.61257   0.00000  Uiso   1.00
C15    C     0.63596   0.19428   0.55387   0.00000  Uiso   1.00
C16    C     0.63561   0.09687   0.50369   0.00000  Uiso   1.00
C17    C     0.60123   0.06502   0.45443   0.00000  Uiso   1.00
C18    C     0.65698   0.27090   0.73201   0.00000  Uiso   1.00
C19    C     0.67430   0.23792   0.83161   0.00000  Uiso   1.00
C20    C     0.65761   0.27058   0.93232   0.00000  Uiso   1.00
C21    C     0.67692   0.34799   0.55304   0.00000  Uiso   1.00
C22    C     0.71101   0.37984   0.50219   0.00000  Uiso   1.00
C23    C     0.71111   0.47742   0.45226   0.00000  Uiso   1.00
H24    H     0.58443   0.41038   0.61507   0.00000  Uiso   1.00
H25    H     0.54334   0.27497   0.50639   0.00000  Uiso   1.00
H26    H     0.58203   0.41600   0.83426   0.00000  Uiso   1.00
H27    H     0.61873   0.55790   0.50489   0.00000  Uiso   1.00
H28    H     0.51227   0.09688   0.38552   0.00000  Uiso   1.00
H29    H     0.59385   0.39430   0.07684   0.00000  Uiso   1.00
H30    H     0.67123   0.69352   0.38232   0.00000  Uiso   1.00
H31    H     0.69598   0.19509   0.61183   0.00000  Uiso   1.00
H32    H     0.66102   0.04786   0.50296   0.00000  Uiso   1.00
H33    H     0.69971   0.18890   0.83084   0.00000  Uiso   1.00
H34    H     0.73640   0.33079   0.50147   0.00000  Uiso   1.00
H35    H     0.60778   0.91255   0.38274   0.00000  Uiso   1.00
H36    H     0.68936   0.20997   0.07407   0.00000  Uiso   1.00
H37    H     0.76674   0.50919   0.37954   0.00000  Uiso   1.00
O38    O     0.53501   0.91174   0.31261   0.00000  Uiso   1.00
O39    O     0.64204   0.30195   0.21960   0.00000  Uiso   1.00
O40    O     0.74357   0.69451   0.30839   0.00000  Uiso   1.00
N41    N     0.53955   0.07371   0.39979   0.00000  Uiso   1.00
N42    N     0.61582   0.35177   0.04613   0.00000  Uiso   1.00
N43    N     0.68817   0.63152   0.39684   0.00000  Uiso   1.00
N44    N     0.59094   0.97453   0.39829   0.00000  Uiso   1.00
N45    N     0.66721   0.25258   0.04464   0.00000  Uiso   1.00
N46    N     0.73956   0.53234   0.39534   0.00000  Uiso   1.00
C47    C     0.38458   0.13412   0.06109   0.00000  Uiso   1.00
C48    C     0.39225   0.23829   0.11812   0.00000  Uiso   1.00
C49    C     0.42682   0.26882   0.16707   0.00000  Uiso   1.00
C50    C     0.42801   0.36722   0.21488   0.00000  Uiso   1.00
C51    C     0.44483   0.51905   0.30356   0.00000  Uiso   1.00
C52    C     0.37086   0.15932   0.94159   0.00000  Uiso   1.00
C53    C     0.38745   0.12344   0.84211   0.00000  Uiso   1.00
C54    C     0.37062   0.15536   0.74131   0.00000  Uiso   1.00
C55    C     0.35422   0.18452   0.55592   0.00000  Uiso   1.00
C56    C     0.34994   0.08731   0.12209   0.00000  Uiso   1.00
C57    C     0.34893   0.99086   0.17435   0.00000  Uiso   1.00
C58    C     0.31449   0.96214   0.22550   0.00000  Uiso   1.00
C59    C     0.26560   0.87948   0.32037   0.00000  Uiso   1.00
C60    C     0.32519   0.25460   0.05896   0.00000  Uiso   1.00
C61    C     0.35999   0.30373   0.11696   0.00000  Uiso   1.00
C62    C     0.36112   0.40212   0.16472   0.00000  Uiso   1.00
C63    C     0.39569   0.43278   0.21373   0.00000  Uiso   1.00
C64    C     0.33860   0.22476   0.94043   0.00000  Uiso   1.00
C65    C     0.32174   0.25674   0.83976   0.00000  Uiso   1.00
C66    C     0.33831   0.22092   0.74015   0.00000  Uiso   1.00
C67    C     0.31768   0.15275   0.12094   0.00000  Uiso   1.00
C68    C     0.28323   0.12417   0.17201   0.00000  Uiso   1.00
C69    C     0.28217   0.02770   0.22434   0.00000  Uiso   1.00
H70    H     0.40969   0.08317   0.06198   0.00000  Uiso   1.00
H71    H     0.45178   0.21815   0.16793   0.00000  Uiso   1.00
H72    H     0.41241   0.07279   0.84303   0.00000  Uiso   1.00
H73    H     0.37390   0.94024   0.17522   0.00000  Uiso   1.00
H74    H     0.48423   0.39668   0.28486   0.00000  Uiso   1.00
H75    H     0.40120   0.09015   0.59978   0.00000  Uiso   1.00
H76    H     0.32000   0.81063   0.30028   0.00000  Uiso   1.00
H77    H     0.30008   0.30555   0.05806   0.00000  Uiso   1.00
H78    H     0.33615   0.45275   0.16381   0.00000  Uiso   1.00
H79    H     0.29678   0.30738   0.83890   0.00000  Uiso   1.00
H80    H     0.25827   0.17483   0.17110   0.00000  Uiso   1.00
H81    H     0.39038   0.58709   0.28151   0.00000  Uiso   1.00
H82    H     0.30735   0.28055   0.59642   0.00000  Uiso   1.00
H83    H     0.22615   0.00104   0.29693   0.00000  Uiso   1.00
O84    O     0.46302   0.58471   0.35278   0.00000  Uiso   1.00
O85    O     0.35408   0.18253   0.45398   0.00000  Uiso   1.00
O86    O     0.24755   0.81582   0.37303   0.00000  Uiso   1.00
N87    N     0.45719   0.42129   0.26958   0.00000  Uiso   1.00
N88    N     0.37956   0.13471   0.62906   0.00000  Uiso   1.00
N89    N     0.30364   0.87337   0.28395   0.00000  Uiso   1.00
N90    N     0.40669   0.52374   0.26778   0.00000  Uiso   1.00
N91    N     0.32907   0.23717   0.62726   0.00000  Uiso   1.00
N92    N     0.25314   0.97583   0.28215   0.00000  Uiso   1.00
C93    C     0.39002   0.63895   0.61432   0.00000  Uiso   1.00
C94    C     0.39687   0.74237   0.55481   0.00000  Uiso   1.00
C95    C     0.43126   0.77408   0.50563   0.00000  Uiso   1.00
C96    C     0.43166   0.87151   0.45539   0.00000  Uiso   1.00
C97    C     0.44730   0.02249   0.36319   0.00000  Uiso   1.00
C98    C     0.37585   0.66575   0.73296   0.00000  Uiso   1.00
C99    C     0.39257   0.63303   0.83355   0.00000  Uiso   1.00
C100   C     0.37527   0.66596   0.93327   0.00000  Uiso   1.00
C101   C     0.35826   0.69791   0.11764   0.00000  Uiso   1.00
C102   C     0.35591   0.58866   0.55400   0.00000  Uiso   1.00
C103   C     0.35586   0.49110   0.50414   0.00000  Uiso   1.00
C104   C     0.32178   0.45911   0.45321   0.00000  Uiso   1.00
C105   C     0.27382   0.37137   0.35972   0.00000  Uiso   1.00
C106   C     0.32958   0.75559   0.61257   0.00000  Uiso   1.00
C107   C     0.36404   0.80572   0.55387   0.00000  Uiso   1.00
C108   C     0.36439   0.90313   0.50369   0.00000  Uiso   1.00
C109   C     0.39877   0.93498   0.45443   0.00000  Uiso   1.00
C110   C     0.34302   0.72910   0.73201   0.00000  Uiso   1.00
C111   C     0.32570   0.76208   0.83161   0.00000  Uiso   1.00
C112   C     0.34239   0.72942   0.93232   0.00000  Uiso   1.00
C113   C     0.32308   0.65201   0.55304   0.00000  Uiso   1.00
C114   C     0.28899   0.62016   0.50219   0.00000  Uiso   1.00
C115   C     0.28889   0.52258   0.45226   0.00000  Uiso   1.00
H116   H     0.41557   0.58962   0.61507   0.00000  Uiso   1.00
H117   H     0.45666   0.72503   0.50639   0.00000  Uiso   1.00
H118   H     0.41797   0.58400   0.83426   0.00000  Uiso   1.00
H119   H     0.38127   0.44210   0.50489   0.00000  Uiso   1.00
H120   H     0.48773   0.90312   0.38552   0.00000  Uiso   1.00
H121   H     0.40615   0.60570   0.07684   0.00000  Uiso   1.00
H122   H     0.32877   0.30648   0.38232   0.00000  Uiso   1.00
H123   H     0.30402   0.80491   0.61183   0.00000  Uiso   1.00
H124   H     0.33898   0.95214   0.50296   0.00000  Uiso   1.00
H125   H     0.30029   0.81110   0.83084   0.00000  Uiso   1.00
H126   H     0.26360   0.66921   0.50147   0.00000  Uiso   1.00
H127   H     0.39222   0.08745   0.38274   0.00000  Uiso   1.00
H128   H     0.31064   0.79003   0.07407   0.00000  Uiso   1.00
H129   H     0.23326   0.49081   0.37954   0.00000  Uiso   1.00
O130   O     0.46499   0.08826   0.31261   0.00000  Uiso   1.00
O131   O     0.35796   0.69805   0.21960   0.00000  Uiso   1.00
O132   O     0.25643   0.30549   0.30839   0.00000  Uiso   1.00
N133   N     0.46045   0.92629   0.39979   0.00000  Uiso   1.00
N134   N     0.38418   0.64823   0.04613   0.00000  Uiso   1.00
N135   N     0.31183   0.36848   0.39684   0.00000  Uiso   1.00
N136   N     0.40906   0.02547   0.39829   0.00000  Uiso   1.00
N137   N     0.33279   0.74742   0.04464   0.00000  Uiso   1.00
N138   N     0.26044   0.46766   0.39534   0.00000  Uiso   1.00
C139   C     0.61542   0.86588   0.06109   0.00000  Uiso   1.00
C140   C     0.60775   0.76171   0.11812   0.00000  Uiso   1.00
C141   C     0.57318   0.73118   0.16707   0.00000  Uiso   1.00
C142   C     0.57199   0.63278   0.21488   0.00000  Uiso   1.00
C143   C     0.55517   0.48095   0.30356   0.00000  Uiso   1.00
C144   C     0.62914   0.84068   0.94159   0.00000  Uiso   1.00
C145   C     0.61255   0.87656   0.84211   0.00000  Uiso   1.00
C146   C     0.62938   0.84464   0.74131   0.00000  Uiso   1.00
C147   C     0.64578   0.81548   0.55592   0.00000  Uiso   1.00
C148   C     0.65006   0.91269   0.12209   0.00000  Uiso   1.00
C149   C     0.65107   0.00914   0.17435   0.00000  Uiso   1.00
C150   C     0.68551   0.03786   0.22550   0.00000  Uiso   1.00
C151   C     0.73440   0.12052   0.32037   0.00000  Uiso   1.00
C152   C     0.67481   0.74540   0.05896   0.00000  Uiso   1.00
C153   C     0.64001   0.69627   0.11696   0.00000  Uiso   1.00
C154   C     0.63888   0.59788   0.16472   0.00000  Uiso   1.00
C155   C     0.60431   0.56722   0.21373   0.00000  Uiso   1.00
C156   C     0.66140   0.77524   0.94043   0.00000  Uiso   1.00
C157   C     0.67826   0.74326   0.83976   0.00000  Uiso   1.00
C158   C     0.66169   0.77908   0.74015   0.00000  Uiso   1.00
C159   C     0.68232   0.84725   0.12094   0.00000  Uiso   1.00
C160   C     0.71677   0.87583   0.17201   0.00000  Uiso   1.00
C161   C     0.71783   0.97230   0.22434   0.00000  Uiso   1.00
H162   H     0.59031   0.91683   0.06198   0.00000  Uiso   1.00
H163   H     0.54822   0.78185   0.16793   0.00000  Uiso   1.00
H164   H     0.58759   0.92721   0.84303   0.00000  Uiso   1.00
H165   H     0.62610   0.05976   0.17522   0.00000  Uiso   1.00
H166   H     0.51577   0.60332   0.28486   0.00000  Uiso   1.00
H167   H     0.59880   0.90985   0.59978   0.00000  Uiso   1.00
H168   H     0.68000   0.18937   0.30028   0.00000  Uiso   1.00
H169   H     0.69992   0.69445   0.05806   0.00000  Uiso   1.00
H170   H     0.66385   0.54725   0.16381   0.00000  Uiso   1.00
H171   H     0.70322   0.69262   0.83890   0.00000  Uiso   1.00
H172   H     0.74173   0.82517   0.17110   0.00000  Uiso   1.00
H173   H     0.60962   0.41291   0.28151   0.00000  Uiso   1.00
H174   H     0.69265   0.71945   0.59642   0.00000  Uiso   1.00
H175   H     0.77385   0.99896   0.29693   0.00000  Uiso   1.00
O176   O     0.53698   0.41529   0.35278   0.00000  Uiso   1.00
O177   O     0.64592   0.81747   0.45398   0.00000  Uiso   1.00
O178   O     0.75245   0.18418   0.37303   0.00000  Uiso   1.00
N179   N     0.54281   0.57871   0.26958   0.00000  Uiso   1.00
N180   N     0.62044   0.86529   0.62906   0.00000  Uiso   1.00
N181   N     0.69636   0.12663   0.28395   0.00000  Uiso   1.00
N182   N     0.59331   0.47626   0.26778   0.00000  Uiso   1.00
N183   N     0.67093   0.76283   0.62726   0.00000  Uiso   1.00
N184   N     0.74686   0.02417   0.28215   0.00000  Uiso   1.00
C185   C     0.89002   0.86105   0.38568   0.00000  Uiso   1.00
C186   C     0.89687   0.75763   0.44519   0.00000  Uiso   1.00
C187   C     0.93126   0.72592   0.49437   0.00000  Uiso   1.00
C188   C     0.93166   0.62849   0.54461   0.00000  Uiso   1.00
C189   C     0.94730   0.47751   0.63681   0.00000  Uiso   1.00
C190   C     0.87585   0.83425   0.26704   0.00000  Uiso   1.00
C191   C     0.89257   0.86697   0.16645   0.00000  Uiso   1.00
C192   C     0.87527   0.83404   0.06673   0.00000  Uiso   1.00
C193   C     0.85826   0.80209   0.88236   0.00000  Uiso   1.00
C194   C     0.85591   0.91134   0.44600   0.00000  Uiso   1.00
C195   C     0.85586   0.00889   0.49586   0.00000  Uiso   1.00
C196   C     0.82178   0.04089   0.54679   0.00000  Uiso   1.00
C197   C     0.77382   0.12863   0.64028   0.00000  Uiso   1.00
C198   C     0.82958   0.74441   0.38743   0.00000  Uiso   1.00
C199   C     0.86404   0.69428   0.44613   0.00000  Uiso   1.00
C200   C     0.86439   0.59687   0.49631   0.00000  Uiso   1.00
C201   C     0.89877   0.56502   0.54557   0.00000  Uiso   1.00
C202   C     0.84302   0.77090   0.26799   0.00000  Uiso   1.00
C203   C     0.82570   0.73792   0.16839   0.00000  Uiso   1.00
C204   C     0.84239   0.77058   0.06768   0.00000  Uiso   1.00
C205   C     0.82308   0.84799   0.44696   0.00000  Uiso   1.00
C206   C     0.78899   0.87984   0.49781   0.00000  Uiso   1.00
C207   C     0.78889   0.97742   0.54774   0.00000  Uiso   1.00
H208   H     0.91557   0.91038   0.38493   0.00000  Uiso   1.00
H209   H     0.95666   0.77497   0.49361   0.00000  Uiso   1.00
H210   H     0.91797   0.91600   0.16574   0.00000  Uiso   1.00
H211   H     0.88127   0.05790   0.49511   0.00000  Uiso   1.00
H212   H     0.98773   0.59688   0.61448   0.00000  Uiso   1.00
H213   H     0.90615   0.89430   0.92316   0.00000  Uiso   1.00
H214   H     0.82877   0.19352   0.61768   0.00000  Uiso   1.00
H215   H     0.80402   0.69509   0.38817   0.00000  Uiso   1.00
H216   H     0.83898   0.54786   0.49704   0.00000  Uiso   1.00
H217   H     0.80029   0.68890   0.16916   0.00000  Uiso   1.00
H218   H     0.76360   0.83079   0.49853   0.00000  Uiso   1.00
H219   H     0.89222   0.41255   0.61726   0.00000  Uiso   1.00
H220   H     0.81064   0.70997   0.92593   0.00000  Uiso   1.00
H221   H     0.73326   0.00919   0.62046   0.00000  Uiso   1.00
O222   O     0.96499   0.41174   0.68739   0.00000  Uiso   1.00
O223   O     0.85796   0.80195   0.78040   0.00000  Uiso   1.00
O224   O     0.75643   0.19451   0.69161   0.00000  Uiso   1.00
N225   N     0.96045   0.57371   0.60021   0.00000  Uiso   1.00
N226   N     0.88418   0.85177   0.95387   0.00000  Uiso   1.00
N227   N     0.81183   0.13152   0.60316   0.00000  Uiso   1.00
N228   N     0.90906   0.47453   0.60171   0.00000  Uiso   1.00
N229   N     0.83279   0.75258   0.95536   0.00000  Uiso   1.00
N230   N     0.76044   0.03234   0.60466   0.00000  Uiso   1.00
C231   C     0.11542   0.63412   0.93891   0.00000  Uiso   1.00
C232   C     0.10775   0.73829   0.88188   0.00000  Uiso   1.00
C233   C     0.07318   0.76882   0.83293   0.00000  Uiso   1.00
C234   C     0.07199   0.86722   0.78512   0.00000  Uiso   1.00
C235   C     0.05517   0.01905   0.69644   0.00000  Uiso   1.00
C236   C     0.12914   0.65932   0.05841   0.00000  Uiso   1.00
C237   C     0.11255   0.62344   0.15789   0.00000  Uiso   1.00
C238   C     0.12938   0.65536   0.25869   0.00000  Uiso   1.00
C239   C     0.14578   0.68452   0.44408   0.00000  Uiso   1.00
C240   C     0.15006   0.58731   0.87791   0.00000  Uiso   1.00
C241   C     0.15107   0.49086   0.82565   0.00000  Uiso   1.00
C242   C     0.18551   0.46214   0.77450   0.00000  Uiso   1.00
C243   C     0.23440   0.37948   0.67963   0.00000  Uiso   1.00
C244   C     0.17481   0.75460   0.94104   0.00000  Uiso   1.00
C245   C     0.14001   0.80373   0.88304   0.00000  Uiso   1.00
C246   C     0.13888   0.90212   0.83528   0.00000  Uiso   1.00
C247   C     0.10431   0.93278   0.78627   0.00000  Uiso   1.00
C248   C     0.16140   0.72476   0.05957   0.00000  Uiso   1.00
C249   C     0.17826   0.75674   0.16024   0.00000  Uiso   1.00
C250   C     0.16169   0.72092   0.25985   0.00000  Uiso   1.00
C251   C     0.18232   0.65275   0.87906   0.00000  Uiso   1.00
C252   C     0.21677   0.62417   0.82799   0.00000  Uiso   1.00
C253   C     0.21783   0.52770   0.77566   0.00000  Uiso   1.00
H254   H     0.09031   0.58317   0.93802   0.00000  Uiso   1.00
H255   H     0.04822   0.71815   0.83207   0.00000  Uiso   1.00
H256   H     0.08759   0.57279   0.15697   0.00000  Uiso   1.00
H257   H     0.12610   0.44024   0.82478   0.00000  Uiso   1.00
H258   H     0.01577   0.89668   0.71514   0.00000  Uiso   1.00
H259   H     0.09880   0.59015   0.40022   0.00000  Uiso   1.00
H260   H     0.18000   0.31063   0.69972   0.00000  Uiso   1.00
H261   H     0.19992   0.80555   0.94194   0.00000  Uiso   1.00
H262   H     0.16385   0.95275   0.83619   0.00000  Uiso   1.00
H263   H     0.20322   0.80738   0.16110   0.00000  Uiso   1.00
H264   H     0.24173   0.67483   0.82890   0.00000  Uiso   1.00
H265   H     0.10962   0.08709   0.71849   0.00000  Uiso   1.00
H266   H     0.19265   0.78055   0.40358   0.00000  Uiso   1.00
H267   H     0.27385   0.50104   0.70307   0.00000  Uiso   1.00
O268   O     0.03698   0.08471   0.64722   0.00000  Uiso   1.00
O269   O     0.14592   0.68253   0.54602   0.00000  Uiso   1.00
O270   O     0.25245   0.31582   0.62697   0.00000  Uiso   1.00
N271   N     0.04281   0.92129   0.73042   0.00000  Uiso   1.00
N272   N     0.12044   0.63471   0.37094   0.00000  Uiso   1.00
N273   N     0.19636   0.37337   0.71605   0.00000  Uiso   1.00
N274   N     0.09331   0.02374   0.73222   0.00000  Uiso   1.00
N275   N     0.17093   0.73717   0.37274   0.00000  Uiso   1.00
N276   N     0.24686   0.47583   0.71785   0.00000  Uiso   1.00
C277   C     0.10998   0.13895   0.38568   0.00000  Uiso   1.00
C278   C     0.10313   0.24237   0.44519   0.00000  Uiso   1.00
C279   C     0.06874   0.27408   0.49437   0.00000  Uiso   1.00
C280   C     0.06834   0.37151   0.54461   0.00000  Uiso   1.00
C281   C     0.05270   0.52249   0.63681   0.00000  Uiso   1.00
C282   C     0.12415   0.16575   0.26704   0.00000  Uiso   1.00
C283   C     0.10743   0.13303   0.16645   0.00000  Uiso   1.00
C284   C     0.12473   0.16596   0.06673   0.00000  Uiso   1.00
C285   C     0.14174   0.19791   0.88236   0.00000  Uiso   1.00
C286   C     0.14409   0.08866   0.44600   0.00000  Uiso   1.00
C287   C     0.14414   0.99110   0.49586   0.00000  Uiso   1.00
C288   C     0.17822   0.95911   0.54679   0.00000  Uiso   1.00
C289   C     0.22618   0.87137   0.64028   0.00000  Uiso   1.00
C290   C     0.17042   0.25559   0.38743   0.00000  Uiso   1.00
C291   C     0.13596   0.30572   0.44613   0.00000  Uiso   1.00
C292   C     0.13561   0.40313   0.49631   0.00000  Uiso   1.00
C293   C     0.10123   0.43498   0.54557   0.00000  Uiso   1.00
C294   C     0.15698   0.22910   0.26799   0.00000  Uiso   1.00
C295   C     0.17430   0.26208   0.16839   0.00000  Uiso   1.00
C296   C     0.15761   0.22942   0.06768   0.00000  Uiso   1.00
C297   C     0.17692   0.15201   0.44696   0.00000  Uiso   1.00
C298   C     0.21101   0.12016   0.49781   0.00000  Uiso   1.00
C299   C     0.21111   0.02258   0.54774   0.00000  Uiso   1.00
H300   H     0.08443   0.08962   0.38493   0.00000  Uiso   1.00
H301   H     0.04334   0.22503   0.49361   0.00000  Uiso   1.00
H302   H     0.08203   0.08400   0.16574   0.00000  Uiso   1.00
H303   H     0.11873   0.94210   0.49511   0.00000  Uiso   1.00
H304   H     0.01227   0.40312   0.61448   0.00000  Uiso   1.00
H305   H     0.09385   0.10570   0.92316   0.00000  Uiso   1.00
H306   H     0.17123   0.80648   0.61768   0.00000  Uiso   1.00
H307   H     0.19598   0.30491   0.38817   0.00000  Uiso   1.00
H308   H     0.16102   0.45214   0.49704   0.00000  Uiso   1.00
H309   H     0.19971   0.31110   0.16916   0.00000  Uiso   1.00
H310   H     0.23640   0.16921   0.49853   0.00000  Uiso   1.00
H311   H     0.10778   0.58745   0.61726   0.00000  Uiso   1.00
H312   H     0.18936   0.29003   0.92593   0.00000  Uiso   1.00
H313   H     0.26674   0.99081   0.62046   0.00000  Uiso   1.00
O314   O     0.03501   0.58826   0.68739   0.00000  Uiso   1.00
O315   O     0.14204   0.19805   0.78040   0.00000  Uiso   1.00
O316   O     0.24357   0.80549   0.69161   0.00000  Uiso   1.00
N317   N     0.03955   0.42629   0.60021   0.00000  Uiso   1.00
N318   N     0.11582   0.14823   0.95387   0.00000  Uiso   1.00
N319   N     0.18817   0.86848   0.60316   0.00000  Uiso   1.00
N320   N     0.09094   0.52547   0.60171   0.00000  Uiso   1.00
N321   N     0.16721   0.24742   0.95536   0.00000  Uiso   1.00
N322   N     0.23956   0.96766   0.60466   0.00000  Uiso   1.00
C323   C     0.88458   0.36588   0.93891   0.00000  Uiso   1.00
C324   C     0.89225   0.26171   0.88188   0.00000  Uiso   1.00
C325   C     0.92682   0.23118   0.83293   0.00000  Uiso   1.00
C326   C     0.92801   0.13278   0.78512   0.00000  Uiso   1.00
C327   C     0.94483   0.98095   0.69644   0.00000  Uiso   1.00
C328   C     0.87086   0.34068   0.05841   0.00000  Uiso   1.00
C329   C     0.88745   0.37656   0.15789   0.00000  Uiso   1.00
C330   C     0.87062   0.34464   0.25869   0.00000  Uiso   1.00
C331   C     0.85422   0.31548   0.44408   0.00000  Uiso   1.00
C332   C     0.84994   0.41269   0.87791   0.00000  Uiso   1.00
C333   C     0.84893   0.50914   0.82565   0.00000  Uiso   1.00
C334   C     0.81449   0.53786   0.77450   0.00000  Uiso   1.00
C335   C     0.76560   0.62052   0.67963   0.00000  Uiso   1.00
C336   C     0.82519   0.24540   0.94104   0.00000  Uiso   1.00
C337   C     0.85999   0.19627   0.88304   0.00000  Uiso   1.00
C338   C     0.86112   0.09788   0.83528   0.00000  Uiso   1.00
C339   C     0.89569   0.06722   0.78627   0.00000  Uiso   1.00
C340   C     0.83860   0.27524   0.05957   0.00000  Uiso   1.00
C341   C     0.82174   0.24326   0.16024   0.00000  Uiso   1.00
C342   C     0.83831   0.27908   0.25985   0.00000  Uiso   1.00
C343   C     0.81768   0.34725   0.87906   0.00000  Uiso   1.00
C344   C     0.78323   0.37583   0.82799   0.00000  Uiso   1.00
C345   C     0.78217   0.47230   0.77566   0.00000  Uiso   1.00
H346   H     0.90969   0.41683   0.93802   0.00000  Uiso   1.00
H347   H     0.95178   0.28185   0.83207   0.00000  Uiso   1.00
H348   H     0.91241   0.42721   0.15697   0.00000  Uiso   1.00
H349   H     0.87390   0.55976   0.82478   0.00000  Uiso   1.00
H350   H     0.98423   0.10332   0.71514   0.00000  Uiso   1.00
H351   H     0.90120   0.40985   0.40022   0.00000  Uiso   1.00
H352   H     0.82000   0.68937   0.69972   0.00000  Uiso   1.00
H353   H     0.80008   0.19445   0.94194   0.00000  Uiso   1.00
H354   H     0.83615   0.04725   0.83619   0.00000  Uiso   1.00
H355   H     0.79678   0.19262   0.16110   0.00000  Uiso   1.00
H356   H     0.75827   0.32517   0.82890   0.00000  Uiso   1.00
H357   H     0.89038   0.91291   0.71849   0.00000  Uiso   1.00
H358   H     0.80735   0.21945   0.40358   0.00000  Uiso   1.00
H359   H     0.72615   0.49896   0.70307   0.00000  Uiso   1.00
O360   O     0.96302   0.91529   0.64722   0.00000  Uiso   1.00
O361   O     0.85408   0.31747   0.54602   0.00000  Uiso   1.00
O362   O     0.74755   0.68418   0.62697   0.00000  Uiso   1.00
N363   N     0.95719   0.07871   0.73042   0.00000  Uiso   1.00
N364   N     0.87956   0.36529   0.37094   0.00000  Uiso   1.00
N365   N     0.80364   0.62663   0.71605   0.00000  Uiso   1.00
N366   N     0.90669   0.97626   0.73222   0.00000  Uiso   1.00
N367   N     0.82907   0.26283   0.37274   0.00000  Uiso   1.00
N368   N     0.75314   0.52417   0.71785   0.00000  Uiso   1.00
