data_job_06915
_audit_creation_date              2018-12-19
_audit_creation_method            'Materials Studio'
_symmetry_space_group_name_H-M    'P1'
_symmetry_Int_Tables_number       1
_symmetry_cell_setting            triclinic
loop_
_symmetry_equiv_pos_as_xyz
  x,y,z
_cell_length_a                    22.9208
_cell_length_b                    21.9700
_cell_length_c                    19.7665
_cell_angle_alpha                 97.4141
_cell_angle_beta                  106.0870
_cell_angle_gamma                 103.9210
loop_
_atom_site_label
_atom_site_type_symbol
_atom_site_fract_x
_atom_site_fract_y
_atom_site_fract_z
_atom_site_U_iso_or_equiv
_atom_site_adp_type
_atom_site_occupancy
C1     C     0.44298   0.59291   0.13702   0.00000  Uiso   1.00
C2     C     0.45772   0.60758   0.21853   0.00000  Uiso   1.00
C3     C     0.50878   0.65553   0.26716   0.00000  Uiso   1.00
C4     C     0.51396   0.66120   0.33951   0.00000  Uiso   1.00
C5     C     0.54361   0.69017   0.46260   0.00000  Uiso   1.00
C6     C     0.43953   0.52252   0.11626   0.00000  Uiso   1.00
C7     C     0.47530   0.49897   0.07890   0.00000  Uiso   1.00
C8     C     0.46515   0.43303   0.06515   0.00000  Uiso   1.00
C9     C     0.46653   0.32995   0.02941   0.00000  Uiso   1.00
C10    C     0.37575   0.59707   0.10507   0.00000  Uiso   1.00
C11    C     0.35788   0.63618   0.05828   0.00000  Uiso   1.00
C12    C     0.29402   0.63300   0.03509   0.00000  Uiso   1.00
C13    C     0.19637   0.64566   0.98198   0.00000  Uiso   1.00
C14    C     0.36135   0.51769   0.17902   0.00000  Uiso   1.00
C15    C     0.41339   0.56672   0.24134   0.00000  Uiso   1.00
C16    C     0.41848   0.57231   0.31363   0.00000  Uiso   1.00
C17    C     0.46954   0.62027   0.36236   0.00000  Uiso   1.00
C18    C     0.39520   0.48166   0.13907   0.00000  Uiso   1.00
C19    C     0.38499   0.41575   0.12536   0.00000  Uiso   1.00
C20    C     0.42073   0.39210   0.08800   0.00000  Uiso   1.00
C21    C     0.33141   0.55621   0.12788   0.00000  Uiso   1.00
C22    C     0.26757   0.55296   0.10475   0.00000  Uiso   1.00
C23    C     0.24960   0.59206   0.05794   0.00000  Uiso   1.00
H24    H     0.47749   0.62471   0.11926   0.00000  Uiso   1.00
H25    H     0.54309   0.68714   0.24949   0.00000  Uiso   1.00
H26    H     0.50960   0.53060   0.06125   0.00000  Uiso   1.00
H27    H     0.39220   0.66779   0.04064   0.00000  Uiso   1.00
H28    H     0.59627   0.73832   0.40393   0.00000  Uiso   1.00
H29    H     0.52564   0.40824   0.00699   0.00000  Uiso   1.00
H30    H     0.27808   0.69754   0.96353   0.00000  Uiso   1.00
H31    H     0.32683   0.48587   0.19678   0.00000  Uiso   1.00
H32    H     0.38416   0.54069   0.33127   0.00000  Uiso   1.00
H33    H     0.35067   0.38414   0.14302   0.00000  Uiso   1.00
H34    H     0.23327   0.52134   0.12241   0.00000  Uiso   1.00
H35    H     0.46728   0.61945   0.47030   0.00000  Uiso   1.00
H36    H     0.39665   0.28937   0.07336   0.00000  Uiso   1.00
H37    H     0.14909   0.57867   0.02990   0.00000  Uiso   1.00
O38    O     0.57222   0.71744   0.52419   0.00000  Uiso   1.00
O39    O     0.47955   0.28438   0.00341   0.00000  Uiso   1.00
O40    O     0.15475   0.66394   0.94639   0.00000  Uiso   1.00
N41    N     0.55804   0.70283   0.40109   0.00000  Uiso   1.00
N42    N     0.49201   0.39422   0.02999   0.00000  Uiso   1.00
N43    N     0.26056   0.66469   0.98934   0.00000  Uiso   1.00
N44    N     0.48863   0.63887   0.43681   0.00000  Uiso   1.00
N45    N     0.42261   0.33026   0.06571   0.00000  Uiso   1.00
N46    N     0.19115   0.60072   0.02506   0.00000  Uiso   1.00
C47    C     0.17345   0.36835   0.56313   0.00000  Uiso   1.00
C48    C     0.22819   0.40935   0.62890   0.00000  Uiso   1.00
C49    C     0.22597   0.46032   0.67655   0.00000  Uiso   1.00
C50    C     0.28110   0.49175   0.73334   0.00000  Uiso   1.00
C51    C     0.35769   0.55831   0.83410   0.00000  Uiso   1.00
C52    C     0.19777   0.37259   0.49897   0.00000  Uiso   1.00
C53    C     0.16997   0.39266   0.43738   0.00000  Uiso   1.00
C54    C     0.19949   0.39314   0.38479   0.00000  Uiso   1.00
C55    C     0.22883   0.40259   0.28382   0.00000  Uiso   1.00
C56    C     0.16419   0.29924   0.57257   0.00000  Uiso   1.00
C57    C     0.10815   0.25762   0.57285   0.00000  Uiso   1.00
C58    C     0.10939   0.19633   0.58221   0.00000  Uiso   1.00
C59    C     0.08659   0.09189   0.59552   0.00000  Uiso   1.00
C60    C     0.27530   0.33351   0.57924   0.00000  Uiso   1.00
C61    C     0.28351   0.39042   0.63764   0.00000  Uiso   1.00
C62    C     0.33865   0.42178   0.69438   0.00000  Uiso   1.00
C63    C     0.33652   0.47280   0.74211   0.00000  Uiso   1.00
C64    C     0.25309   0.35367   0.50772   0.00000  Uiso   1.00
C65    C     0.28266   0.35411   0.45521   0.00000  Uiso   1.00
C66    C     0.25491   0.37418   0.39356   0.00000  Uiso   1.00
C67    C     0.21951   0.28031   0.58132   0.00000  Uiso   1.00
C68    C     0.22084   0.21908   0.59068   0.00000  Uiso   1.00
C69    C     0.16481   0.17738   0.59098   0.00000  Uiso   1.00
H70    H     0.13038   0.38308   0.55632   0.00000  Uiso   1.00
H71    H     0.18315   0.47496   0.66976   0.00000  Uiso   1.00
H72    H     0.12716   0.40729   0.43062   0.00000  Uiso   1.00
H73    H     0.06535   0.27228   0.56608   0.00000  Uiso   1.00
H74    H     0.26606   0.56849   0.79937   0.00000  Uiso   1.00
H75    H     0.14798   0.42579   0.29513   0.00000  Uiso   1.00
H76    H     0.01764   0.14109   0.58076   0.00000  Uiso   1.00
H77    H     0.31837   0.31878   0.58606   0.00000  Uiso   1.00
H78    H     0.38146   0.40713   0.70113   0.00000  Uiso   1.00
H79    H     0.32546   0.33947   0.46200   0.00000  Uiso   1.00
H80    H     0.26366   0.20445   0.59745   0.00000  Uiso   1.00
H81    H     0.42701   0.51344   0.82483   0.00000  Uiso   1.00
H82    H     0.30894   0.37074   0.32059   0.00000  Uiso   1.00
H83    H     0.17860   0.08604   0.60622   0.00000  Uiso   1.00
O84    O     0.38465   0.60026   0.88725   0.00000  Uiso   1.00
O85    O     0.22973   0.41303   0.22571   0.00000  Uiso   1.00
O86    O     0.05873   0.03951   0.60045   0.00000  Uiso   1.00
N87    N     0.29528   0.54340   0.78958   0.00000  Uiso   1.00
N88    N     0.18489   0.41000   0.31815   0.00000  Uiso   1.00
N89    N     0.06303   0.14382   0.58517   0.00000  Uiso   1.00
N90    N     0.38189   0.51378   0.80328   0.00000  Uiso   1.00
N91    N     0.27150   0.38038   0.33185   0.00000  Uiso   1.00
N92    N     0.14964   0.11420   0.59887   0.00000  Uiso   1.00
C93    C     0.63917   0.21724   0.33960   0.00000  Uiso   1.00
C94    C     0.69350   0.26750   0.33015   0.00000  Uiso   1.00
C95    C     0.75037   0.30064   0.38356   0.00000  Uiso   1.00
C96    C     0.79401   0.34467   0.36411   0.00000  Uiso   1.00
C97    C     0.88031   0.42114   0.36014   0.00000  Uiso   1.00
C98    C     0.58067   0.24059   0.31590   0.00000  Uiso   1.00
C99    C     0.54266   0.25110   0.35733   0.00000  Uiso   1.00
C100   C     0.49131   0.27246   0.32587   0.00000  Uiso   1.00
C101   C     0.40240   0.30710   0.29977   0.00000  Uiso   1.00
C102   C     0.62716   0.15684   0.28399   0.00000  Uiso   1.00
C103   C     0.62821   0.09692   0.29858   0.00000  Uiso   1.00
C104   C     0.61599   0.04777   0.24026   0.00000  Uiso   1.00
C105   C     0.59926   0.95237   0.16461   0.00000  Uiso   1.00
C106   C     0.61556   0.23649   0.21008   0.00000  Uiso   1.00
C107   C     0.68067   0.27795   0.25980   0.00000  Uiso   1.00
C108   C     0.72424   0.32194   0.24026   0.00000  Uiso   1.00
C109   C     0.78116   0.35514   0.29363   0.00000  Uiso   1.00
C110   C     0.56784   0.25104   0.24556   0.00000  Uiso   1.00
C111   C     0.51653   0.27239   0.21403   0.00000  Uiso   1.00
C112   C     0.47845   0.28293   0.25540   0.00000  Uiso   1.00
C113   C     0.61433   0.16729   0.21364   0.00000  Uiso   1.00
C114   C     0.60209   0.11822   0.15529   0.00000  Uiso   1.00
C115   C     0.60314   0.05824   0.16978   0.00000  Uiso   1.00
H116   H     0.64915   0.20911   0.39437   0.00000  Uiso   1.00
H117   H     0.76027   0.29255   0.43800   0.00000  Uiso   1.00
H118   H     0.55259   0.24300   0.41177   0.00000  Uiso   1.00
H119   H     0.63814   0.08885   0.35303   0.00000  Uiso   1.00
H120   H     0.87781   0.38968   0.45535   0.00000  Uiso   1.00
H121   H     0.43989   0.28518   0.40003   0.00000  Uiso   1.00
H122   H     0.62028   0.96013   0.27617   0.00000  Uiso   1.00
H123   H     0.60557   0.24463   0.15531   0.00000  Uiso   1.00
H124   H     0.71430   0.33002   0.18582   0.00000  Uiso   1.00
H125   H     0.50662   0.28047   0.15959   0.00000  Uiso   1.00
H126   H     0.59217   0.12632   0.10085   0.00000  Uiso   1.00
H127   H     0.84049   0.42010   0.25067   0.00000  Uiso   1.00
H128   H     0.40257   0.31560   0.19535   0.00000  Uiso   1.00
H129   H     0.58297   0.99055   0.07149   0.00000  Uiso   1.00
O130   O     0.93145   0.46044   0.37740   0.00000  Uiso   1.00
O131   O     0.35691   0.32333   0.30481   0.00000  Uiso   1.00
O132   O     0.59359   0.89687   0.14232   0.00000  Uiso   1.00
N133   N     0.85411   0.38511   0.40299   0.00000  Uiso   1.00
N134   N     0.44468   0.28742   0.35127   0.00000  Uiso   1.00
N135   N     0.61332   0.98352   0.23547   0.00000  Uiso   1.00
N136   N     0.83403   0.40148   0.29285   0.00000  Uiso   1.00
N137   N     0.42460   0.30379   0.24113   0.00000  Uiso   1.00
N138   N     0.59324   0.99989   0.12534   0.00000  Uiso   1.00
C139   C     0.87311   0.76336   0.08640   0.00000  Uiso   1.00
C140   C     0.83580   0.80140   0.11802   0.00000  Uiso   1.00
C141   C     0.86173   0.85564   0.17314   0.00000  Uiso   1.00
C142   C     0.81958   0.88350   0.19440   0.00000  Uiso   1.00
C143   C     0.77165   0.94646   0.24845   0.00000  Uiso   1.00
C144   C     0.85222   0.76196   0.00581   0.00000  Uiso   1.00
C145   C     0.89196   0.78303   0.96659   0.00000  Uiso   1.00
C146   C     0.86363   0.77768   0.89339   0.00000  Uiso   1.00
C147   C     0.84120   0.77937   0.77322   0.00000  Uiso   1.00
C148   C     0.84840   0.69453   0.09407   0.00000  Uiso   1.00
C149   C     0.88494   0.65889   0.12904   0.00000  Uiso   1.00
C150   C     0.85339   0.59676   0.13013   0.00000  Uiso   1.00
C151   C     0.82504   0.49376   0.14700   0.00000  Uiso   1.00
C152   C     0.75214   0.71637   0.02614   0.00000  Uiso   1.00
C153   C     0.77009   0.77587   0.08528   0.00000  Uiso   1.00
C154   C     0.72789   0.80365   0.10646   0.00000  Uiso   1.00
C155   C     0.75376   0.85793   0.16161   0.00000  Uiso   1.00
C156   C     0.78652   0.73643   0.97308   0.00000  Uiso   1.00
C157   C     0.75812   0.73104   0.89991   0.00000  Uiso   1.00
C158   C     0.79781   0.75211   0.86059   0.00000  Uiso   1.00
C159   C     0.78270   0.66900   0.06134   0.00000  Uiso   1.00
C160   C     0.75109   0.60691   0.06237   0.00000  Uiso   1.00
C161   C     0.78757   0.57119   0.09734   0.00000  Uiso   1.00
H162   H     0.92426   0.78323   0.11188   0.00000  Uiso   1.00
H163   H     0.91258   0.87538   0.19846   0.00000  Uiso   1.00
H164   H     0.94280   0.80277   0.99194   0.00000  Uiso   1.00
H165   H     0.93578   0.67866   0.15437   0.00000  Uiso   1.00
H166   H     0.87066   0.96631   0.27999   0.00000  Uiso   1.00
H167   H     0.93439   0.81319   0.84452   0.00000  Uiso   1.00
H168   H     0.91958   0.55147   0.18704   0.00000  Uiso   1.00
H169   H     0.70098   0.69650   0.00065   0.00000  Uiso   1.00
H170   H     0.67705   0.78389   0.08112   0.00000  Uiso   1.00
H171   H     0.70727   0.71129   0.87460   0.00000  Uiso   1.00
H172   H     0.70025   0.58717   0.03703   0.00000  Uiso   1.00
H173   H     0.67949   0.89205   0.18475   0.00000  Uiso   1.00
H174   H     0.74322   0.73894   0.74929   0.00000  Uiso   1.00
H175   H     0.72841   0.47722   0.09180   0.00000  Uiso   1.00
O176   O     0.76336   0.98825   0.28730   0.00000  Uiso   1.00
O177   O     0.84697   0.78736   0.71599   0.00000  Uiso   1.00
O178   O     0.82754   0.44399   0.16536   0.00000  Uiso   1.00
N179   N     0.82895   0.93683   0.24654   0.00000  Uiso   1.00
N180   N     0.88853   0.79369   0.83941   0.00000  Uiso   1.00
N181   N     0.87469   0.54900   0.15961   0.00000  Uiso   1.00
N182   N     0.72608   0.89687   0.19529   0.00000  Uiso   1.00
N183   N     0.78567   0.75373   0.78816   0.00000  Uiso   1.00
N184   N     0.77182   0.50904   0.10837   0.00000  Uiso   1.00
C185   C     0.66756   0.11312   0.89150   0.00000  Uiso   1.00
C186   C     0.72952   0.14669   0.88019   0.00000  Uiso   1.00
C187   C     0.77911   0.19531   0.92996   0.00000  Uiso   1.00
C188   C     0.83174   0.21974   0.90933   0.00000  Uiso   1.00
C189   C     0.92753   0.27540   0.90212   0.00000  Uiso   1.00
C190   C     0.66219   0.04175   0.87843   0.00000  Uiso   1.00
C191   C     0.65516   0.00214   0.92671   0.00000  Uiso   1.00
C192   C     0.65112   0.93823   0.90459   0.00000  Uiso   1.00
C193   C     0.64233   0.83097   0.89462   0.00000  Uiso   1.00
C194   C     0.61459   0.12139   0.83013   0.00000  Uiso   1.00
C195   C     0.56753   0.14873   0.83781   0.00000  Uiso   1.00
C196   C     0.52341   0.15185   0.77502   0.00000  Uiso   1.00
C197   C     0.44072   0.16824   0.69006   0.00000  Uiso   1.00
C198   C     0.67285   0.07004   0.76635   0.00000  Uiso   1.00
C199   C     0.73239   0.12328   0.81221   0.00000  Uiso   1.00
C200   C     0.78497   0.14765   0.79150   0.00000  Uiso   1.00
C201   C     0.83463   0.19630   0.84123   0.00000  Uiso   1.00
C202   C     0.66507   0.01835   0.81045   0.00000  Uiso   1.00
C203   C     0.66102   0.95448   0.78825   0.00000  Uiso   1.00
C204   C     0.65400   0.91479   0.83649   0.00000  Uiso   1.00
C205   C     0.61747   0.09799   0.76215   0.00000  Uiso   1.00
C206   C     0.57340   0.10106   0.69934   0.00000  Uiso   1.00
C207   C     0.52629   0.12841   0.70692   0.00000  Uiso   1.00
H208   H     0.66531   0.13133   0.94443   0.00000  Uiso   1.00
H209   H     0.77686   0.21340   0.98257   0.00000  Uiso   1.00
H210   H     0.65293   0.02026   0.97931   0.00000  Uiso   1.00
H211   H     0.56532   0.16683   0.89042   0.00000  Uiso   1.00
H212   H     0.90182   0.29406   0.99489   0.00000  Uiso   1.00
H213   H     0.64048   0.88681   0.98801   0.00000  Uiso   1.00
H214   H     0.45573   0.19587   0.80056   0.00000  Uiso   1.00
H215   H     0.67509   0.05181   0.71343   0.00000  Uiso   1.00
H216   H     0.78718   0.12953   0.73889   0.00000  Uiso   1.00
H217   H     0.66325   0.93639   0.73564   0.00000  Uiso   1.00
H218   H     0.57564   0.08295   0.64675   0.00000  Uiso   1.00
H219   H     0.91019   0.22598   0.79711   0.00000  Uiso   1.00
H220   H     0.64885   0.81873   0.79024   0.00000  Uiso   1.00
H221   H     0.46411   0.12779   0.60279   0.00000  Uiso   1.00
O222   O     0.97957   0.31256   0.91693   0.00000  Uiso   1.00
O223   O     0.63670   0.77827   0.90791   0.00000  Uiso   1.00
O224   O     0.39432   0.18375   0.66198   0.00000  Uiso   1.00
N225   N     0.88840   0.26738   0.94484   0.00000  Uiso   1.00
N226   N     0.64408   0.88663   0.93842   0.00000  Uiso   1.00
N227   N     0.47134   0.17556   0.76317   0.00000  Uiso   1.00
N228   N     0.89290   0.23075   0.83842   0.00000  Uiso   1.00
N229   N     0.64858   0.85000   0.83200   0.00000  Uiso   1.00
N230   N     0.47585   0.13893   0.65675   0.00000  Uiso   1.00
C231   C     0.09617   0.81002   0.59168   0.00000  Uiso   1.00
C232   C     0.12344   0.79130   0.66287   0.00000  Uiso   1.00
C233   C     0.18454   0.81847   0.71050   0.00000  Uiso   1.00
C234   C     0.20034   0.79467   0.77273   0.00000  Uiso   1.00
C235   C     0.24933   0.77311   0.88115   0.00000  Uiso   1.00
C236   C     0.03688   0.82810   0.59588   0.00000  Uiso   1.00
C237   C     0.02519   0.88619   0.58718   0.00000  Uiso   1.00
C238   C     0.96811   0.89337   0.59301   0.00000  Uiso   1.00
C239   C     0.88269   0.92891   0.59737   0.00000  Uiso   1.00
C240   C     0.07297   0.74861   0.53399   0.00000  Uiso   1.00
C241   C     0.09161   0.73987   0.47324   0.00000  Uiso   1.00
C242   C     0.06491   0.68013   0.42695   0.00000  Uiso   1.00
C243   C     0.03552   0.59226   0.33522   0.00000  Uiso   1.00
C244   C     0.01558   0.71946   0.61750   0.00000  Uiso   1.00
C245   C     0.07966   0.74211   0.67689   0.00000  Uiso   1.00
C246   C     0.09537   0.71827   0.73906   0.00000  Uiso   1.00
C247   C     0.15649   0.74539   0.78678   0.00000  Uiso   1.00
C248   C     0.99310   0.77891   0.60990   0.00000  Uiso   1.00
C249   C     0.93603   0.78600   0.61574   0.00000  Uiso   1.00
C250   C     0.92426   0.84409   0.60705   0.00000  Uiso   1.00
C251   C     0.02919   0.69942   0.54801   0.00000  Uiso   1.00
C252   C     0.00245   0.63968   0.50181   0.00000  Uiso   1.00
C253   C     0.02105   0.63085   0.44100   0.00000  Uiso   1.00
H254   H     0.13025   0.84832   0.58076   0.00000  Uiso   1.00
H255   H     0.21840   0.85654   0.69963   0.00000  Uiso   1.00
H256   H     0.05907   0.92425   0.57632   0.00000  Uiso   1.00
H257   H     0.12549   0.77795   0.46240   0.00000  Uiso   1.00
H258   H     0.29682   0.84397   0.83761   0.00000  Uiso   1.00
H259   H     0.96086   0.98674   0.57758   0.00000  Uiso   1.00
H260   H     0.10091   0.67824   0.33736   0.00000  Uiso   1.00
H261   H     0.98150   0.68116   0.62842   0.00000  Uiso   1.00
H262   H     0.06149   0.68020   0.74990   0.00000  Uiso   1.00
H263   H     0.90216   0.74792   0.62659   0.00000  Uiso   1.00
H264   H     0.96858   0.60162   0.51267   0.00000  Uiso   1.00
H265   H     0.16946   0.70086   0.87842   0.00000  Uiso   1.00
H266   H     0.83350   0.84362   0.61838   0.00000  Uiso   1.00
H267   H     0.97355   0.53512   0.37817   0.00000  Uiso   1.00
O268   O     0.28844   0.77482   0.93708   0.00000  Uiso   1.00
O269   O     0.84767   0.96211   0.59591   0.00000  Uiso   1.00
O270   O     0.03141   0.55737   0.28076   0.00000  Uiso   1.00
N271   N     0.25587   0.81041   0.83054   0.00000  Uiso   1.00
N272   N     0.94178   0.94389   0.58743   0.00000  Uiso   1.00
N273   N     0.07270   0.65548   0.36284   0.00000  Uiso   1.00
N274   N     0.18734   0.73340   0.85249   0.00000  Uiso   1.00
N275   N     0.87325   0.86688   0.60939   0.00000  Uiso   1.00
N276   N     0.00417   0.57847   0.38479   0.00000  Uiso   1.00
C277   C     0.55702   0.40709   0.86298   0.00000  Uiso   1.00
C278   C     0.54228   0.39242   0.78147   0.00000  Uiso   1.00
C279   C     0.49122   0.34447   0.73284   0.00000  Uiso   1.00
C280   C     0.48604   0.33880   0.66049   0.00000  Uiso   1.00
C281   C     0.45639   0.30983   0.53740   0.00000  Uiso   1.00
C282   C     0.56047   0.47748   0.88374   0.00000  Uiso   1.00
C283   C     0.52470   0.50103   0.92110   0.00000  Uiso   1.00
C284   C     0.53485   0.56697   0.93485   0.00000  Uiso   1.00
C285   C     0.53347   0.67005   0.97059   0.00000  Uiso   1.00
C286   C     0.62425   0.40293   0.89493   0.00000  Uiso   1.00
C287   C     0.64212   0.36382   0.94172   0.00000  Uiso   1.00
C288   C     0.70598   0.36700   0.96491   0.00000  Uiso   1.00
C289   C     0.80363   0.35434   0.01802   0.00000  Uiso   1.00
C290   C     0.63865   0.48231   0.82098   0.00000  Uiso   1.00
C291   C     0.58661   0.43328   0.75866   0.00000  Uiso   1.00
C292   C     0.58152   0.42769   0.68637   0.00000  Uiso   1.00
C293   C     0.53046   0.37973   0.63764   0.00000  Uiso   1.00
C294   C     0.60480   0.51834   0.86093   0.00000  Uiso   1.00
C295   C     0.61501   0.58425   0.87464   0.00000  Uiso   1.00
C296   C     0.57927   0.60790   0.91200   0.00000  Uiso   1.00
C297   C     0.66859   0.44379   0.87212   0.00000  Uiso   1.00
C298   C     0.73243   0.44704   0.89525   0.00000  Uiso   1.00
C299   C     0.75040   0.40794   0.94206   0.00000  Uiso   1.00
H300   H     0.52251   0.37529   0.88074   0.00000  Uiso   1.00
H301   H     0.45691   0.31286   0.75051   0.00000  Uiso   1.00
H302   H     0.49040   0.46940   0.93875   0.00000  Uiso   1.00
H303   H     0.60780   0.33221   0.95936   0.00000  Uiso   1.00
H304   H     0.40373   0.26168   0.59607   0.00000  Uiso   1.00
H305   H     0.47436   0.59176   0.99301   0.00000  Uiso   1.00
H306   H     0.72192   0.30246   0.03647   0.00000  Uiso   1.00
H307   H     0.67317   0.51413   0.80322   0.00000  Uiso   1.00
H308   H     0.61584   0.45931   0.66873   0.00000  Uiso   1.00
H309   H     0.64933   0.61586   0.85698   0.00000  Uiso   1.00
H310   H     0.76673   0.47866   0.87759   0.00000  Uiso   1.00
H311   H     0.53272   0.38055   0.52970   0.00000  Uiso   1.00
H312   H     0.60335   0.71063   0.92664   0.00000  Uiso   1.00
H313   H     0.85091   0.42133   0.97010   0.00000  Uiso   1.00
O314   O     0.42778   0.28256   0.47581   0.00000  Uiso   1.00
O315   O     0.52045   0.71562   0.99659   0.00000  Uiso   1.00
O316   O     0.84525   0.33606   0.05361   0.00000  Uiso   1.00
N317   N     0.44196   0.29717   0.59891   0.00000  Uiso   1.00
N318   N     0.50799   0.60578   0.97001   0.00000  Uiso   1.00
N319   N     0.73944   0.33531   0.01066   0.00000  Uiso   1.00
N320   N     0.51137   0.36113   0.56319   0.00000  Uiso   1.00
N321   N     0.57739   0.66974   0.93429   0.00000  Uiso   1.00
N322   N     0.80885   0.39928   0.97494   0.00000  Uiso   1.00
C323   C     0.82655   0.63165   0.43687   0.00000  Uiso   1.00
C324   C     0.77181   0.59065   0.37110   0.00000  Uiso   1.00
C325   C     0.77403   0.53968   0.32345   0.00000  Uiso   1.00
C326   C     0.71890   0.50825   0.26666   0.00000  Uiso   1.00
C327   C     0.64231   0.44169   0.16590   0.00000  Uiso   1.00
C328   C     0.80223   0.62741   0.50103   0.00000  Uiso   1.00
C329   C     0.83003   0.60734   0.56262   0.00000  Uiso   1.00
C330   C     0.80051   0.60686   0.61521   0.00000  Uiso   1.00
C331   C     0.77117   0.59741   0.71618   0.00000  Uiso   1.00
C332   C     0.83581   0.70076   0.42743   0.00000  Uiso   1.00
C333   C     0.89185   0.74238   0.42715   0.00000  Uiso   1.00
C334   C     0.89061   0.80367   0.41779   0.00000  Uiso   1.00
C335   C     0.91341   0.90811   0.40448   0.00000  Uiso   1.00
C336   C     0.72470   0.66649   0.42076   0.00000  Uiso   1.00
C337   C     0.71649   0.60958   0.36236   0.00000  Uiso   1.00
C338   C     0.66135   0.57822   0.30562   0.00000  Uiso   1.00
C339   C     0.66348   0.52720   0.25789   0.00000  Uiso   1.00
C340   C     0.74691   0.64633   0.49228   0.00000  Uiso   1.00
C341   C     0.71734   0.64589   0.54479   0.00000  Uiso   1.00
C342   C     0.74509   0.62582   0.60644   0.00000  Uiso   1.00
C343   C     0.78049   0.71969   0.41868   0.00000  Uiso   1.00
C344   C     0.77916   0.78092   0.40932   0.00000  Uiso   1.00
C345   C     0.83519   0.82262   0.40902   0.00000  Uiso   1.00
H346   H     0.86962   0.61692   0.44368   0.00000  Uiso   1.00
H347   H     0.81685   0.52504   0.33024   0.00000  Uiso   1.00
H348   H     0.87284   0.59271   0.56938   0.00000  Uiso   1.00
H349   H     0.93465   0.72772   0.43392   0.00000  Uiso   1.00
H350   H     0.73394   0.43151   0.20063   0.00000  Uiso   1.00
H351   H     0.85202   0.57421   0.70487   0.00000  Uiso   1.00
H352   H     0.98236   0.85891   0.41924   0.00000  Uiso   1.00
H353   H     0.68163   0.68122   0.41394   0.00000  Uiso   1.00
H354   H     0.61854   0.59287   0.29887   0.00000  Uiso   1.00
H355   H     0.67454   0.66053   0.53800   0.00000  Uiso   1.00
H356   H     0.73634   0.79555   0.40255   0.00000  Uiso   1.00
H357   H     0.57299   0.48656   0.17517   0.00000  Uiso   1.00
H358   H     0.69106   0.62926   0.67941   0.00000  Uiso   1.00
H359   H     0.82140   0.91396   0.39378   0.00000  Uiso   1.00
O360   O     0.61535   0.39974   0.11275   0.00000  Uiso   1.00
O361   O     0.77027   0.58697   0.77429   0.00000  Uiso   1.00
O362   O     0.94127   0.96049   0.39955   0.00000  Uiso   1.00
N363   N     0.70472   0.45660   0.21042   0.00000  Uiso   1.00
N364   N     0.81511   0.59000   0.68185   0.00000  Uiso   1.00
N365   N     0.93697   0.85618   0.41483   0.00000  Uiso   1.00
N366   N     0.61811   0.48622   0.19672   0.00000  Uiso   1.00
N367   N     0.72850   0.61962   0.66815   0.00000  Uiso   1.00
N368   N     0.85036   0.88580   0.40113   0.00000  Uiso   1.00
C369   C     0.36083   0.78276   0.66040   0.00000  Uiso   1.00
C370   C     0.30650   0.73250   0.66985   0.00000  Uiso   1.00
C371   C     0.24963   0.69936   0.61644   0.00000  Uiso   1.00
C372   C     0.20599   0.65533   0.63589   0.00000  Uiso   1.00
C373   C     0.11969   0.57886   0.63986   0.00000  Uiso   1.00
C374   C     0.41933   0.75941   0.68410   0.00000  Uiso   1.00
C375   C     0.45734   0.74890   0.64267   0.00000  Uiso   1.00
C376   C     0.50869   0.72754   0.67413   0.00000  Uiso   1.00
C377   C     0.59760   0.69290   0.70023   0.00000  Uiso   1.00
C378   C     0.37284   0.84316   0.71601   0.00000  Uiso   1.00
C379   C     0.37179   0.90308   0.70142   0.00000  Uiso   1.00
C380   C     0.38401   0.95223   0.75974   0.00000  Uiso   1.00
C381   C     0.40074   0.04763   0.83539   0.00000  Uiso   1.00
C382   C     0.38444   0.76351   0.78992   0.00000  Uiso   1.00
C383   C     0.31933   0.72205   0.74020   0.00000  Uiso   1.00
C384   C     0.27576   0.67806   0.75974   0.00000  Uiso   1.00
C385   C     0.21884   0.64486   0.70637   0.00000  Uiso   1.00
C386   C     0.43216   0.74896   0.75444   0.00000  Uiso   1.00
C387   C     0.48347   0.72761   0.78597   0.00000  Uiso   1.00
C388   C     0.52155   0.71707   0.74460   0.00000  Uiso   1.00
C389   C     0.38567   0.83271   0.78636   0.00000  Uiso   1.00
C390   C     0.39791   0.88178   0.84471   0.00000  Uiso   1.00
C391   C     0.39686   0.94176   0.83022   0.00000  Uiso   1.00
H392   H     0.35085   0.79089   0.60563   0.00000  Uiso   1.00
H393   H     0.23973   0.70745   0.56200   0.00000  Uiso   1.00
H394   H     0.44741   0.75700   0.58823   0.00000  Uiso   1.00
H395   H     0.36186   0.91115   0.64697   0.00000  Uiso   1.00
H396   H     0.12219   0.61032   0.54465   0.00000  Uiso   1.00
H397   H     0.56011   0.71482   0.59997   0.00000  Uiso   1.00
H398   H     0.37972   0.03987   0.72383   0.00000  Uiso   1.00
H399   H     0.39443   0.75537   0.84469   0.00000  Uiso   1.00
H400   H     0.28570   0.66998   0.81418   0.00000  Uiso   1.00
H401   H     0.49338   0.71953   0.84041   0.00000  Uiso   1.00
H402   H     0.40783   0.87368   0.89915   0.00000  Uiso   1.00
H403   H     0.15951   0.57990   0.74933   0.00000  Uiso   1.00
H404   H     0.59743   0.68440   0.80465   0.00000  Uiso   1.00
H405   H     0.41703   0.00945   0.92851   0.00000  Uiso   1.00
O406   O     0.06855   0.53956   0.62260   0.00000  Uiso   1.00
O407   O     0.64309   0.67667   0.69519   0.00000  Uiso   1.00
O408   O     0.40641   0.10313   0.85768   0.00000  Uiso   1.00
N409   N     0.14589   0.61489   0.59701   0.00000  Uiso   1.00
N410   N     0.55532   0.71258   0.64873   0.00000  Uiso   1.00
N411   N     0.38668   0.01648   0.76453   0.00000  Uiso   1.00
N412   N     0.16597   0.59852   0.70715   0.00000  Uiso   1.00
N413   N     0.57540   0.69621   0.75887   0.00000  Uiso   1.00
N414   N     0.40676   0.00011   0.87466   0.00000  Uiso   1.00
C415   C     0.12689   0.23664   0.91360   0.00000  Uiso   1.00
C416   C     0.16420   0.19860   0.88198   0.00000  Uiso   1.00
C417   C     0.13827   0.14436   0.82686   0.00000  Uiso   1.00
C418   C     0.18042   0.11650   0.80560   0.00000  Uiso   1.00
C419   C     0.22835   0.05354   0.75155   0.00000  Uiso   1.00
C420   C     0.14778   0.23804   0.99419   0.00000  Uiso   1.00
C421   C     0.10804   0.21697   0.03341   0.00000  Uiso   1.00
C422   C     0.13637   0.22232   0.10661   0.00000  Uiso   1.00
C423   C     0.15880   0.22063   0.22678   0.00000  Uiso   1.00
C424   C     0.15160   0.30547   0.90593   0.00000  Uiso   1.00
C425   C     0.11506   0.34111   0.87096   0.00000  Uiso   1.00
C426   C     0.14661   0.40324   0.86987   0.00000  Uiso   1.00
C427   C     0.17496   0.50624   0.85300   0.00000  Uiso   1.00
C428   C     0.24786   0.28363   0.97386   0.00000  Uiso   1.00
C429   C     0.22991   0.22413   0.91472   0.00000  Uiso   1.00
C430   C     0.27211   0.19635   0.89354   0.00000  Uiso   1.00
C431   C     0.24624   0.14207   0.83839   0.00000  Uiso   1.00
C432   C     0.21348   0.26357   0.02692   0.00000  Uiso   1.00
C433   C     0.24188   0.26896   0.10009   0.00000  Uiso   1.00
C434   C     0.20219   0.24789   0.13941   0.00000  Uiso   1.00
C435   C     0.21730   0.33100   0.93866   0.00000  Uiso   1.00
C436   C     0.24891   0.39309   0.93763   0.00000  Uiso   1.00
C437   C     0.21243   0.42881   0.90266   0.00000  Uiso   1.00
H438   H     0.07574   0.21677   0.88812   0.00000  Uiso   1.00
H439   H     0.08742   0.12462   0.80154   0.00000  Uiso   1.00
H440   H     0.05720   0.19723   0.00806   0.00000  Uiso   1.00
H441   H     0.06422   0.32134   0.84563   0.00000  Uiso   1.00
H442   H     0.12934   0.03369   0.72001   0.00000  Uiso   1.00
H443   H     0.06561   0.18681   0.15548   0.00000  Uiso   1.00
H444   H     0.08042   0.44853   0.81296   0.00000  Uiso   1.00
H445   H     0.29902   0.30350   0.99935   0.00000  Uiso   1.00
H446   H     0.32295   0.21611   0.91888   0.00000  Uiso   1.00
H447   H     0.29273   0.28871   0.12540   0.00000  Uiso   1.00
H448   H     0.29975   0.41283   0.96297   0.00000  Uiso   1.00
H449   H     0.32051   0.10795   0.81525   0.00000  Uiso   1.00
H450   H     0.25678   0.26106   0.25071   0.00000  Uiso   1.00
H451   H     0.27159   0.52278   0.90820   0.00000  Uiso   1.00
O452   O     0.23664   0.01175   0.71270   0.00000  Uiso   1.00
O453   O     0.15303   0.21264   0.28401   0.00000  Uiso   1.00
O454   O     0.17246   0.55601   0.83464   0.00000  Uiso   1.00
N455   N     0.17105   0.06317   0.75346   0.00000  Uiso   1.00
N456   N     0.11147   0.20631   0.16059   0.00000  Uiso   1.00
N457   N     0.12531   0.45100   0.84039   0.00000  Uiso   1.00
N458   N     0.27392   0.10313   0.80471   0.00000  Uiso   1.00
N459   N     0.21433   0.24627   0.21184   0.00000  Uiso   1.00
N460   N     0.22818   0.49096   0.89163   0.00000  Uiso   1.00
C461   C     0.33244   0.88688   0.10850   0.00000  Uiso   1.00
C462   C     0.27048   0.85331   0.11981   0.00000  Uiso   1.00
C463   C     0.22089   0.80469   0.07004   0.00000  Uiso   1.00
C464   C     0.16826   0.78026   0.09067   0.00000  Uiso   1.00
C465   C     0.07247   0.72460   0.09788   0.00000  Uiso   1.00
C466   C     0.33781   0.95825   0.12157   0.00000  Uiso   1.00
C467   C     0.34484   0.99786   0.07329   0.00000  Uiso   1.00
C468   C     0.34888   0.06177   0.09541   0.00000  Uiso   1.00
C469   C     0.35767   0.16903   0.10538   0.00000  Uiso   1.00
C470   C     0.38541   0.87861   0.16987   0.00000  Uiso   1.00
C471   C     0.43247   0.85127   0.16219   0.00000  Uiso   1.00
C472   C     0.47659   0.84815   0.22498   0.00000  Uiso   1.00
C473   C     0.55928   0.83176   0.30994   0.00000  Uiso   1.00
C474   C     0.32715   0.92996   0.23365   0.00000  Uiso   1.00
C475   C     0.26761   0.87672   0.18779   0.00000  Uiso   1.00
C476   C     0.21503   0.85235   0.20850   0.00000  Uiso   1.00
C477   C     0.16537   0.80370   0.15877   0.00000  Uiso   1.00
C478   C     0.33493   0.98165   0.18955   0.00000  Uiso   1.00
C479   C     0.33898   0.04552   0.21175   0.00000  Uiso   1.00
C480   C     0.34600   0.08521   0.16351   0.00000  Uiso   1.00
C481   C     0.38253   0.90201   0.23785   0.00000  Uiso   1.00
C482   C     0.42660   0.89894   0.30066   0.00000  Uiso   1.00
C483   C     0.47371   0.87159   0.29308   0.00000  Uiso   1.00
H484   H     0.33469   0.86867   0.05557   0.00000  Uiso   1.00
H485   H     0.22314   0.78660   0.01743   0.00000  Uiso   1.00
H486   H     0.34707   0.97974   0.02069   0.00000  Uiso   1.00
H487   H     0.43468   0.83317   0.10958   0.00000  Uiso   1.00
H488   H     0.09818   0.70594   0.00511   0.00000  Uiso   1.00
H489   H     0.35952   0.11319   0.01199   0.00000  Uiso   1.00
H490   H     0.54427   0.80413   0.19944   0.00000  Uiso   1.00
H491   H     0.32491   0.94819   0.28657   0.00000  Uiso   1.00
H492   H     0.21282   0.87047   0.26111   0.00000  Uiso   1.00
H493   H     0.33675   0.06361   0.26436   0.00000  Uiso   1.00
H494   H     0.42436   0.91705   0.35325   0.00000  Uiso   1.00
H495   H     0.08981   0.77402   0.20289   0.00000  Uiso   1.00
H496   H     0.35115   0.18127   0.20976   0.00000  Uiso   1.00
H497   H     0.53589   0.87221   0.39721   0.00000  Uiso   1.00
O498   O     0.02043   0.68744   0.08307   0.00000  Uiso   1.00
O499   O     0.36330   0.22173   0.09209   0.00000  Uiso   1.00
O500   O     0.60568   0.81625   0.33802   0.00000  Uiso   1.00
N501   N     0.11160   0.73262   0.05516   0.00000  Uiso   1.00
N502   N     0.35592   0.11337   0.06158   0.00000  Uiso   1.00
N503   N     0.52866   0.82444   0.23683   0.00000  Uiso   1.00
N504   N     0.10710   0.76925   0.16158   0.00000  Uiso   1.00
N505   N     0.35142   0.15000   0.16800   0.00000  Uiso   1.00
N506   N     0.52415   0.86107   0.34325   0.00000  Uiso   1.00
C507   C     0.90383   0.18998   0.40832   0.00000  Uiso   1.00
C508   C     0.87656   0.20870   0.33713   0.00000  Uiso   1.00
C509   C     0.81546   0.18153   0.28950   0.00000  Uiso   1.00
C510   C     0.79966   0.20533   0.22727   0.00000  Uiso   1.00
C511   C     0.75067   0.22689   0.11885   0.00000  Uiso   1.00
C512   C     0.96312   0.17190   0.40412   0.00000  Uiso   1.00
C513   C     0.97481   0.11381   0.41282   0.00000  Uiso   1.00
C514   C     0.03189   0.10663   0.40699   0.00000  Uiso   1.00
C515   C     0.11731   0.07109   0.40263   0.00000  Uiso   1.00
C516   C     0.92703   0.25139   0.46601   0.00000  Uiso   1.00
C517   C     0.90839   0.26013   0.52676   0.00000  Uiso   1.00
C518   C     0.93509   0.31987   0.57305   0.00000  Uiso   1.00
C519   C     0.96448   0.40774   0.66478   0.00000  Uiso   1.00
C520   C     0.98442   0.28054   0.38250   0.00000  Uiso   1.00
C521   C     0.92034   0.25789   0.32311   0.00000  Uiso   1.00
C522   C     0.90463   0.28173   0.26094   0.00000  Uiso   1.00
C523   C     0.84351   0.25461   0.21322   0.00000  Uiso   1.00
C524   C     0.00690   0.22109   0.39010   0.00000  Uiso   1.00
C525   C     0.06397   0.21400   0.38426   0.00000  Uiso   1.00
C526   C     0.07574   0.15591   0.39295   0.00000  Uiso   1.00
C527   C     0.97081   0.30058   0.45199   0.00000  Uiso   1.00
C528   C     0.99755   0.36032   0.49819   0.00000  Uiso   1.00
C529   C     0.97895   0.36915   0.55900   0.00000  Uiso   1.00
H530   H     0.86975   0.15168   0.41924   0.00000  Uiso   1.00
H531   H     0.78160   0.14346   0.30037   0.00000  Uiso   1.00
H532   H     0.94093   0.07575   0.42368   0.00000  Uiso   1.00
H533   H     0.87451   0.22205   0.53760   0.00000  Uiso   1.00
H534   H     0.70318   0.15603   0.16239   0.00000  Uiso   1.00
H535   H     0.03914   0.01326   0.42242   0.00000  Uiso   1.00
H536   H     0.89909   0.32176   0.66264   0.00000  Uiso   1.00
H537   H     0.01850   0.31884   0.37158   0.00000  Uiso   1.00
H538   H     0.93851   0.31980   0.25010   0.00000  Uiso   1.00
H539   H     0.09784   0.25208   0.37341   0.00000  Uiso   1.00
H540   H     0.03142   0.39838   0.48733   0.00000  Uiso   1.00
H541   H     0.83054   0.29914   0.12158   0.00000  Uiso   1.00
H542   H     0.16650   0.15638   0.38162   0.00000  Uiso   1.00
H543   H     0.02645   0.46488   0.62183   0.00000  Uiso   1.00
O544   O     0.71156   0.22518   0.06292   0.00000  Uiso   1.00
O545   O     0.15233   0.03789   0.40409   0.00000  Uiso   1.00
O546   O     0.96859   0.44263   0.71924   0.00000  Uiso   1.00
N547   N     0.74413   0.18959   0.16946   0.00000  Uiso   1.00
N548   N     0.05822   0.05611   0.41257   0.00000  Uiso   1.00
N549   N     0.92730   0.34452   0.63716   0.00000  Uiso   1.00
N550   N     0.81266   0.26660   0.14751   0.00000  Uiso   1.00
N551   N     0.12675   0.13312   0.39061   0.00000  Uiso   1.00
N552   N     0.99583   0.42153   0.61521   0.00000  Uiso   1.00
