data_job_06512
_audit_creation_date              2018-12-19
_audit_creation_method            'Materials Studio'
_symmetry_space_group_name_H-M    'P1'
_symmetry_Int_Tables_number       1
_symmetry_cell_setting            triclinic
loop_
_symmetry_equiv_pos_as_xyz
  x,y,z
_cell_length_a                    15.0077
_cell_length_b                    26.4561
_cell_length_c                    21.6503
_cell_angle_alpha                 104.1250
_cell_angle_beta                  104.2660
_cell_angle_gamma                 103.9210
loop_
_atom_site_label
_atom_site_type_symbol
_atom_site_fract_x
_atom_site_fract_y
_atom_site_fract_z
_atom_site_U_iso_or_equiv
_atom_site_adp_type
_atom_site_occupancy
C1     C     0.59181   0.55126   0.19401   0.00000  Uiso   1.00
C2     C     0.50944   0.55613   0.14064   0.00000  Uiso   1.00
C3     C     0.51908   0.57659   0.08855   0.00000  Uiso   1.00
C4     C     0.43494   0.57763   0.04498   0.00000  Uiso   1.00
C5     C     0.32081   0.58807   0.96087   0.00000  Uiso   1.00
C6     C     0.58803   0.58308   0.26177   0.00000  Uiso   1.00
C7     C     0.66376   0.62619   0.31153   0.00000  Uiso   1.00
C8     C     0.64578   0.64991   0.36993   0.00000  Uiso   1.00
C9     C     0.65368   0.70217   0.47390   0.00000  Uiso   1.00
C10    C     0.56381   0.49092   0.19006   0.00000  Uiso   1.00
C11    C     0.61920   0.45654   0.17956   0.00000  Uiso   1.00
C12    C     0.58084   0.40267   0.17760   0.00000  Uiso   1.00
C13    C     0.55115   0.31184   0.17024   0.00000  Uiso   1.00
C14    C     0.42523   0.51675   0.20924   0.00000  Uiso   1.00
C15    C     0.41896   0.53739   0.14892   0.00000  Uiso   1.00
C16    C     0.33478   0.53840   0.10541   0.00000  Uiso   1.00
C17    C     0.34430   0.55885   0.05327   0.00000  Uiso   1.00
C18    C     0.49755   0.56434   0.27005   0.00000  Uiso   1.00
C19    C     0.47946   0.58800   0.32839   0.00000  Uiso   1.00
C20    C     0.55514   0.63113   0.37822   0.00000  Uiso   1.00
C21    C     0.47333   0.47217   0.19834   0.00000  Uiso   1.00
C22    C     0.43489   0.41835   0.19641   0.00000  Uiso   1.00
C23    C     0.49020   0.38389   0.18590   0.00000  Uiso   1.00
H24    H     0.66225   0.56586   0.18757   0.00000  Uiso   1.00
H25    H     0.58912   0.59110   0.08217   0.00000  Uiso   1.00
H26    H     0.73377   0.64068   0.30511   0.00000  Uiso   1.00
H27    H     0.68921   0.47106   0.17315   0.00000  Uiso   1.00
H28    H     0.46813   0.61083   0.96897   0.00000  Uiso   1.00
H29    H     0.77316   0.71537   0.43908   0.00000  Uiso   1.00
H30    H     0.67920   0.35769   0.16082   0.00000  Uiso   1.00
H31    H     0.35479   0.50215   0.21569   0.00000  Uiso   1.00
H32    H     0.26477   0.52389   0.11183   0.00000  Uiso   1.00
H33    H     0.40943   0.57348   0.33478   0.00000  Uiso   1.00
H34    H     0.36487   0.40386   0.20282   0.00000  Uiso   1.00
H35    H     0.20488   0.55628   0.99305   0.00000  Uiso   1.00
H36    H     0.50991   0.66083   0.46316   0.00000  Uiso   1.00
H37    H     0.41595   0.30315   0.18489   0.00000  Uiso   1.00
O38    O     0.28285   0.59902   0.91219   0.00000  Uiso   1.00
O39    O     0.68303   0.73617   0.52896   0.00000  Uiso   1.00
O40    O     0.55976   0.26691   0.16388   0.00000  Uiso   1.00
N41    N     0.41853   0.59500   0.98889   0.00000  Uiso   1.00
N42    N     0.70370   0.69275   0.42840   0.00000  Uiso   1.00
N43    N     0.61587   0.35835   0.16827   0.00000  Uiso   1.00
N44    N     0.27688   0.56564   0.00184   0.00000  Uiso   1.00
N45    N     0.56205   0.66340   0.44136   0.00000  Uiso   1.00
N46    N     0.47422   0.32900   0.18122   0.00000  Uiso   1.00
C47    C     0.22666   0.62408   0.56940   0.00000  Uiso   1.00
C48    C     0.21492   0.56512   0.56903   0.00000  Uiso   1.00
C49    C     0.15271   0.53545   0.59500   0.00000  Uiso   1.00
C50    C     0.15265   0.48208   0.58978   0.00000  Uiso   1.00
C51    C     0.12534   0.39401   0.59382   0.00000  Uiso   1.00
C52    C     0.33413   0.65619   0.60500   0.00000  Uiso   1.00
C53    C     0.37213   0.70309   0.66120   0.00000  Uiso   1.00
C54    C     0.47242   0.72639   0.68625   0.00000  Uiso   1.00
C55    C     0.63016   0.77973   0.74609   0.00000  Uiso   1.00
C56    C     0.20669   0.62215   0.49616   0.00000  Uiso   1.00
C57    C     0.13756   0.64045   0.46087   0.00000  Uiso   1.00
C58    C     0.13058   0.63510   0.39428   0.00000  Uiso   1.00
C59    C     0.09046   0.63559   0.28516   0.00000  Uiso   1.00
C60    C     0.33721   0.58208   0.51393   0.00000  Uiso   1.00
C61    C     0.27497   0.54231   0.53890   0.00000  Uiso   1.00
C62    C     0.27501   0.48897   0.53363   0.00000  Uiso   1.00
C63    C     0.21280   0.45922   0.55959   0.00000  Uiso   1.00
C64    C     0.39417   0.63338   0.57487   0.00000  Uiso   1.00
C65    C     0.49443   0.65662   0.59983   0.00000  Uiso   1.00
C66    C     0.53258   0.70354   0.65606   0.00000  Uiso   1.00
C67    C     0.26674   0.59934   0.46603   0.00000  Uiso   1.00
C68    C     0.25987   0.59397   0.39950   0.00000  Uiso   1.00
C69    C     0.19074   0.61224   0.36410   0.00000  Uiso   1.00
H70    H     0.17992   0.64185   0.59286   0.00000  Uiso   1.00
H71    H     0.10625   0.55312   0.61832   0.00000  Uiso   1.00
H72    H     0.32564   0.72074   0.68450   0.00000  Uiso   1.00
H73    H     0.09111   0.65810   0.48420   0.00000  Uiso   1.00
H74    H     0.05109   0.44470   0.63328   0.00000  Uiso   1.00
H75    H     0.51368   0.79814   0.77282   0.00000  Uiso   1.00
H76    H     0.01912   0.66606   0.35044   0.00000  Uiso   1.00
H77    H     0.38396   0.56431   0.49047   0.00000  Uiso   1.00
H78    H     0.32149   0.47133   0.51032   0.00000  Uiso   1.00
H79    H     0.54088   0.63895   0.57650   0.00000  Uiso   1.00
H80    H     0.30635   0.57631   0.37620   0.00000  Uiso   1.00
H81    H     0.22579   0.37831   0.54563   0.00000  Uiso   1.00
H82    H     0.68837   0.73176   0.68517   0.00000  Uiso   1.00
H83    H     0.19382   0.59967   0.26279   0.00000  Uiso   1.00
O84    O     0.09369   0.35174   0.60438   0.00000  Uiso   1.00
O85    O     0.70058   0.81545   0.78744   0.00000  Uiso   1.00
O86    O     0.05173   0.64215   0.23328   0.00000  Uiso   1.00
N87    N     0.10077   0.44183   0.60992   0.00000  Uiso   1.00
N88    N     0.53326   0.77228   0.74039   0.00000  Uiso   1.00
N89    N     0.07091   0.64880   0.34550   0.00000  Uiso   1.00
N90    N     0.19477   0.40610   0.56275   0.00000  Uiso   1.00
N91    N     0.62726   0.73655   0.69322   0.00000  Uiso   1.00
N92    N     0.16491   0.61308   0.29833   0.00000  Uiso   1.00
C93    C     0.56373   0.11935   0.63939   0.00000  Uiso   1.00
C94    C     0.53624   0.11967   0.56685   0.00000  Uiso   1.00
C95    C     0.57701   0.09934   0.51922   0.00000  Uiso   1.00
C96    C     0.54190   0.10347   0.45565   0.00000  Uiso   1.00
C97    C     0.51039   0.10038   0.34535   0.00000  Uiso   1.00
C98    C     0.59247   0.17904   0.68352   0.00000  Uiso   1.00
C99    C     0.68052   0.20863   0.73399   0.00000  Uiso   1.00
C100   C     0.69274   0.26275   0.76864   0.00000  Uiso   1.00
C101   C     0.74850   0.35183   0.83952   0.00000  Uiso   1.00
C102   C     0.47007   0.08916   0.64847   0.00000  Uiso   1.00
C103   C     0.45521   0.04319   0.66949   0.00000  Uiso   1.00
C104   C     0.36438   0.02163   0.67465   0.00000  Uiso   1.00
C105   C     0.23009   0.97117   0.69111   0.00000  Uiso   1.00
C106   C     0.42886   0.16284   0.61119   0.00000  Uiso   1.00
C107   C     0.46298   0.14329   0.55153   0.00000  Uiso   1.00
C108   C     0.42780   0.14745   0.48802   0.00000  Uiso   1.00
C109   C     0.46852   0.12713   0.44030   0.00000  Uiso   1.00
C110   C     0.51922   0.20267   0.66821   0.00000  Uiso   1.00
C111   C     0.53131   0.25675   0.70279   0.00000  Uiso   1.00
C112   C     0.61935   0.28641   0.75330   0.00000  Uiso   1.00
C113   C     0.39681   0.11278   0.63315   0.00000  Uiso   1.00
C114   C     0.30599   0.09130   0.63829   0.00000  Uiso   1.00
C115   C     0.29099   0.04530   0.65931   0.00000  Uiso   1.00
H116   H     0.62076   0.10097   0.65132   0.00000  Uiso   1.00
H117   H     0.63371   0.08106   0.53109   0.00000  Uiso   1.00
H118   H     0.73719   0.19034   0.74584   0.00000  Uiso   1.00
H119   H     0.51191   0.02492   0.68134   0.00000  Uiso   1.00
H120   H     0.61578   0.06943   0.39105   0.00000  Uiso   1.00
H121   H     0.83397   0.29984   0.84387   0.00000  Uiso   1.00
H122   H     0.35892   0.95102   0.70788   0.00000  Uiso   1.00
H123   H     0.37183   0.18124   0.59926   0.00000  Uiso   1.00
H124   H     0.37111   0.16573   0.47618   0.00000  Uiso   1.00
H125   H     0.47460   0.27501   0.69093   0.00000  Uiso   1.00
H126   H     0.24932   0.10959   0.62643   0.00000  Uiso   1.00
H127   H     0.40265   0.13816   0.34648   0.00000  Uiso   1.00
H128   H     0.62084   0.36857   0.79931   0.00000  Uiso   1.00
H129   H     0.14579   0.01974   0.66331   0.00000  Uiso   1.00
O130   O     0.51326   0.09217   0.28875   0.00000  Uiso   1.00
O131   O     0.79950   0.39445   0.88284   0.00000  Uiso   1.00
O132   O     0.17626   0.93680   0.70441   0.00000  Uiso   1.00
N133   N     0.56570   0.08772   0.39745   0.00000  Uiso   1.00
N134   N     0.76970   0.30315   0.82081   0.00000  Uiso   1.00
N135   N     0.32559   0.97703   0.69368   0.00000  Uiso   1.00
N136   N     0.45102   0.12470   0.37347   0.00000  Uiso   1.00
N137   N     0.65502   0.34013   0.79682   0.00000  Uiso   1.00
N138   N     0.21090   0.01401   0.66969   0.00000  Uiso   1.00
C139   C     0.12286   0.76645   0.01060   0.00000  Uiso   1.00
C140   C     0.05858   0.71505   0.01700   0.00000  Uiso   1.00
C141   C     0.07894   0.66610   0.01290   0.00000  Uiso   1.00
C142   C     0.01088   0.62391   0.02007   0.00000  Uiso   1.00
C143   C     0.92406   0.54311   0.02838   0.00000  Uiso   1.00
C144   C     0.14242   0.81298   0.07484   0.00000  Uiso   1.00
C145   C     0.23328   0.84638   0.11938   0.00000  Uiso   1.00
C146   C     0.23579   0.88663   0.17524   0.00000  Uiso   1.00
C147   C     0.27913   0.95790   0.27333   0.00000  Uiso   1.00
C148   C     0.05995   0.77961   0.95369   0.00000  Uiso   1.00
C149   C     0.08148   0.78496   0.89637   0.00000  Uiso   1.00
C150   C     0.01456   0.79713   0.85024   0.00000  Uiso   1.00
C151   C     0.92986   0.81659   0.76022   0.00000  Uiso   1.00
C152   C     0.96577   0.77855   0.03062   0.00000  Uiso   1.00
C153   C     0.97325   0.72163   0.02787   0.00000  Uiso   1.00
C154   C     0.90514   0.67949   0.03504   0.00000  Uiso   1.00
C155   C     0.92540   0.63049   0.03096   0.00000  Uiso   1.00
C156   C     0.05710   0.81956   0.08572   0.00000  Uiso   1.00
C157   C     0.05947   0.85977   0.14152   0.00000  Uiso   1.00
C158   C     0.15031   0.89322   0.18613   0.00000  Uiso   1.00
C159   C     0.97462   0.78618   0.96456   0.00000  Uiso   1.00
C160   C     0.90767   0.79835   0.91851   0.00000  Uiso   1.00
C161   C     0.92908   0.80372   0.86113   0.00000  Uiso   1.00
H162   H     0.18930   0.76133   0.00214   0.00000  Uiso   1.00
H163   H     0.14499   0.66103   0.00450   0.00000  Uiso   1.00
H164   H     0.29929   0.84128   0.11095   0.00000  Uiso   1.00
H165   H     0.14751   0.77987   0.88797   0.00000  Uiso   1.00
H166   H     0.05825   0.55274   0.01192   0.00000  Uiso   1.00
H167   H     0.38361   0.93282   0.23637   0.00000  Uiso   1.00
H168   H     0.06356   0.80333   0.76619   0.00000  Uiso   1.00
H169   H     0.89934   0.78367   0.03908   0.00000  Uiso   1.00
H170   H     0.83912   0.68460   0.04346   0.00000  Uiso   1.00
H171   H     0.99343   0.86485   0.14991   0.00000  Uiso   1.00
H172   H     0.84165   0.80344   0.92694   0.00000  Uiso   1.00
H173   H     0.81000   0.57186   0.04355   0.00000  Uiso   1.00
H174   H     0.13536   0.95195   0.26800   0.00000  Uiso   1.00
H175   H     0.81530   0.82246   0.79781   0.00000  Uiso   1.00
O176   O     0.89975   0.49673   0.02997   0.00000  Uiso   1.00
O177   O     0.32662   0.99539   0.32443   0.00000  Uiso   1.00
O178   O     0.90671   0.82549   0.70756   0.00000  Uiso   1.00
N179   N     0.00808   0.57083   0.01875   0.00000  Uiso   1.00
N180   N     0.31227   0.92618   0.22861   0.00000  Uiso   1.00
N181   N     0.01306   0.80513   0.78903   0.00000  Uiso   1.00
N182   N     0.87449   0.58112   0.03577   0.00000  Uiso   1.00
N183   N     0.17869   0.93647   0.24562   0.00000  Uiso   1.00
N184   N     0.87948   0.81542   0.80605   0.00000  Uiso   1.00
C185   C     0.76532   0.97246   0.12032   0.00000  Uiso   1.00
C186   C     0.72045   0.97352   0.04952   0.00000  Uiso   1.00
C187   C     0.66405   0.00581   0.03277   0.00000  Uiso   1.00
C188   C     0.62978   0.00082   0.96514   0.00000  Uiso   1.00
C189   C     0.55689   0.00796   0.86266   0.00000  Uiso   1.00
C190   C     0.87400   0.98573   0.13199   0.00000  Uiso   1.00
C191   C     0.94670   0.02830   0.18460   0.00000  Uiso   1.00
C192   C     0.04170   0.03359   0.18640   0.00000  Uiso   1.00
C193   C     0.20721   0.05967   0.21200   0.00000  Uiso   1.00
C194   C     0.72856   0.91270   0.11756   0.00000  Uiso   1.00
C195   C     0.67899   0.89386   0.15804   0.00000  Uiso   1.00
C196   C     0.65155   0.83766   0.14769   0.00000  Uiso   1.00
C197   C     0.59122   0.75035   0.15088   0.00000  Uiso   1.00
C198   C     0.80476   0.90616   0.02999   0.00000  Uiso   1.00
C199   C     0.74188   0.93751   0.00045   0.00000  Uiso   1.00
C200   C     0.70769   0.93246   0.93283   0.00000  Uiso   1.00
C201   C     0.65124   0.96474   0.91599   0.00000  Uiso   1.00
C202   C     0.89543   0.94973   0.08293   0.00000  Uiso   1.00
C203   C     0.99034   0.95495   0.08466   0.00000  Uiso   1.00
C204   C     0.06317   0.99751   0.13725   0.00000  Uiso   1.00
C205   C     0.74998   0.87669   0.06849   0.00000  Uiso   1.00
C206   C     0.72262   0.82051   0.05809   0.00000  Uiso   1.00
C207   C     0.67302   0.80158   0.09854   0.00000  Uiso   1.00
H208   H     0.74865   0.00050   0.15852   0.00000  Uiso   1.00
H209   H     0.64749   0.03368   0.07076   0.00000  Uiso   1.00
H210   H     0.93010   0.05616   0.22256   0.00000  Uiso   1.00
H211   H     0.66242   0.92174   0.19600   0.00000  Uiso   1.00
H212   H     0.54482   0.05460   0.95182   0.00000  Uiso   1.00
H213   H     0.14072   0.10199   0.27192   0.00000  Uiso   1.00
H214   H     0.57627   0.81854   0.21591   0.00000  Uiso   1.00
H215   H     0.82145   0.87812   0.99179   0.00000  Uiso   1.00
H216   H     0.72428   0.90459   0.89487   0.00000  Uiso   1.00
H217   H     0.00689   0.92707   0.04668   0.00000  Uiso   1.00
H218   H     0.73921   0.79265   0.02012   0.00000  Uiso   1.00
H219   H     0.60714   0.94983   0.80906   0.00000  Uiso   1.00
H220   H     0.20305   0.99722   0.12918   0.00000  Uiso   1.00
H221   H     0.63859   0.71377   0.07316   0.00000  Uiso   1.00
O222   O     0.51077   0.02185   0.81970   0.00000  Uiso   1.00
O223   O     0.29258   0.08401   0.23967   0.00000  Uiso   1.00
O224   O     0.55202   0.71214   0.16618   0.00000  Uiso   1.00
N225   N     0.57280   0.02630   0.93152   0.00000  Uiso   1.00
N226   N     0.12994   0.07061   0.23080   0.00000  Uiso   1.00
N227   N     0.60224   0.80562   0.17844   0.00000  Uiso   1.00
N228   N     0.60634   0.96993   0.85470   0.00000  Uiso   1.00
N229   N     0.16348   0.01423   0.15398   0.00000  Uiso   1.00
N230   N     0.63578   0.74924   0.10162   0.00000  Uiso   1.00
C231   C     0.05687   0.14935   0.58292   0.00000  Uiso   1.00
C232   C     0.98941   0.09888   0.58900   0.00000  Uiso   1.00
C233   C     0.00778   0.04967   0.58719   0.00000  Uiso   1.00
C234   C     0.93692   0.00846   0.59361   0.00000  Uiso   1.00
C235   C     0.84530   0.92893   0.60187   0.00000  Uiso   1.00
C236   C     0.07469   0.19680   0.64579   0.00000  Uiso   1.00
C237   C     0.16476   0.22992   0.69173   0.00000  Uiso   1.00
C238   C     0.16568   0.27115   0.74596   0.00000  Uiso   1.00
C239   C     0.20646   0.34367   0.84236   0.00000  Uiso   1.00
C240   C     0.99790   0.16218   0.52401   0.00000  Uiso   1.00
C241   C     0.02340   0.16620   0.46755   0.00000  Uiso   1.00
C242   C     0.95968   0.17828   0.41925   0.00000  Uiso   1.00
C243   C     0.88122   0.19704   0.32656   0.00000  Uiso   1.00
C244   C     0.89838   0.16368   0.59753   0.00000  Uiso   1.00
C245   C     0.90333   0.10667   0.59693   0.00000  Uiso   1.00
C246   C     0.83243   0.06552   0.60336   0.00000  Uiso   1.00
C247   C     0.85068   0.01626   0.60156   0.00000  Uiso   1.00
C248   C     0.98861   0.20459   0.65373   0.00000  Uiso   1.00
C249   C     0.98941   0.24578   0.70790   0.00000  Uiso   1.00
C250   C     0.07944   0.27895   0.75391   0.00000  Uiso   1.00
C251   C     0.91181   0.16996   0.53194   0.00000  Uiso   1.00
C252   C     0.84805   0.18205   0.48372   0.00000  Uiso   1.00
C253   C     0.87344   0.18608   0.42720   0.00000  Uiso   1.00
H254   H     0.12389   0.14329   0.57675   0.00000  Uiso   1.00
H255   H     0.07441   0.04366   0.58106   0.00000  Uiso   1.00
H256   H     0.23136   0.22389   0.68557   0.00000  Uiso   1.00
H257   H     0.09002   0.16017   0.46143   0.00000  Uiso   1.00
H258   H     0.98160   0.93664   0.58935   0.00000  Uiso   1.00
H259   H     0.31254   0.31668   0.80973   0.00000  Uiso   1.00
H260   H     0.01451   0.18232   0.33707   0.00000  Uiso   1.00
H261   H     0.83136   0.16974   0.60371   0.00000  Uiso   1.00
H262   H     0.76582   0.07156   0.60950   0.00000  Uiso   1.00
H263   H     0.92277   0.25179   0.71402   0.00000  Uiso   1.00
H264   H     0.78144   0.18807   0.48987   0.00000  Uiso   1.00
H265   H     0.73114   0.95929   0.61244   0.00000  Uiso   1.00
H266   H     0.06208   0.33933   0.83281   0.00000  Uiso   1.00
H267   H     0.76405   0.20496   0.36016   0.00000  Uiso   1.00
O268   O     0.81855   0.88291   0.60424   0.00000  Uiso   1.00
O269   O     0.25273   0.38151   0.89335   0.00000  Uiso   1.00
O270   O     0.86172   0.20522   0.27324   0.00000  Uiso   1.00
N271   N     0.93164   0.95544   0.59398   0.00000  Uiso   1.00
N272   N     0.24105   0.31075   0.80002   0.00000  Uiso   1.00
N273   N     0.96243   0.18515   0.35814   0.00000  Uiso   1.00
N274   N     0.79687   0.96763   0.60640   0.00000  Uiso   1.00
N275   N     0.10628   0.32294   0.81244   0.00000  Uiso   1.00
N276   N     0.82766   0.19733   0.37056   0.00000  Uiso   1.00
C277   C     0.40819   0.44874   0.80599   0.00000  Uiso   1.00
C278   C     0.49056   0.44387   0.85936   0.00000  Uiso   1.00
C279   C     0.48092   0.42341   0.91145   0.00000  Uiso   1.00
C280   C     0.56506   0.42237   0.95502   0.00000  Uiso   1.00
C281   C     0.67919   0.41193   0.03913   0.00000  Uiso   1.00
C282   C     0.41197   0.41692   0.73823   0.00000  Uiso   1.00
C283   C     0.33624   0.37381   0.68847   0.00000  Uiso   1.00
C284   C     0.35422   0.35009   0.63007   0.00000  Uiso   1.00
C285   C     0.34632   0.29783   0.52610   0.00000  Uiso   1.00
C286   C     0.43619   0.50908   0.80994   0.00000  Uiso   1.00
C287   C     0.38080   0.54346   0.82044   0.00000  Uiso   1.00
C288   C     0.41916   0.59733   0.82240   0.00000  Uiso   1.00
C289   C     0.44885   0.68816   0.82976   0.00000  Uiso   1.00
C290   C     0.57477   0.48325   0.79076   0.00000  Uiso   1.00
C291   C     0.58104   0.46261   0.85108   0.00000  Uiso   1.00
C292   C     0.66522   0.46160   0.89459   0.00000  Uiso   1.00
C293   C     0.65570   0.44115   0.94673   0.00000  Uiso   1.00
C294   C     0.50245   0.43566   0.72995   0.00000  Uiso   1.00
C295   C     0.52054   0.41200   0.67161   0.00000  Uiso   1.00
C296   C     0.44486   0.36887   0.62178   0.00000  Uiso   1.00
C297   C     0.52667   0.52783   0.80166   0.00000  Uiso   1.00
C298   C     0.56511   0.58165   0.80359   0.00000  Uiso   1.00
C299   C     0.50980   0.61611   0.81410   0.00000  Uiso   1.00
H300   H     0.33775   0.43414   0.81243   0.00000  Uiso   1.00
H301   H     0.41088   0.40890   0.91783   0.00000  Uiso   1.00
H302   H     0.26623   0.35932   0.69489   0.00000  Uiso   1.00
H303   H     0.31079   0.52894   0.82685   0.00000  Uiso   1.00
H304   H     0.53187   0.38917   0.03103   0.00000  Uiso   1.00
H305   H     0.22684   0.28463   0.56092   0.00000  Uiso   1.00
H306   H     0.32080   0.64231   0.83918   0.00000  Uiso   1.00
H307   H     0.64521   0.49785   0.78431   0.00000  Uiso   1.00
H308   H     0.73523   0.47611   0.88817   0.00000  Uiso   1.00
H309   H     0.59057   0.42652   0.66522   0.00000  Uiso   1.00
H310   H     0.63513   0.59614   0.79718   0.00000  Uiso   1.00
H311   H     0.79512   0.44372   0.00695   0.00000  Uiso   1.00
H312   H     0.49009   0.33917   0.53684   0.00000  Uiso   1.00
H313   H     0.58405   0.69685   0.81511   0.00000  Uiso   1.00
O314   O     0.71715   0.40098   0.08781   0.00000  Uiso   1.00
O315   O     0.31697   0.26383   0.47104   0.00000  Uiso   1.00
O316   O     0.44024   0.73309   0.83612   0.00000  Uiso   1.00
N317   N     0.58147   0.40500   0.01111   0.00000  Uiso   1.00
N318   N     0.29630   0.30725   0.57160   0.00000  Uiso   1.00
N319   N     0.38413   0.64165   0.83173   0.00000  Uiso   1.00
N320   N     0.72312   0.43436   0.99816   0.00000  Uiso   1.00
N321   N     0.43795   0.33660   0.55864   0.00000  Uiso   1.00
N322   N     0.52578   0.67100   0.81878   0.00000  Uiso   1.00
C323   C     0.77334   0.37592   0.43060   0.00000  Uiso   1.00
C324   C     0.78508   0.43488   0.43097   0.00000  Uiso   1.00
C325   C     0.84729   0.46455   0.40500   0.00000  Uiso   1.00
C326   C     0.84735   0.51792   0.41022   0.00000  Uiso   1.00
C327   C     0.87466   0.60599   0.40618   0.00000  Uiso   1.00
C328   C     0.66587   0.34381   0.39500   0.00000  Uiso   1.00
C329   C     0.62787   0.29691   0.33880   0.00000  Uiso   1.00
C330   C     0.52758   0.27361   0.31375   0.00000  Uiso   1.00
C331   C     0.36984   0.22027   0.25391   0.00000  Uiso   1.00
C332   C     0.79331   0.37785   0.50384   0.00000  Uiso   1.00
C333   C     0.86244   0.35955   0.53913   0.00000  Uiso   1.00
C334   C     0.86942   0.36490   0.60572   0.00000  Uiso   1.00
C335   C     0.90954   0.36441   0.71484   0.00000  Uiso   1.00
C336   C     0.66279   0.41792   0.48607   0.00000  Uiso   1.00
C337   C     0.72503   0.45769   0.46110   0.00000  Uiso   1.00
C338   C     0.72499   0.51103   0.46637   0.00000  Uiso   1.00
C339   C     0.78720   0.54078   0.44041   0.00000  Uiso   1.00
C340   C     0.60583   0.36662   0.42513   0.00000  Uiso   1.00
C341   C     0.50557   0.34338   0.40017   0.00000  Uiso   1.00
C342   C     0.46742   0.29646   0.34394   0.00000  Uiso   1.00
C343   C     0.73326   0.40066   0.53397   0.00000  Uiso   1.00
C344   C     0.74013   0.40603   0.60050   0.00000  Uiso   1.00
C345   C     0.80926   0.38776   0.63590   0.00000  Uiso   1.00
H346   H     0.82008   0.35815   0.40714   0.00000  Uiso   1.00
H347   H     0.89375   0.44688   0.38168   0.00000  Uiso   1.00
H348   H     0.67436   0.27926   0.31550   0.00000  Uiso   1.00
H349   H     0.90889   0.34190   0.51580   0.00000  Uiso   1.00
H350   H     0.94891   0.55530   0.36672   0.00000  Uiso   1.00
H351   H     0.48632   0.20186   0.22718   0.00000  Uiso   1.00
H352   H     0.98088   0.33394   0.64956   0.00000  Uiso   1.00
H353   H     0.61604   0.43569   0.50953   0.00000  Uiso   1.00
H354   H     0.67851   0.52867   0.48968   0.00000  Uiso   1.00
H355   H     0.45912   0.36105   0.42350   0.00000  Uiso   1.00
H356   H     0.69365   0.42369   0.62380   0.00000  Uiso   1.00
H357   H     0.77421   0.62169   0.45437   0.00000  Uiso   1.00
H358   H     0.31163   0.26824   0.31483   0.00000  Uiso   1.00
H359   H     0.80618   0.40033   0.73721   0.00000  Uiso   1.00
O360   O     0.90631   0.64826   0.39562   0.00000  Uiso   1.00
O361   O     0.29942   0.18455   0.21256   0.00000  Uiso   1.00
O362   O     0.94827   0.35785   0.76672   0.00000  Uiso   1.00
N363   N     0.89923   0.55817   0.39008   0.00000  Uiso   1.00
N364   N     0.46674   0.22772   0.25961   0.00000  Uiso   1.00
N365   N     0.92909   0.35120   0.65450   0.00000  Uiso   1.00
N366   N     0.80523   0.59390   0.43725   0.00000  Uiso   1.00
N367   N     0.37274   0.26345   0.30678   0.00000  Uiso   1.00
N368   N     0.83509   0.38692   0.70167   0.00000  Uiso   1.00
C369   C     0.43627   0.88065   0.36061   0.00000  Uiso   1.00
C370   C     0.46376   0.88033   0.43315   0.00000  Uiso   1.00
C371   C     0.42299   0.90066   0.48078   0.00000  Uiso   1.00
C372   C     0.45810   0.89653   0.54435   0.00000  Uiso   1.00
C373   C     0.48961   0.89962   0.65465   0.00000  Uiso   1.00
C374   C     0.40753   0.82096   0.31648   0.00000  Uiso   1.00
C375   C     0.31948   0.79137   0.26601   0.00000  Uiso   1.00
C376   C     0.30726   0.73725   0.23136   0.00000  Uiso   1.00
C377   C     0.25150   0.64817   0.16048   0.00000  Uiso   1.00
C378   C     0.52993   0.91084   0.35153   0.00000  Uiso   1.00
C379   C     0.54479   0.95681   0.33051   0.00000  Uiso   1.00
C380   C     0.63562   0.97837   0.32535   0.00000  Uiso   1.00
C381   C     0.76991   0.02883   0.30889   0.00000  Uiso   1.00
C382   C     0.57114   0.83716   0.38881   0.00000  Uiso   1.00
C383   C     0.53702   0.85671   0.44847   0.00000  Uiso   1.00
C384   C     0.57220   0.85255   0.51198   0.00000  Uiso   1.00
C385   C     0.53148   0.87287   0.55970   0.00000  Uiso   1.00
C386   C     0.48078   0.79733   0.33179   0.00000  Uiso   1.00
C387   C     0.46869   0.74325   0.29721   0.00000  Uiso   1.00
C388   C     0.38065   0.71359   0.24670   0.00000  Uiso   1.00
C389   C     0.60319   0.88722   0.36685   0.00000  Uiso   1.00
C390   C     0.69401   0.90870   0.36171   0.00000  Uiso   1.00
C391   C     0.70901   0.95470   0.34069   0.00000  Uiso   1.00
H392   H     0.37924   0.89903   0.34868   0.00000  Uiso   1.00
H393   H     0.36629   0.91894   0.46891   0.00000  Uiso   1.00
H394   H     0.26281   0.80966   0.25416   0.00000  Uiso   1.00
H395   H     0.48809   0.97508   0.31866   0.00000  Uiso   1.00
H396   H     0.38422   0.93057   0.60895   0.00000  Uiso   1.00
H397   H     0.16603   0.70016   0.15613   0.00000  Uiso   1.00
H398   H     0.64108   0.04898   0.29212   0.00000  Uiso   1.00
H399   H     0.62817   0.81876   0.40074   0.00000  Uiso   1.00
H400   H     0.62889   0.83427   0.52382   0.00000  Uiso   1.00
H401   H     0.52540   0.72499   0.30907   0.00000  Uiso   1.00
H402   H     0.75068   0.89041   0.37357   0.00000  Uiso   1.00
H403   H     0.59735   0.86184   0.65352   0.00000  Uiso   1.00
H404   H     0.37916   0.63143   0.20069   0.00000  Uiso   1.00
H405   H     0.85421   0.98026   0.33669   0.00000  Uiso   1.00
O406   O     0.48674   0.90783   0.71125   0.00000  Uiso   1.00
O407   O     0.20050   0.60555   0.11716   0.00000  Uiso   1.00
O408   O     0.82374   0.06320   0.29559   0.00000  Uiso   1.00
N409   N     0.43430   0.91228   0.60255   0.00000  Uiso   1.00
N410   N     0.23030   0.69685   0.17919   0.00000  Uiso   1.00
N411   N     0.67441   0.02297   0.30632   0.00000  Uiso   1.00
N412   N     0.54898   0.87530   0.62653   0.00000  Uiso   1.00
N413   N     0.34498   0.65987   0.20318   0.00000  Uiso   1.00
N414   N     0.78910   0.98599   0.33031   0.00000  Uiso   1.00
C415   C     0.87714   0.23355   0.98940   0.00000  Uiso   1.00
C416   C     0.94142   0.28495   0.98300   0.00000  Uiso   1.00
C417   C     0.92106   0.33390   0.98710   0.00000  Uiso   1.00
C418   C     0.98912   0.37609   0.97993   0.00000  Uiso   1.00
C419   C     0.07594   0.45689   0.97162   0.00000  Uiso   1.00
C420   C     0.85758   0.18702   0.92516   0.00000  Uiso   1.00
C421   C     0.76672   0.15362   0.88062   0.00000  Uiso   1.00
C422   C     0.76421   0.11337   0.82476   0.00000  Uiso   1.00
C423   C     0.72087   0.04210   0.72667   0.00000  Uiso   1.00
C424   C     0.94005   0.22039   0.04631   0.00000  Uiso   1.00
C425   C     0.91852   0.21504   0.10363   0.00000  Uiso   1.00
C426   C     0.98544   0.20287   0.14976   0.00000  Uiso   1.00
C427   C     0.07014   0.18341   0.23978   0.00000  Uiso   1.00
C428   C     0.03423   0.22145   0.96938   0.00000  Uiso   1.00
C429   C     0.02675   0.27837   0.97213   0.00000  Uiso   1.00
C430   C     0.09486   0.32051   0.96496   0.00000  Uiso   1.00
C431   C     0.07460   0.36951   0.96904   0.00000  Uiso   1.00
C432   C     0.94290   0.18044   0.91428   0.00000  Uiso   1.00
C433   C     0.94053   0.14023   0.85848   0.00000  Uiso   1.00
C434   C     0.84969   0.10678   0.81387   0.00000  Uiso   1.00
C435   C     0.02538   0.21382   0.03544   0.00000  Uiso   1.00
C436   C     0.09233   0.20165   0.08149   0.00000  Uiso   1.00
C437   C     0.07092   0.19628   0.13887   0.00000  Uiso   1.00
H438   H     0.81070   0.23867   0.99786   0.00000  Uiso   1.00
H439   H     0.85501   0.33897   0.99550   0.00000  Uiso   1.00
H440   H     0.70071   0.15872   0.88905   0.00000  Uiso   1.00
H441   H     0.85249   0.22013   0.11203   0.00000  Uiso   1.00
H442   H     0.94175   0.44726   0.98808   0.00000  Uiso   1.00
H443   H     0.61639   0.06718   0.76363   0.00000  Uiso   1.00
H444   H     0.93644   0.19667   0.23381   0.00000  Uiso   1.00
H445   H     0.10066   0.21633   0.96092   0.00000  Uiso   1.00
H446   H     0.16088   0.31540   0.95654   0.00000  Uiso   1.00
H447   H     0.00657   0.13515   0.85009   0.00000  Uiso   1.00
H448   H     0.15835   0.19656   0.07306   0.00000  Uiso   1.00
H449   H     0.19000   0.42814   0.95645   0.00000  Uiso   1.00
H450   H     0.86464   0.04805   0.73200   0.00000  Uiso   1.00
H451   H     0.18470   0.17754   0.20219   0.00000  Uiso   1.00
O452   O     0.10025   0.50327   0.97003   0.00000  Uiso   1.00
O453   O     0.67338   0.00461   0.67557   0.00000  Uiso   1.00
O454   O     0.09329   0.17451   0.29244   0.00000  Uiso   1.00
N455   N     0.99192   0.42917   0.98125   0.00000  Uiso   1.00
N456   N     0.68773   0.07382   0.77139   0.00000  Uiso   1.00
N457   N     0.98694   0.19487   0.21097   0.00000  Uiso   1.00
N458   N     0.12551   0.41888   0.96423   0.00000  Uiso   1.00
N459   N     0.82131   0.06353   0.75438   0.00000  Uiso   1.00
N460   N     0.12052   0.18458   0.19395   0.00000  Uiso   1.00
C461   C     0.23468   0.02754   0.87968   0.00000  Uiso   1.00
C462   C     0.27955   0.02648   0.95048   0.00000  Uiso   1.00
C463   C     0.33595   0.99419   0.96723   0.00000  Uiso   1.00
C464   C     0.37022   0.99918   0.03486   0.00000  Uiso   1.00
C465   C     0.44311   0.99204   0.13734   0.00000  Uiso   1.00
C466   C     0.12600   0.01427   0.86801   0.00000  Uiso   1.00
C467   C     0.05330   0.97170   0.81540   0.00000  Uiso   1.00
C468   C     0.95830   0.96641   0.81360   0.00000  Uiso   1.00
C469   C     0.79279   0.94033   0.78800   0.00000  Uiso   1.00
C470   C     0.27144   0.08730   0.88244   0.00000  Uiso   1.00
C471   C     0.32101   0.10614   0.84196   0.00000  Uiso   1.00
C472   C     0.34845   0.16234   0.85231   0.00000  Uiso   1.00
C473   C     0.40878   0.24965   0.84912   0.00000  Uiso   1.00
C474   C     0.19524   0.09384   0.97001   0.00000  Uiso   1.00
C475   C     0.25812   0.06249   0.99955   0.00000  Uiso   1.00
C476   C     0.29231   0.06754   0.06717   0.00000  Uiso   1.00
C477   C     0.34876   0.03526   0.08401   0.00000  Uiso   1.00
C478   C     0.10457   0.05027   0.91707   0.00000  Uiso   1.00
C479   C     0.00966   0.04505   0.91534   0.00000  Uiso   1.00
C480   C     0.93683   0.00249   0.86275   0.00000  Uiso   1.00
C481   C     0.25002   0.12331   0.93151   0.00000  Uiso   1.00
C482   C     0.27738   0.17949   0.94191   0.00000  Uiso   1.00
C483   C     0.32698   0.19842   0.90146   0.00000  Uiso   1.00
H484   H     0.25135   0.99950   0.84148   0.00000  Uiso   1.00
H485   H     0.35251   0.96632   0.92924   0.00000  Uiso   1.00
H486   H     0.06990   0.94384   0.77744   0.00000  Uiso   1.00
H487   H     0.33758   0.07826   0.80400   0.00000  Uiso   1.00
H488   H     0.45518   0.94540   0.04818   0.00000  Uiso   1.00
H489   H     0.85928   0.89801   0.72808   0.00000  Uiso   1.00
H490   H     0.42373   0.18146   0.78409   0.00000  Uiso   1.00
H491   H     0.17855   0.12188   0.00821   0.00000  Uiso   1.00
H492   H     0.27572   0.09541   0.10513   0.00000  Uiso   1.00
H493   H     0.99311   0.07293   0.95332   0.00000  Uiso   1.00
H494   H     0.26079   0.20735   0.97988   0.00000  Uiso   1.00
H495   H     0.39286   0.05017   0.19094   0.00000  Uiso   1.00
H496   H     0.79695   0.00278   0.87082   0.00000  Uiso   1.00
H497   H     0.36141   0.28623   0.92684   0.00000  Uiso   1.00
O498   O     0.48923   0.97815   0.18030   0.00000  Uiso   1.00
O499   O     0.70742   0.91599   0.76033   0.00000  Uiso   1.00
O500   O     0.44798   0.28786   0.83382   0.00000  Uiso   1.00
N501   N     0.42720   0.97370   0.06848   0.00000  Uiso   1.00
N502   N     0.87006   0.92939   0.76920   0.00000  Uiso   1.00
N503   N     0.39776   0.19438   0.82156   0.00000  Uiso   1.00
N504   N     0.39366   0.03007   0.14530   0.00000  Uiso   1.00
N505   N     0.83652   0.98577   0.84602   0.00000  Uiso   1.00
N506   N     0.36422   0.25076   0.89838   0.00000  Uiso   1.00
C507   C     0.94313   0.85065   0.41708   0.00000  Uiso   1.00
C508   C     0.01059   0.90112   0.41100   0.00000  Uiso   1.00
C509   C     0.99222   0.95033   0.41281   0.00000  Uiso   1.00
C510   C     0.06308   0.99154   0.40639   0.00000  Uiso   1.00
C511   C     0.15470   0.07107   0.39813   0.00000  Uiso   1.00
C512   C     0.92531   0.80320   0.35421   0.00000  Uiso   1.00
C513   C     0.83524   0.77008   0.30827   0.00000  Uiso   1.00
C514   C     0.83432   0.72885   0.25404   0.00000  Uiso   1.00
C515   C     0.79354   0.65633   0.15764   0.00000  Uiso   1.00
C516   C     0.00210   0.83782   0.47599   0.00000  Uiso   1.00
C517   C     0.97660   0.83380   0.53245   0.00000  Uiso   1.00
C518   C     0.04032   0.82172   0.58075   0.00000  Uiso   1.00
C519   C     0.11878   0.80296   0.67344   0.00000  Uiso   1.00
C520   C     0.10162   0.83632   0.40247   0.00000  Uiso   1.00
C521   C     0.09667   0.89333   0.40307   0.00000  Uiso   1.00
C522   C     0.16757   0.93448   0.39664   0.00000  Uiso   1.00
C523   C     0.14932   0.98374   0.39844   0.00000  Uiso   1.00
C524   C     0.01139   0.79541   0.34627   0.00000  Uiso   1.00
C525   C     0.01059   0.75422   0.29210   0.00000  Uiso   1.00
C526   C     0.92056   0.72105   0.24609   0.00000  Uiso   1.00
C527   C     0.08819   0.83004   0.46806   0.00000  Uiso   1.00
C528   C     0.15195   0.81795   0.51628   0.00000  Uiso   1.00
C529   C     0.12656   0.81392   0.57280   0.00000  Uiso   1.00
H530   H     0.87611   0.85671   0.42325   0.00000  Uiso   1.00
H531   H     0.92559   0.95634   0.41894   0.00000  Uiso   1.00
H532   H     0.76864   0.77611   0.31443   0.00000  Uiso   1.00
H533   H     0.90998   0.83983   0.53857   0.00000  Uiso   1.00
H534   H     0.01840   0.06336   0.41065   0.00000  Uiso   1.00
H535   H     0.68746   0.68332   0.19027   0.00000  Uiso   1.00
H536   H     0.98549   0.81768   0.66293   0.00000  Uiso   1.00
H537   H     0.16864   0.83026   0.39629   0.00000  Uiso   1.00
H538   H     0.23418   0.92844   0.39050   0.00000  Uiso   1.00
H539   H     0.07723   0.74821   0.28598   0.00000  Uiso   1.00
H540   H     0.21856   0.81193   0.51013   0.00000  Uiso   1.00
H541   H     0.26886   0.04071   0.38756   0.00000  Uiso   1.00
H542   H     0.93792   0.66067   0.16719   0.00000  Uiso   1.00
H543   H     0.23595   0.79504   0.63984   0.00000  Uiso   1.00
O544   O     0.18145   0.11709   0.39576   0.00000  Uiso   1.00
O545   O     0.74727   0.61849   0.10665   0.00000  Uiso   1.00
O546   O     0.13828   0.79478   0.72676   0.00000  Uiso   1.00
N547   N     0.06836   0.04456   0.40602   0.00000  Uiso   1.00
N548   N     0.75895   0.68925   0.19998   0.00000  Uiso   1.00
N549   N     0.03757   0.81485   0.64186   0.00000  Uiso   1.00
N550   N     0.20313   0.03237   0.39360   0.00000  Uiso   1.00
N551   N     0.89372   0.67706   0.18756   0.00000  Uiso   1.00
N552   N     0.17234   0.80267   0.62944   0.00000  Uiso   1.00
