data_job_00745
_audit_creation_date              2018-12-19
_audit_creation_method            'Materials Studio'
_symmetry_space_group_name_H-M    'P1'
_symmetry_Int_Tables_number       1
_symmetry_cell_setting            triclinic
loop_
_symmetry_equiv_pos_as_xyz
  x,y,z
_cell_length_a                    12.2254
_cell_length_b                    14.4712
_cell_length_c                    13.3722
_cell_angle_alpha                 90.0000
_cell_angle_beta                  90.0000
_cell_angle_gamma                 90.0000
loop_
_atom_site_label
_atom_site_type_symbol
_atom_site_fract_x
_atom_site_fract_y
_atom_site_fract_z
_atom_site_U_iso_or_equiv
_atom_site_adp_type
_atom_site_occupancy
C1     C     0.21764   0.95130   0.57539   0.00000  Uiso   1.00
C2     C     0.24020   0.87392   0.50078   0.00000  Uiso   1.00
C3     C     0.23066   0.77999   0.51982   0.00000  Uiso   1.00
C4     C     0.25502   0.72025   0.44168   0.00000  Uiso   1.00
C5     C     0.28513   0.59506   0.34011   0.00000  Uiso   1.00
C6     C     0.32219   0.00859   0.58036   0.00000  Uiso   1.00
C7     C     0.38156   0.02791   0.66632   0.00000  Uiso   1.00
C8     C     0.47493   0.08156   0.65517   0.00000  Uiso   1.00
C9     C     0.63228   0.16551   0.67717   0.00000  Uiso   1.00
C10    C     0.13182   0.01315   0.52673   0.00000  Uiso   1.00
C11    C     0.03114   0.03632   0.56760   0.00000  Uiso   1.00
C12    C     0.96424   0.09382   0.51132   0.00000  Uiso   1.00
C13    C     0.82601   0.18484   0.45004   0.00000  Uiso   1.00
C14    C     0.27787   0.01223   0.40277   0.00000  Uiso   1.00
C15    C     0.27292   0.90702   0.40702   0.00000  Uiso   1.00
C16    C     0.29729   0.84741   0.32884   0.00000  Uiso   1.00
C17    C     0.28779   0.75341   0.34776   0.00000  Uiso   1.00
C18    C     0.35490   0.04169   0.48661   0.00000  Uiso   1.00
C19    C     0.44820   0.09533   0.47534   0.00000  Uiso   1.00
C20    C     0.50770   0.11471   0.56125   0.00000  Uiso   1.00
C21    C     0.16453   0.04624   0.43297   0.00000  Uiso   1.00
C22    C     0.09777   0.10373   0.37662   0.00000  Uiso   1.00
C23    C     0.99701   0.12698   0.41739   0.00000  Uiso   1.00
H24    H     0.19218   0.92553   0.64838   0.00000  Uiso   1.00
H25    H     0.20535   0.75440   0.59239   0.00000  Uiso   1.00
H26    H     0.35622   0.00229   0.73886   0.00000  Uiso   1.00
H27    H     0.00585   0.01069   0.64016   0.00000  Uiso   1.00
H28    H     0.23442   0.57927   0.48897   0.00000  Uiso   1.00
H29    H     0.55252   0.10198   0.79782   0.00000  Uiso   1.00
H30    H     0.81370   0.11970   0.58969   0.00000  Uiso   1.00
H31    H     0.30334   0.03801   0.32978   0.00000  Uiso   1.00
H32    H     0.32261   0.87304   0.25629   0.00000  Uiso   1.00
H33    H     0.47348   0.12093   0.40277   0.00000  Uiso   1.00
H34    H     0.12311   0.12933   0.30407   0.00000  Uiso   1.00
H35    H     0.32960   0.67556   0.21618   0.00000  Uiso   1.00
H36    H     0.64770   0.19828   0.52504   0.00000  Uiso   1.00
H37    H     0.90887   0.21599   0.31691   0.00000  Uiso   1.00
O38    O     0.29272   0.51686   0.31000   0.00000  Uiso   1.00
O39    O     0.71003   0.20266   0.71521   0.00000  Uiso   1.00
O40    O     0.74072   0.22589   0.44214   0.00000  Uiso   1.00
N41    N     0.25415   0.62457   0.43485   0.00000  Uiso   1.00
N42    N     0.55157   0.11326   0.72361   0.00000  Uiso   1.00
N43    N     0.86084   0.12985   0.52903   0.00000  Uiso   1.00
N44    N     0.30537   0.67638   0.28806   0.00000  Uiso   1.00
N45    N     0.60278   0.16508   0.57682   0.00000  Uiso   1.00
N46    N     0.91205   0.18166   0.38225   0.00000  Uiso   1.00
C47    C     0.28236   0.04870   0.07539   0.00000  Uiso   1.00
C48    C     0.25980   0.12608   0.00078   0.00000  Uiso   1.00
C49    C     0.26934   0.22001   0.01982   0.00000  Uiso   1.00
C50    C     0.24498   0.27975   0.94168   0.00000  Uiso   1.00
C51    C     0.21487   0.40494   0.84011   0.00000  Uiso   1.00
C52    C     0.17781   0.99141   0.08036   0.00000  Uiso   1.00
C53    C     0.11844   0.97209   0.16632   0.00000  Uiso   1.00
C54    C     0.02507   0.91844   0.15517   0.00000  Uiso   1.00
C55    C     0.86772   0.83449   0.17717   0.00000  Uiso   1.00
C56    C     0.36818   0.98685   0.02673   0.00000  Uiso   1.00
C57    C     0.46886   0.96368   0.06760   0.00000  Uiso   1.00
C58    C     0.53576   0.90618   0.01132   0.00000  Uiso   1.00
C59    C     0.67399   0.81516   0.95004   0.00000  Uiso   1.00
C60    C     0.22213   0.98777   0.90277   0.00000  Uiso   1.00
C61    C     0.22708   0.09298   0.90702   0.00000  Uiso   1.00
C62    C     0.20271   0.15259   0.82884   0.00000  Uiso   1.00
C63    C     0.21221   0.24659   0.84776   0.00000  Uiso   1.00
C64    C     0.14510   0.95831   0.98661   0.00000  Uiso   1.00
C65    C     0.05180   0.90467   0.97534   0.00000  Uiso   1.00
C66    C     0.99230   0.88529   0.06125   0.00000  Uiso   1.00
C67    C     0.33547   0.95376   0.93297   0.00000  Uiso   1.00
C68    C     0.40223   0.89627   0.87662   0.00000  Uiso   1.00
C69    C     0.50299   0.87302   0.91739   0.00000  Uiso   1.00
H70    H     0.30782   0.07447   0.14838   0.00000  Uiso   1.00
H71    H     0.29465   0.24560   0.09239   0.00000  Uiso   1.00
H72    H     0.14378   0.99771   0.23886   0.00000  Uiso   1.00
H73    H     0.49415   0.98931   0.14016   0.00000  Uiso   1.00
H74    H     0.26558   0.42073   0.98897   0.00000  Uiso   1.00
H75    H     0.94748   0.89802   0.29782   0.00000  Uiso   1.00
H76    H     0.68630   0.88030   0.08969   0.00000  Uiso   1.00
H77    H     0.19666   0.96199   0.82978   0.00000  Uiso   1.00
H78    H     0.17739   0.12696   0.75629   0.00000  Uiso   1.00
H79    H     0.02652   0.87907   0.90277   0.00000  Uiso   1.00
H80    H     0.37689   0.87067   0.80407   0.00000  Uiso   1.00
H81    H     0.17040   0.32444   0.71618   0.00000  Uiso   1.00
H82    H     0.85230   0.80172   0.02504   0.00000  Uiso   1.00
H83    H     0.59113   0.78401   0.81691   0.00000  Uiso   1.00
O84    O     0.20728   0.48314   0.81000   0.00000  Uiso   1.00
O85    O     0.78997   0.79734   0.21521   0.00000  Uiso   1.00
O86    O     0.75928   0.77411   0.94214   0.00000  Uiso   1.00
N87    N     0.24585   0.37543   0.93485   0.00000  Uiso   1.00
N88    N     0.94843   0.88674   0.22361   0.00000  Uiso   1.00
N89    N     0.63916   0.87015   0.02903   0.00000  Uiso   1.00
N90    N     0.19463   0.32362   0.78806   0.00000  Uiso   1.00
N91    N     0.89722   0.83492   0.07682   0.00000  Uiso   1.00
N92    N     0.58795   0.81834   0.88225   0.00000  Uiso   1.00
C93    C     0.78236   0.45130   0.92461   0.00000  Uiso   1.00
C94    C     0.75980   0.37392   0.99922   0.00000  Uiso   1.00
C95    C     0.76934   0.27999   0.98018   0.00000  Uiso   1.00
C96    C     0.74498   0.22025   0.05832   0.00000  Uiso   1.00
C97    C     0.71487   0.09506   0.15989   0.00000  Uiso   1.00
C98    C     0.67781   0.50859   0.91964   0.00000  Uiso   1.00
C99    C     0.61844   0.52791   0.83368   0.00000  Uiso   1.00
C100   C     0.52507   0.58156   0.84483   0.00000  Uiso   1.00
C101   C     0.36772   0.66551   0.82283   0.00000  Uiso   1.00
C102   C     0.86818   0.51315   0.97327   0.00000  Uiso   1.00
C103   C     0.96886   0.53632   0.93240   0.00000  Uiso   1.00
C104   C     0.03576   0.59382   0.98868   0.00000  Uiso   1.00
C105   C     0.17399   0.68484   0.04996   0.00000  Uiso   1.00
C106   C     0.72213   0.51223   0.09723   0.00000  Uiso   1.00
C107   C     0.72708   0.40702   0.09298   0.00000  Uiso   1.00
C108   C     0.70271   0.34741   0.17116   0.00000  Uiso   1.00
C109   C     0.71221   0.25341   0.15224   0.00000  Uiso   1.00
C110   C     0.64510   0.54169   0.01339   0.00000  Uiso   1.00
C111   C     0.55180   0.59533   0.02466   0.00000  Uiso   1.00
C112   C     0.49230   0.61471   0.93875   0.00000  Uiso   1.00
C113   C     0.83547   0.54624   0.06703   0.00000  Uiso   1.00
C114   C     0.90223   0.60373   0.12338   0.00000  Uiso   1.00
C115   C     0.00299   0.62698   0.08261   0.00000  Uiso   1.00
H116   H     0.80782   0.42553   0.85162   0.00000  Uiso   1.00
H117   H     0.79465   0.25440   0.90761   0.00000  Uiso   1.00
H118   H     0.64378   0.50229   0.76114   0.00000  Uiso   1.00
H119   H     0.99415   0.51069   0.85984   0.00000  Uiso   1.00
H120   H     0.76558   0.07927   0.01103   0.00000  Uiso   1.00
H121   H     0.44748   0.60198   0.70218   0.00000  Uiso   1.00
H122   H     0.18630   0.61970   0.91031   0.00000  Uiso   1.00
H123   H     0.69666   0.53801   0.17022   0.00000  Uiso   1.00
H124   H     0.67739   0.37304   0.24371   0.00000  Uiso   1.00
H125   H     0.52652   0.62093   0.09723   0.00000  Uiso   1.00
H126   H     0.87689   0.62933   0.19593   0.00000  Uiso   1.00
H127   H     0.67040   0.17556   0.28382   0.00000  Uiso   1.00
H128   H     0.35230   0.69828   0.97496   0.00000  Uiso   1.00
H129   H     0.09113   0.71599   0.18309   0.00000  Uiso   1.00
O130   O     0.70728   0.01686   0.19000   0.00000  Uiso   1.00
O131   O     0.28997   0.70266   0.78479   0.00000  Uiso   1.00
O132   O     0.25928   0.72589   0.05786   0.00000  Uiso   1.00
N133   N     0.74585   0.12457   0.06515   0.00000  Uiso   1.00
N134   N     0.44843   0.61326   0.77639   0.00000  Uiso   1.00
N135   N     0.13916   0.62985   0.97097   0.00000  Uiso   1.00
N136   N     0.69463   0.17638   0.21194   0.00000  Uiso   1.00
N137   N     0.39722   0.66508   0.92318   0.00000  Uiso   1.00
N138   N     0.08795   0.68166   0.11775   0.00000  Uiso   1.00
C139   C     0.71764   0.54870   0.42461   0.00000  Uiso   1.00
C140   C     0.74020   0.62608   0.49922   0.00000  Uiso   1.00
C141   C     0.73066   0.72001   0.48018   0.00000  Uiso   1.00
C142   C     0.75502   0.77975   0.55832   0.00000  Uiso   1.00
C143   C     0.78513   0.90494   0.65989   0.00000  Uiso   1.00
C144   C     0.82219   0.49141   0.41964   0.00000  Uiso   1.00
C145   C     0.88156   0.47209   0.33368   0.00000  Uiso   1.00
C146   C     0.97493   0.41844   0.34483   0.00000  Uiso   1.00
C147   C     0.13228   0.33449   0.32283   0.00000  Uiso   1.00
C148   C     0.63182   0.48685   0.47327   0.00000  Uiso   1.00
C149   C     0.53114   0.46368   0.43240   0.00000  Uiso   1.00
C150   C     0.46424   0.40618   0.48868   0.00000  Uiso   1.00
C151   C     0.32601   0.31516   0.54996   0.00000  Uiso   1.00
C152   C     0.77787   0.48777   0.59723   0.00000  Uiso   1.00
C153   C     0.77292   0.59298   0.59298   0.00000  Uiso   1.00
C154   C     0.79729   0.65259   0.67116   0.00000  Uiso   1.00
C155   C     0.78779   0.74659   0.65224   0.00000  Uiso   1.00
C156   C     0.85490   0.45831   0.51339   0.00000  Uiso   1.00
C157   C     0.94820   0.40467   0.52466   0.00000  Uiso   1.00
C158   C     0.00770   0.38529   0.43875   0.00000  Uiso   1.00
C159   C     0.66453   0.45376   0.56703   0.00000  Uiso   1.00
C160   C     0.59777   0.39627   0.62338   0.00000  Uiso   1.00
C161   C     0.49701   0.37302   0.58261   0.00000  Uiso   1.00
H162   H     0.69218   0.57447   0.35162   0.00000  Uiso   1.00
H163   H     0.70535   0.74560   0.40761   0.00000  Uiso   1.00
H164   H     0.85622   0.49771   0.26114   0.00000  Uiso   1.00
H165   H     0.50585   0.48931   0.35984   0.00000  Uiso   1.00
H166   H     0.73442   0.92073   0.51103   0.00000  Uiso   1.00
H167   H     0.05252   0.39802   0.20218   0.00000  Uiso   1.00
H168   H     0.31370   0.38030   0.41031   0.00000  Uiso   1.00
H169   H     0.80334   0.46199   0.67022   0.00000  Uiso   1.00
H170   H     0.82261   0.62696   0.74371   0.00000  Uiso   1.00
H171   H     0.97348   0.37907   0.59723   0.00000  Uiso   1.00
H172   H     0.62311   0.37067   0.69593   0.00000  Uiso   1.00
H173   H     0.82960   0.82444   0.78382   0.00000  Uiso   1.00
H174   H     0.14770   0.30172   0.47496   0.00000  Uiso   1.00
H175   H     0.40887   0.28401   0.68309   0.00000  Uiso   1.00
O176   O     0.79272   0.98314   0.69000   0.00000  Uiso   1.00
O177   O     0.21003   0.29734   0.28479   0.00000  Uiso   1.00
O178   O     0.24072   0.27411   0.55786   0.00000  Uiso   1.00
N179   N     0.75415   0.87543   0.56515   0.00000  Uiso   1.00
N180   N     0.05157   0.38674   0.27639   0.00000  Uiso   1.00
N181   N     0.36084   0.37015   0.47097   0.00000  Uiso   1.00
N182   N     0.80537   0.82362   0.71194   0.00000  Uiso   1.00
N183   N     0.10278   0.33492   0.42318   0.00000  Uiso   1.00
N184   N     0.41205   0.31834   0.61775   0.00000  Uiso   1.00
