data_job_03015
_audit_creation_date              2018-12-19
_audit_creation_method            'Materials Studio'
_symmetry_space_group_name_H-M    'P1'
_symmetry_Int_Tables_number       1
_symmetry_cell_setting            triclinic
loop_
_symmetry_equiv_pos_as_xyz
  x,y,z
_cell_length_a                    12.5139
_cell_length_b                    10.8356
_cell_length_c                    31.7727
_cell_angle_alpha                 90.0000
_cell_angle_beta                  93.2985
_cell_angle_gamma                 90.0000
loop_
_atom_site_label
_atom_site_type_symbol
_atom_site_fract_x
_atom_site_fract_y
_atom_site_fract_z
_atom_site_U_iso_or_equiv
_atom_site_adp_type
_atom_site_occupancy
C1     C     0.55489   0.58221   0.15926   0.00000  Uiso   1.00
C2     C     0.47499   0.47600   0.15957   0.00000  Uiso   1.00
C3     C     0.38519   0.47111   0.18319   0.00000  Uiso   1.00
C4     C     0.32218   0.36586   0.17909   0.00000  Uiso   1.00
C5     C     0.19420   0.21563   0.18367   0.00000  Uiso   1.00
C6     C     0.66424   0.52597   0.17106   0.00000  Uiso   1.00
C7     C     0.73355   0.56312   0.20432   0.00000  Uiso   1.00
C8     C     0.82986   0.49994   0.20988   0.00000  Uiso   1.00
C9     C     0.99572   0.42737   0.23227   0.00000  Uiso   1.00
C10    C     0.55819   0.62252   0.11337   0.00000  Uiso   1.00
C11    C     0.53837   0.74085   0.09813   0.00000  Uiso   1.00
C12    C     0.54542   0.75896   0.05512   0.00000  Uiso   1.00
C13    C     0.54663   0.83629   0.98793   0.00000  Uiso   1.00
C14    C     0.60268   0.40398   0.10997   0.00000  Uiso   1.00
C15    C     0.50096   0.37919   0.13280   0.00000  Uiso   1.00
C16    C     0.43806   0.27392   0.12866   0.00000  Uiso   1.00
C17    C     0.34818   0.26888   0.15226   0.00000  Uiso   1.00
C18    C     0.69020   0.42917   0.14429   0.00000  Uiso   1.00
C19    C     0.78643   0.36593   0.14979   0.00000  Uiso   1.00
C20    C     0.85587   0.40296   0.18306   0.00000  Uiso   1.00
C21    C     0.58415   0.52571   0.08659   0.00000  Uiso   1.00
C22    C     0.59124   0.54365   0.04360   0.00000  Uiso   1.00
C23    C     0.57143   0.66198   0.02830   0.00000  Uiso   1.00
H24    H     0.53468   0.65758   0.18010   0.00000  Uiso   1.00
H25    H     0.36513   0.54604   0.20391   0.00000  Uiso   1.00
H26    H     0.71344   0.63805   0.22503   0.00000  Uiso   1.00
H27    H     0.51828   0.81574   0.11885   0.00000  Uiso   1.00
H28    H     0.18861   0.37967   0.21851   0.00000  Uiso   1.00
H29    H     0.92307   0.57369   0.26304   0.00000  Uiso   1.00
H30    H     0.51155   0.94840   0.03915   0.00000  Uiso   1.00
H31    H     0.62290   0.32861   0.08912   0.00000  Uiso   1.00
H32    H     0.45818   0.19902   0.10794   0.00000  Uiso   1.00
H33    H     0.80650   0.29102   0.12907   0.00000  Uiso   1.00
H34    H     0.61134   0.46871   0.02289   0.00000  Uiso   1.00
H35    H     0.26414   0.09801   0.14062   0.00000  Uiso   1.00
H36    H     0.99860   0.29203   0.18516   0.00000  Uiso   1.00
H37    H     0.58707   0.66673   0.96126   0.00000  Uiso   1.00
O38    O     0.11645   0.15951   0.19359   0.00000  Uiso   1.00
O39    O     0.08004   0.41408   0.25202   0.00000  Uiso   1.00
O40    O     0.54012   0.90567   0.95827   0.00000  Uiso   1.00
N41    N     0.22898   0.33118   0.19759   0.00000  Uiso   1.00
N42    N     0.91565   0.51256   0.23923   0.00000  Uiso   1.00
N43    N     0.53094   0.86289   0.02991   0.00000  Uiso   1.00
N44    N     0.26962   0.17962   0.15568   0.00000  Uiso   1.00
N45    N     0.95629   0.36100   0.19732   0.00000  Uiso   1.00
N46    N     0.57158   0.71133   0.98800   0.00000  Uiso   1.00
C47    C     0.44511   0.08221   0.34074   0.00000  Uiso   1.00
C48    C     0.52501   0.97600   0.34043   0.00000  Uiso   1.00
C49    C     0.61481   0.97111   0.31681   0.00000  Uiso   1.00
C50    C     0.67782   0.86586   0.32091   0.00000  Uiso   1.00
C51    C     0.80580   0.71563   0.31633   0.00000  Uiso   1.00
C52    C     0.33576   0.02597   0.32894   0.00000  Uiso   1.00
C53    C     0.26645   0.06312   0.29568   0.00000  Uiso   1.00
C54    C     0.17014   0.99994   0.29012   0.00000  Uiso   1.00
C55    C     0.00428   0.92737   0.26773   0.00000  Uiso   1.00
C56    C     0.44181   0.12252   0.38663   0.00000  Uiso   1.00
C57    C     0.46163   0.24085   0.40187   0.00000  Uiso   1.00
C58    C     0.45458   0.25896   0.44488   0.00000  Uiso   1.00
C59    C     0.45337   0.33629   0.51207   0.00000  Uiso   1.00
C60    C     0.39732   0.90398   0.39003   0.00000  Uiso   1.00
C61    C     0.49904   0.87919   0.36720   0.00000  Uiso   1.00
C62    C     0.56194   0.77392   0.37134   0.00000  Uiso   1.00
C63    C     0.65182   0.76888   0.34774   0.00000  Uiso   1.00
C64    C     0.30980   0.92917   0.35571   0.00000  Uiso   1.00
C65    C     0.21357   0.86593   0.35021   0.00000  Uiso   1.00
C66    C     0.14413   0.90296   0.31694   0.00000  Uiso   1.00
C67    C     0.41585   0.02571   0.41341   0.00000  Uiso   1.00
C68    C     0.40876   0.04365   0.45640   0.00000  Uiso   1.00
C69    C     0.42857   0.16198   0.47170   0.00000  Uiso   1.00
H70    H     0.46532   0.15758   0.31990   0.00000  Uiso   1.00
H71    H     0.63487   0.04604   0.29609   0.00000  Uiso   1.00
H72    H     0.28656   0.13805   0.27497   0.00000  Uiso   1.00
H73    H     0.48172   0.31574   0.38115   0.00000  Uiso   1.00
H74    H     0.81139   0.87967   0.28149   0.00000  Uiso   1.00
H75    H     0.07693   0.07369   0.23696   0.00000  Uiso   1.00
H76    H     0.48845   0.44840   0.46085   0.00000  Uiso   1.00
H77    H     0.37710   0.82861   0.41088   0.00000  Uiso   1.00
H78    H     0.54182   0.69902   0.39206   0.00000  Uiso   1.00
H79    H     0.19350   0.79102   0.37093   0.00000  Uiso   1.00
H80    H     0.38866   0.96871   0.47711   0.00000  Uiso   1.00
H81    H     0.73586   0.59801   0.35938   0.00000  Uiso   1.00
H82    H     0.00140   0.79203   0.31484   0.00000  Uiso   1.00
H83    H     0.41293   0.16673   0.53874   0.00000  Uiso   1.00
O84    O     0.88355   0.65951   0.30641   0.00000  Uiso   1.00
O85    O     0.91996   0.91408   0.24798   0.00000  Uiso   1.00
O86    O     0.45988   0.40567   0.54173   0.00000  Uiso   1.00
N87    N     0.77102   0.83118   0.30241   0.00000  Uiso   1.00
N88    N     0.08435   0.01256   0.26077   0.00000  Uiso   1.00
N89    N     0.46906   0.36289   0.47009   0.00000  Uiso   1.00
N90    N     0.73038   0.67962   0.34432   0.00000  Uiso   1.00
N91    N     0.04371   0.86100   0.30268   0.00000  Uiso   1.00
N92    N     0.42842   0.21133   0.51200   0.00000  Uiso   1.00
C93    C     0.44511   0.41779   0.84074   0.00000  Uiso   1.00
C94    C     0.52501   0.52400   0.84043   0.00000  Uiso   1.00
C95    C     0.61481   0.52889   0.81681   0.00000  Uiso   1.00
C96    C     0.67782   0.63414   0.82091   0.00000  Uiso   1.00
C97    C     0.80580   0.78437   0.81633   0.00000  Uiso   1.00
C98    C     0.33576   0.47403   0.82894   0.00000  Uiso   1.00
C99    C     0.26645   0.43688   0.79568   0.00000  Uiso   1.00
C100   C     0.17014   0.50006   0.79012   0.00000  Uiso   1.00
C101   C     0.00428   0.57263   0.76773   0.00000  Uiso   1.00
C102   C     0.44181   0.37748   0.88663   0.00000  Uiso   1.00
C103   C     0.46163   0.25915   0.90187   0.00000  Uiso   1.00
C104   C     0.45458   0.24104   0.94488   0.00000  Uiso   1.00
C105   C     0.45337   0.16371   0.01207   0.00000  Uiso   1.00
C106   C     0.39732   0.59602   0.89003   0.00000  Uiso   1.00
C107   C     0.49904   0.62081   0.86720   0.00000  Uiso   1.00
C108   C     0.56194   0.72608   0.87134   0.00000  Uiso   1.00
C109   C     0.65182   0.73112   0.84774   0.00000  Uiso   1.00
C110   C     0.30980   0.57083   0.85571   0.00000  Uiso   1.00
C111   C     0.21357   0.63407   0.85021   0.00000  Uiso   1.00
C112   C     0.14413   0.59704   0.81694   0.00000  Uiso   1.00
C113   C     0.41585   0.47429   0.91341   0.00000  Uiso   1.00
C114   C     0.40876   0.45635   0.95640   0.00000  Uiso   1.00
C115   C     0.42857   0.33802   0.97170   0.00000  Uiso   1.00
H116   H     0.46532   0.34242   0.81990   0.00000  Uiso   1.00
H117   H     0.63487   0.45396   0.79609   0.00000  Uiso   1.00
H118   H     0.28656   0.36195   0.77497   0.00000  Uiso   1.00
H119   H     0.48172   0.18426   0.88115   0.00000  Uiso   1.00
H120   H     0.81139   0.62033   0.78149   0.00000  Uiso   1.00
H121   H     0.07693   0.42631   0.73696   0.00000  Uiso   1.00
H122   H     0.48845   0.05160   0.96085   0.00000  Uiso   1.00
H123   H     0.37710   0.67139   0.91088   0.00000  Uiso   1.00
H124   H     0.54183   0.80098   0.89206   0.00000  Uiso   1.00
H125   H     0.19350   0.70898   0.87093   0.00000  Uiso   1.00
H126   H     0.38866   0.53129   0.97711   0.00000  Uiso   1.00
H127   H     0.73586   0.90199   0.85938   0.00000  Uiso   1.00
H128   H     0.00140   0.70797   0.81484   0.00000  Uiso   1.00
H129   H     0.41293   0.33327   0.03874   0.00000  Uiso   1.00
O130   O     0.88355   0.84049   0.80641   0.00000  Uiso   1.00
O131   O     0.91996   0.58592   0.74798   0.00000  Uiso   1.00
O132   O     0.45988   0.09433   0.04173   0.00000  Uiso   1.00
N133   N     0.77102   0.66882   0.80241   0.00000  Uiso   1.00
N134   N     0.08435   0.48744   0.76077   0.00000  Uiso   1.00
N135   N     0.46906   0.13711   0.97009   0.00000  Uiso   1.00
N136   N     0.73038   0.82038   0.84432   0.00000  Uiso   1.00
N137   N     0.04371   0.63900   0.80268   0.00000  Uiso   1.00
N138   N     0.42842   0.28867   0.01200   0.00000  Uiso   1.00
C139   C     0.55489   0.91779   0.65926   0.00000  Uiso   1.00
C140   C     0.47499   0.02400   0.65957   0.00000  Uiso   1.00
C141   C     0.38519   0.02889   0.68319   0.00000  Uiso   1.00
C142   C     0.32218   0.13414   0.67909   0.00000  Uiso   1.00
C143   C     0.19420   0.28437   0.68367   0.00000  Uiso   1.00
C144   C     0.66424   0.97403   0.67106   0.00000  Uiso   1.00
C145   C     0.73355   0.93688   0.70432   0.00000  Uiso   1.00
C146   C     0.82986   0.00006   0.70988   0.00000  Uiso   1.00
C147   C     0.99572   0.07263   0.73227   0.00000  Uiso   1.00
C148   C     0.55819   0.87748   0.61337   0.00000  Uiso   1.00
C149   C     0.53837   0.75915   0.59813   0.00000  Uiso   1.00
C150   C     0.54542   0.74104   0.55512   0.00000  Uiso   1.00
C151   C     0.54663   0.66371   0.48793   0.00000  Uiso   1.00
C152   C     0.60268   0.09602   0.60997   0.00000  Uiso   1.00
C153   C     0.50096   0.12081   0.63280   0.00000  Uiso   1.00
C154   C     0.43806   0.22608   0.62866   0.00000  Uiso   1.00
C155   C     0.34818   0.23112   0.65226   0.00000  Uiso   1.00
C156   C     0.69020   0.07083   0.64429   0.00000  Uiso   1.00
C157   C     0.78643   0.13407   0.64979   0.00000  Uiso   1.00
C158   C     0.85587   0.09704   0.68306   0.00000  Uiso   1.00
C159   C     0.58415   0.97429   0.58659   0.00000  Uiso   1.00
C160   C     0.59124   0.95635   0.54360   0.00000  Uiso   1.00
C161   C     0.57143   0.83802   0.52830   0.00000  Uiso   1.00
H162   H     0.53468   0.84242   0.68010   0.00000  Uiso   1.00
H163   H     0.36513   0.95396   0.70391   0.00000  Uiso   1.00
H164   H     0.71344   0.86195   0.72503   0.00000  Uiso   1.00
H165   H     0.51828   0.68426   0.61885   0.00000  Uiso   1.00
H166   H     0.18861   0.12033   0.71851   0.00000  Uiso   1.00
H167   H     0.92307   0.92631   0.76304   0.00000  Uiso   1.00
H168   H     0.51155   0.55160   0.53915   0.00000  Uiso   1.00
H169   H     0.62290   0.17139   0.58912   0.00000  Uiso   1.00
H170   H     0.45818   0.30098   0.60794   0.00000  Uiso   1.00
H171   H     0.80650   0.20898   0.62907   0.00000  Uiso   1.00
H172   H     0.61134   0.03129   0.52289   0.00000  Uiso   1.00
H173   H     0.26414   0.40199   0.64062   0.00000  Uiso   1.00
H174   H     0.99860   0.20797   0.68516   0.00000  Uiso   1.00
H175   H     0.58707   0.83327   0.46126   0.00000  Uiso   1.00
O176   O     0.11645   0.34049   0.69359   0.00000  Uiso   1.00
O177   O     0.08004   0.08592   0.75202   0.00000  Uiso   1.00
O178   O     0.54012   0.59433   0.45827   0.00000  Uiso   1.00
N179   N     0.22898   0.16882   0.69759   0.00000  Uiso   1.00
N180   N     0.91565   0.98744   0.73923   0.00000  Uiso   1.00
N181   N     0.53094   0.63711   0.52991   0.00000  Uiso   1.00
N182   N     0.26962   0.32038   0.65568   0.00000  Uiso   1.00
N183   N     0.95629   0.13900   0.69732   0.00000  Uiso   1.00
N184   N     0.57158   0.78867   0.48800   0.00000  Uiso   1.00
