data_job_02847
_audit_creation_date              2018-12-19
_audit_creation_method            'Materials Studio'
_symmetry_space_group_name_H-M    'P1'
_symmetry_Int_Tables_number       1
_symmetry_cell_setting            triclinic
loop_
_symmetry_equiv_pos_as_xyz
  x,y,z
_cell_length_a                    14.0315
_cell_length_b                    19.2688
_cell_length_c                    23.0577
_cell_angle_alpha                 90.0000
_cell_angle_beta                  90.0000
_cell_angle_gamma                 90.0000
loop_
_atom_site_label
_atom_site_type_symbol
_atom_site_fract_x
_atom_site_fract_y
_atom_site_fract_z
_atom_site_U_iso_or_equiv
_atom_site_adp_type
_atom_site_occupancy
C1     C     0.35536   0.69643   0.09916   0.00000  Uiso   1.00
C2     C     0.43399   0.65429   0.12821   0.00000  Uiso   1.00
C3     C     0.42993   0.58401   0.14111   0.00000  Uiso   1.00
C4     C     0.50928   0.55507   0.16774   0.00000  Uiso   1.00
C5     C     0.61912   0.48357   0.21087   0.00000  Uiso   1.00
C6     C     0.33314   0.75618   0.14036   0.00000  Uiso   1.00
C7     C     0.24428   0.77157   0.16346   0.00000  Uiso   1.00
C8     C     0.23874   0.82841   0.20031   0.00000  Uiso   1.00
C9     C     0.19199   0.91512   0.26227   0.00000  Uiso   1.00
C10    C     0.40045   0.72925   0.04560   0.00000  Uiso   1.00
C11    C     0.36818   0.72201   0.98903   0.00000  Uiso   1.00
C12    C     0.41929   0.75619   0.94611   0.00000  Uiso   1.00
C13    C     0.47706   0.80109   0.86093   0.00000  Uiso   1.00
C14    C     0.50350   0.77003   0.12352   0.00000  Uiso   1.00
C15    C     0.51445   0.69427   0.14145   0.00000  Uiso   1.00
C16    C     0.59383   0.66544   0.16806   0.00000  Uiso   1.00
C17    C     0.58989   0.59512   0.18100   0.00000  Uiso   1.00
C18    C     0.41360   0.79616   0.15360   0.00000  Uiso   1.00
C19    C     0.40818   0.85300   0.19042   0.00000  Uiso   1.00
C20    C     0.31934   0.86846   0.21357   0.00000  Uiso   1.00
C21    C     0.48092   0.76923   0.05884   0.00000  Uiso   1.00
C22    C     0.53209   0.80343   0.01599   0.00000  Uiso   1.00
C23    C     0.49990   0.79624   0.95936   0.00000  Uiso   1.00
H24    H     0.29271   0.66531   0.08886   0.00000  Uiso   1.00
H25    H     0.36765   0.55309   0.13086   0.00000  Uiso   1.00
H26    H     0.18203   0.74062   0.15321   0.00000  Uiso   1.00
H27    H     0.30591   0.69107   0.97881   0.00000  Uiso   1.00
H28    H     0.48620   0.44631   0.18329   0.00000  Uiso   1.00
H29    H     0.09480   0.84175   0.23039   0.00000  Uiso   1.00
H30    H     0.35603   0.73725   0.86263   0.00000  Uiso   1.00
H31    H     0.56614   0.80116   0.13383   0.00000  Uiso   1.00
H32    H     0.65609   0.69639   0.17830   0.00000  Uiso   1.00
H33    H     0.47046   0.88392   0.20065   0.00000  Uiso   1.00
H34    H     0.59435   0.83437   0.02625   0.00000  Uiso   1.00
H35    H     0.72031   0.56261   0.22180   0.00000  Uiso   1.00
H36    H     0.32891   0.95806   0.26889   0.00000  Uiso   1.00
H37    H     0.59014   0.85356   0.90114   0.00000  Uiso   1.00
O38    O     0.65748   0.43310   0.23101   0.00000  Uiso   1.00
O39    O     0.14397   0.95190   0.29279   0.00000  Uiso   1.00
O40    O     0.48670   0.81480   0.81030   0.00000  Uiso   1.00
N41    N     0.52896   0.48806   0.18624   0.00000  Uiso   1.00
N42    N     0.16303   0.85776   0.23028   0.00000  Uiso   1.00
N43    N     0.40724   0.76008   0.88646   0.00000  Uiso   1.00
N44    N     0.65493   0.55064   0.20696   0.00000  Uiso   1.00
N45    N     0.28900   0.92034   0.25100   0.00000  Uiso   1.00
N46    N     0.53322   0.82267   0.90718   0.00000  Uiso   1.00
C47    C     0.14464   0.30357   0.09916   0.00000  Uiso   1.00
C48    C     0.06601   0.34571   0.12821   0.00000  Uiso   1.00
C49    C     0.07007   0.41599   0.14111   0.00000  Uiso   1.00
C50    C     0.99072   0.44493   0.16774   0.00000  Uiso   1.00
C51    C     0.88088   0.51643   0.21087   0.00000  Uiso   1.00
C52    C     0.16686   0.24382   0.14036   0.00000  Uiso   1.00
C53    C     0.25572   0.22843   0.16346   0.00000  Uiso   1.00
C54    C     0.26126   0.17159   0.20031   0.00000  Uiso   1.00
C55    C     0.30801   0.08488   0.26227   0.00000  Uiso   1.00
C56    C     0.09955   0.27075   0.04560   0.00000  Uiso   1.00
C57    C     0.13182   0.27799   0.98903   0.00000  Uiso   1.00
C58    C     0.08071   0.24381   0.94611   0.00000  Uiso   1.00
C59    C     0.02294   0.19891   0.86093   0.00000  Uiso   1.00
C60    C     0.99650   0.22997   0.12352   0.00000  Uiso   1.00
C61    C     0.98555   0.30573   0.14145   0.00000  Uiso   1.00
C62    C     0.90617   0.33456   0.16806   0.00000  Uiso   1.00
C63    C     0.91011   0.40488   0.18100   0.00000  Uiso   1.00
C64    C     0.08640   0.20384   0.15360   0.00000  Uiso   1.00
C65    C     0.09182   0.14700   0.19042   0.00000  Uiso   1.00
C66    C     0.18066   0.13154   0.21357   0.00000  Uiso   1.00
C67    C     0.01908   0.23077   0.05884   0.00000  Uiso   1.00
C68    C     0.96791   0.19657   0.01599   0.00000  Uiso   1.00
C69    C     0.00010   0.20376   0.95936   0.00000  Uiso   1.00
H70    H     0.20729   0.33469   0.08886   0.00000  Uiso   1.00
H71    H     0.13235   0.44691   0.13086   0.00000  Uiso   1.00
H72    H     0.31797   0.25938   0.15321   0.00000  Uiso   1.00
H73    H     0.19409   0.30893   0.97881   0.00000  Uiso   1.00
H74    H     0.01380   0.55369   0.18329   0.00000  Uiso   1.00
H75    H     0.40520   0.15825   0.23039   0.00000  Uiso   1.00
H76    H     0.14397   0.26275   0.86263   0.00000  Uiso   1.00
H77    H     0.93386   0.19884   0.13383   0.00000  Uiso   1.00
H78    H     0.84391   0.30361   0.17830   0.00000  Uiso   1.00
H79    H     0.02954   0.11608   0.20065   0.00000  Uiso   1.00
H80    H     0.90565   0.16563   0.02625   0.00000  Uiso   1.00
H81    H     0.77969   0.43739   0.22180   0.00000  Uiso   1.00
H82    H     0.17109   0.04194   0.26889   0.00000  Uiso   1.00
H83    H     0.90986   0.14644   0.90114   0.00000  Uiso   1.00
O84    O     0.84252   0.56690   0.23101   0.00000  Uiso   1.00
O85    O     0.35603   0.04810   0.29279   0.00000  Uiso   1.00
O86    O     0.01330   0.18520   0.81030   0.00000  Uiso   1.00
N87    N     0.97104   0.51194   0.18624   0.00000  Uiso   1.00
N88    N     0.33697   0.14224   0.23028   0.00000  Uiso   1.00
N89    N     0.09276   0.23992   0.88646   0.00000  Uiso   1.00
N90    N     0.84507   0.44936   0.20696   0.00000  Uiso   1.00
N91    N     0.21100   0.07966   0.25100   0.00000  Uiso   1.00
N92    N     0.96678   0.17733   0.90718   0.00000  Uiso   1.00
C93    C     0.64464   0.69643   0.40084   0.00000  Uiso   1.00
C94    C     0.56601   0.65429   0.37179   0.00000  Uiso   1.00
C95    C     0.57007   0.58401   0.35889   0.00000  Uiso   1.00
C96    C     0.49072   0.55507   0.33226   0.00000  Uiso   1.00
C97    C     0.38088   0.48357   0.28913   0.00000  Uiso   1.00
C98    C     0.66686   0.75618   0.35964   0.00000  Uiso   1.00
C99    C     0.75572   0.77157   0.33654   0.00000  Uiso   1.00
C100   C     0.76126   0.82841   0.29969   0.00000  Uiso   1.00
C101   C     0.80801   0.91512   0.23773   0.00000  Uiso   1.00
C102   C     0.59955   0.72925   0.45440   0.00000  Uiso   1.00
C103   C     0.63182   0.72201   0.51097   0.00000  Uiso   1.00
C104   C     0.58071   0.75619   0.55389   0.00000  Uiso   1.00
C105   C     0.52294   0.80109   0.63907   0.00000  Uiso   1.00
C106   C     0.49650   0.77003   0.37648   0.00000  Uiso   1.00
C107   C     0.48555   0.69427   0.35855   0.00000  Uiso   1.00
C108   C     0.40617   0.66544   0.33194   0.00000  Uiso   1.00
C109   C     0.41011   0.59512   0.31900   0.00000  Uiso   1.00
C110   C     0.58640   0.79616   0.34640   0.00000  Uiso   1.00
C111   C     0.59182   0.85300   0.30958   0.00000  Uiso   1.00
C112   C     0.68066   0.86846   0.28643   0.00000  Uiso   1.00
C113   C     0.51908   0.76923   0.44116   0.00000  Uiso   1.00
C114   C     0.46791   0.80343   0.48401   0.00000  Uiso   1.00
C115   C     0.50010   0.79624   0.54064   0.00000  Uiso   1.00
H116   H     0.70729   0.66531   0.41114   0.00000  Uiso   1.00
H117   H     0.63235   0.55309   0.36914   0.00000  Uiso   1.00
H118   H     0.81797   0.74062   0.34679   0.00000  Uiso   1.00
H119   H     0.69409   0.69107   0.52119   0.00000  Uiso   1.00
H120   H     0.51380   0.44631   0.31671   0.00000  Uiso   1.00
H121   H     0.90520   0.84175   0.26961   0.00000  Uiso   1.00
H122   H     0.64397   0.73725   0.63737   0.00000  Uiso   1.00
H123   H     0.43386   0.80116   0.36617   0.00000  Uiso   1.00
H124   H     0.34391   0.69639   0.32170   0.00000  Uiso   1.00
H125   H     0.52954   0.88392   0.29935   0.00000  Uiso   1.00
H126   H     0.40565   0.83437   0.47375   0.00000  Uiso   1.00
H127   H     0.27969   0.56261   0.27820   0.00000  Uiso   1.00
H128   H     0.67109   0.95806   0.23111   0.00000  Uiso   1.00
H129   H     0.40986   0.85356   0.59886   0.00000  Uiso   1.00
O130   O     0.34252   0.43310   0.26899   0.00000  Uiso   1.00
O131   O     0.85603   0.95190   0.20721   0.00000  Uiso   1.00
O132   O     0.51330   0.81480   0.68970   0.00000  Uiso   1.00
N133   N     0.47104   0.48806   0.31376   0.00000  Uiso   1.00
N134   N     0.83697   0.85776   0.26972   0.00000  Uiso   1.00
N135   N     0.59276   0.76008   0.61354   0.00000  Uiso   1.00
N136   N     0.34507   0.55064   0.29304   0.00000  Uiso   1.00
N137   N     0.71100   0.92034   0.24900   0.00000  Uiso   1.00
N138   N     0.46678   0.82267   0.59282   0.00000  Uiso   1.00
C139   C     0.85536   0.30357   0.40084   0.00000  Uiso   1.00
C140   C     0.93399   0.34571   0.37179   0.00000  Uiso   1.00
C141   C     0.92993   0.41599   0.35889   0.00000  Uiso   1.00
C142   C     0.00928   0.44493   0.33226   0.00000  Uiso   1.00
C143   C     0.11912   0.51643   0.28913   0.00000  Uiso   1.00
C144   C     0.83314   0.24382   0.35964   0.00000  Uiso   1.00
C145   C     0.74428   0.22843   0.33654   0.00000  Uiso   1.00
C146   C     0.73874   0.17159   0.29969   0.00000  Uiso   1.00
C147   C     0.69199   0.08488   0.23773   0.00000  Uiso   1.00
C148   C     0.90045   0.27075   0.45440   0.00000  Uiso   1.00
C149   C     0.86818   0.27799   0.51097   0.00000  Uiso   1.00
C150   C     0.91929   0.24381   0.55389   0.00000  Uiso   1.00
C151   C     0.97706   0.19891   0.63907   0.00000  Uiso   1.00
C152   C     0.00350   0.22997   0.37648   0.00000  Uiso   1.00
C153   C     0.01445   0.30573   0.35855   0.00000  Uiso   1.00
C154   C     0.09383   0.33456   0.33194   0.00000  Uiso   1.00
C155   C     0.08989   0.40488   0.31900   0.00000  Uiso   1.00
C156   C     0.91360   0.20384   0.34640   0.00000  Uiso   1.00
C157   C     0.90818   0.14700   0.30958   0.00000  Uiso   1.00
C158   C     0.81934   0.13154   0.28643   0.00000  Uiso   1.00
C159   C     0.98092   0.23077   0.44116   0.00000  Uiso   1.00
C160   C     0.03209   0.19657   0.48401   0.00000  Uiso   1.00
C161   C     0.99990   0.20376   0.54064   0.00000  Uiso   1.00
H162   H     0.79271   0.33469   0.41114   0.00000  Uiso   1.00
H163   H     0.86765   0.44691   0.36914   0.00000  Uiso   1.00
H164   H     0.68203   0.25938   0.34679   0.00000  Uiso   1.00
H165   H     0.80591   0.30893   0.52119   0.00000  Uiso   1.00
H166   H     0.98620   0.55369   0.31671   0.00000  Uiso   1.00
H167   H     0.59480   0.15825   0.26961   0.00000  Uiso   1.00
H168   H     0.85603   0.26275   0.63737   0.00000  Uiso   1.00
H169   H     0.06614   0.19884   0.36617   0.00000  Uiso   1.00
H170   H     0.15609   0.30361   0.32170   0.00000  Uiso   1.00
H171   H     0.97046   0.11608   0.29935   0.00000  Uiso   1.00
H172   H     0.09435   0.16563   0.47375   0.00000  Uiso   1.00
H173   H     0.22031   0.43739   0.27820   0.00000  Uiso   1.00
H174   H     0.82891   0.04194   0.23111   0.00000  Uiso   1.00
H175   H     0.09014   0.14644   0.59886   0.00000  Uiso   1.00
O176   O     0.15748   0.56690   0.26899   0.00000  Uiso   1.00
O177   O     0.64397   0.04810   0.20721   0.00000  Uiso   1.00
O178   O     0.98670   0.18520   0.68970   0.00000  Uiso   1.00
N179   N     0.02896   0.51194   0.31376   0.00000  Uiso   1.00
N180   N     0.66303   0.14224   0.26972   0.00000  Uiso   1.00
N181   N     0.90724   0.23992   0.61354   0.00000  Uiso   1.00
N182   N     0.15493   0.44936   0.29304   0.00000  Uiso   1.00
N183   N     0.78900   0.07966   0.24900   0.00000  Uiso   1.00
N184   N     0.03322   0.17733   0.59282   0.00000  Uiso   1.00
C185   C     0.64464   0.30357   0.90084   0.00000  Uiso   1.00
C186   C     0.56601   0.34571   0.87179   0.00000  Uiso   1.00
C187   C     0.57007   0.41599   0.85889   0.00000  Uiso   1.00
C188   C     0.49072   0.44493   0.83226   0.00000  Uiso   1.00
C189   C     0.38088   0.51643   0.78913   0.00000  Uiso   1.00
C190   C     0.66686   0.24382   0.85964   0.00000  Uiso   1.00
C191   C     0.75572   0.22843   0.83654   0.00000  Uiso   1.00
C192   C     0.76126   0.17159   0.79969   0.00000  Uiso   1.00
C193   C     0.80801   0.08488   0.73773   0.00000  Uiso   1.00
C194   C     0.59955   0.27075   0.95440   0.00000  Uiso   1.00
C195   C     0.63182   0.27799   0.01097   0.00000  Uiso   1.00
C196   C     0.58071   0.24381   0.05389   0.00000  Uiso   1.00
C197   C     0.52294   0.19891   0.13907   0.00000  Uiso   1.00
C198   C     0.49650   0.22997   0.87648   0.00000  Uiso   1.00
C199   C     0.48555   0.30573   0.85855   0.00000  Uiso   1.00
C200   C     0.40617   0.33456   0.83194   0.00000  Uiso   1.00
C201   C     0.41011   0.40488   0.81900   0.00000  Uiso   1.00
C202   C     0.58640   0.20384   0.84640   0.00000  Uiso   1.00
C203   C     0.59182   0.14700   0.80958   0.00000  Uiso   1.00
C204   C     0.68066   0.13154   0.78643   0.00000  Uiso   1.00
C205   C     0.51908   0.23077   0.94116   0.00000  Uiso   1.00
C206   C     0.46791   0.19657   0.98401   0.00000  Uiso   1.00
C207   C     0.50010   0.20376   0.04064   0.00000  Uiso   1.00
H208   H     0.70729   0.33469   0.91114   0.00000  Uiso   1.00
H209   H     0.63235   0.44691   0.86914   0.00000  Uiso   1.00
H210   H     0.81797   0.25938   0.84679   0.00000  Uiso   1.00
H211   H     0.69409   0.30893   0.02119   0.00000  Uiso   1.00
H212   H     0.51380   0.55369   0.81671   0.00000  Uiso   1.00
H213   H     0.90520   0.15825   0.76961   0.00000  Uiso   1.00
H214   H     0.64397   0.26275   0.13737   0.00000  Uiso   1.00
H215   H     0.43386   0.19884   0.86617   0.00000  Uiso   1.00
H216   H     0.34391   0.30361   0.82170   0.00000  Uiso   1.00
H217   H     0.52954   0.11608   0.79935   0.00000  Uiso   1.00
H218   H     0.40565   0.16563   0.97375   0.00000  Uiso   1.00
H219   H     0.27969   0.43739   0.77820   0.00000  Uiso   1.00
H220   H     0.67109   0.04194   0.73111   0.00000  Uiso   1.00
H221   H     0.40986   0.14644   0.09886   0.00000  Uiso   1.00
O222   O     0.34252   0.56690   0.76899   0.00000  Uiso   1.00
O223   O     0.85603   0.04810   0.70721   0.00000  Uiso   1.00
O224   O     0.51330   0.18520   0.18970   0.00000  Uiso   1.00
N225   N     0.47104   0.51194   0.81376   0.00000  Uiso   1.00
N226   N     0.83697   0.14224   0.76972   0.00000  Uiso   1.00
N227   N     0.59276   0.23992   0.11354   0.00000  Uiso   1.00
N228   N     0.34507   0.44936   0.79304   0.00000  Uiso   1.00
N229   N     0.71100   0.07966   0.74900   0.00000  Uiso   1.00
N230   N     0.46678   0.17733   0.09282   0.00000  Uiso   1.00
C231   C     0.85536   0.69643   0.90084   0.00000  Uiso   1.00
C232   C     0.93399   0.65429   0.87179   0.00000  Uiso   1.00
C233   C     0.92993   0.58401   0.85889   0.00000  Uiso   1.00
C234   C     0.00928   0.55507   0.83226   0.00000  Uiso   1.00
C235   C     0.11912   0.48357   0.78913   0.00000  Uiso   1.00
C236   C     0.83314   0.75618   0.85964   0.00000  Uiso   1.00
C237   C     0.74428   0.77157   0.83654   0.00000  Uiso   1.00
C238   C     0.73874   0.82841   0.79969   0.00000  Uiso   1.00
C239   C     0.69199   0.91512   0.73773   0.00000  Uiso   1.00
C240   C     0.90045   0.72925   0.95440   0.00000  Uiso   1.00
C241   C     0.86818   0.72201   0.01097   0.00000  Uiso   1.00
C242   C     0.91929   0.75619   0.05389   0.00000  Uiso   1.00
C243   C     0.97706   0.80109   0.13907   0.00000  Uiso   1.00
C244   C     0.00350   0.77003   0.87648   0.00000  Uiso   1.00
C245   C     0.01445   0.69427   0.85855   0.00000  Uiso   1.00
C246   C     0.09383   0.66544   0.83194   0.00000  Uiso   1.00
C247   C     0.08989   0.59512   0.81900   0.00000  Uiso   1.00
C248   C     0.91360   0.79616   0.84640   0.00000  Uiso   1.00
C249   C     0.90818   0.85300   0.80958   0.00000  Uiso   1.00
C250   C     0.81934   0.86846   0.78643   0.00000  Uiso   1.00
C251   C     0.98092   0.76923   0.94116   0.00000  Uiso   1.00
C252   C     0.03209   0.80343   0.98401   0.00000  Uiso   1.00
C253   C     0.99990   0.79624   0.04064   0.00000  Uiso   1.00
H254   H     0.79271   0.66531   0.91114   0.00000  Uiso   1.00
H255   H     0.86765   0.55309   0.86914   0.00000  Uiso   1.00
H256   H     0.68203   0.74062   0.84679   0.00000  Uiso   1.00
H257   H     0.80591   0.69107   0.02119   0.00000  Uiso   1.00
H258   H     0.98620   0.44631   0.81671   0.00000  Uiso   1.00
H259   H     0.59480   0.84175   0.76961   0.00000  Uiso   1.00
H260   H     0.85603   0.73725   0.13737   0.00000  Uiso   1.00
H261   H     0.06614   0.80116   0.86617   0.00000  Uiso   1.00
H262   H     0.15609   0.69639   0.82170   0.00000  Uiso   1.00
H263   H     0.97046   0.88392   0.79935   0.00000  Uiso   1.00
H264   H     0.09435   0.83437   0.97375   0.00000  Uiso   1.00
H265   H     0.22031   0.56261   0.77820   0.00000  Uiso   1.00
H266   H     0.82891   0.95806   0.73111   0.00000  Uiso   1.00
H267   H     0.09014   0.85356   0.09886   0.00000  Uiso   1.00
O268   O     0.15748   0.43310   0.76899   0.00000  Uiso   1.00
O269   O     0.64397   0.95190   0.70721   0.00000  Uiso   1.00
O270   O     0.98670   0.81480   0.18970   0.00000  Uiso   1.00
N271   N     0.02896   0.48806   0.81376   0.00000  Uiso   1.00
N272   N     0.66303   0.85776   0.76972   0.00000  Uiso   1.00
N273   N     0.90724   0.76008   0.11354   0.00000  Uiso   1.00
N274   N     0.15493   0.55064   0.79304   0.00000  Uiso   1.00
N275   N     0.78900   0.92034   0.74900   0.00000  Uiso   1.00
N276   N     0.03322   0.82267   0.09282   0.00000  Uiso   1.00
C277   C     0.35536   0.30357   0.59916   0.00000  Uiso   1.00
C278   C     0.43399   0.34571   0.62821   0.00000  Uiso   1.00
C279   C     0.42993   0.41599   0.64111   0.00000  Uiso   1.00
C280   C     0.50928   0.44493   0.66774   0.00000  Uiso   1.00
C281   C     0.61912   0.51643   0.71087   0.00000  Uiso   1.00
C282   C     0.33314   0.24382   0.64036   0.00000  Uiso   1.00
C283   C     0.24428   0.22843   0.66346   0.00000  Uiso   1.00
C284   C     0.23874   0.17159   0.70031   0.00000  Uiso   1.00
C285   C     0.19199   0.08488   0.76227   0.00000  Uiso   1.00
C286   C     0.40045   0.27075   0.54560   0.00000  Uiso   1.00
C287   C     0.36818   0.27799   0.48903   0.00000  Uiso   1.00
C288   C     0.41929   0.24381   0.44611   0.00000  Uiso   1.00
C289   C     0.47706   0.19891   0.36093   0.00000  Uiso   1.00
C290   C     0.50350   0.22997   0.62352   0.00000  Uiso   1.00
C291   C     0.51445   0.30573   0.64145   0.00000  Uiso   1.00
C292   C     0.59383   0.33456   0.66806   0.00000  Uiso   1.00
C293   C     0.58989   0.40488   0.68100   0.00000  Uiso   1.00
C294   C     0.41360   0.20384   0.65360   0.00000  Uiso   1.00
C295   C     0.40818   0.14700   0.69042   0.00000  Uiso   1.00
C296   C     0.31934   0.13154   0.71357   0.00000  Uiso   1.00
C297   C     0.48092   0.23077   0.55884   0.00000  Uiso   1.00
C298   C     0.53209   0.19657   0.51599   0.00000  Uiso   1.00
C299   C     0.49990   0.20376   0.45936   0.00000  Uiso   1.00
H300   H     0.29271   0.33469   0.58886   0.00000  Uiso   1.00
H301   H     0.36765   0.44691   0.63086   0.00000  Uiso   1.00
H302   H     0.18203   0.25938   0.65321   0.00000  Uiso   1.00
H303   H     0.30591   0.30893   0.47881   0.00000  Uiso   1.00
H304   H     0.48620   0.55369   0.68329   0.00000  Uiso   1.00
H305   H     0.09480   0.15825   0.73039   0.00000  Uiso   1.00
H306   H     0.35603   0.26275   0.36263   0.00000  Uiso   1.00
H307   H     0.56614   0.19884   0.63383   0.00000  Uiso   1.00
H308   H     0.65609   0.30361   0.67830   0.00000  Uiso   1.00
H309   H     0.47046   0.11608   0.70065   0.00000  Uiso   1.00
H310   H     0.59435   0.16563   0.52625   0.00000  Uiso   1.00
H311   H     0.72031   0.43739   0.72180   0.00000  Uiso   1.00
H312   H     0.32891   0.04194   0.76889   0.00000  Uiso   1.00
H313   H     0.59014   0.14644   0.40114   0.00000  Uiso   1.00
O314   O     0.65748   0.56690   0.73101   0.00000  Uiso   1.00
O315   O     0.14397   0.04810   0.79279   0.00000  Uiso   1.00
O316   O     0.48670   0.18520   0.31030   0.00000  Uiso   1.00
N317   N     0.52896   0.51194   0.68624   0.00000  Uiso   1.00
N318   N     0.16303   0.14224   0.73028   0.00000  Uiso   1.00
N319   N     0.40724   0.23992   0.38646   0.00000  Uiso   1.00
N320   N     0.65493   0.44936   0.70696   0.00000  Uiso   1.00
N321   N     0.28900   0.07966   0.75100   0.00000  Uiso   1.00
N322   N     0.53322   0.17733   0.40718   0.00000  Uiso   1.00
C323   C     0.14464   0.69643   0.59916   0.00000  Uiso   1.00
C324   C     0.06601   0.65429   0.62821   0.00000  Uiso   1.00
C325   C     0.07007   0.58401   0.64111   0.00000  Uiso   1.00
C326   C     0.99072   0.55507   0.66774   0.00000  Uiso   1.00
C327   C     0.88088   0.48357   0.71087   0.00000  Uiso   1.00
C328   C     0.16686   0.75618   0.64036   0.00000  Uiso   1.00
C329   C     0.25572   0.77157   0.66346   0.00000  Uiso   1.00
C330   C     0.26126   0.82841   0.70031   0.00000  Uiso   1.00
C331   C     0.30801   0.91512   0.76227   0.00000  Uiso   1.00
C332   C     0.09955   0.72925   0.54560   0.00000  Uiso   1.00
C333   C     0.13182   0.72201   0.48903   0.00000  Uiso   1.00
C334   C     0.08071   0.75619   0.44611   0.00000  Uiso   1.00
C335   C     0.02294   0.80109   0.36093   0.00000  Uiso   1.00
C336   C     0.99650   0.77003   0.62352   0.00000  Uiso   1.00
C337   C     0.98555   0.69427   0.64145   0.00000  Uiso   1.00
C338   C     0.90617   0.66544   0.66806   0.00000  Uiso   1.00
C339   C     0.91011   0.59512   0.68100   0.00000  Uiso   1.00
C340   C     0.08640   0.79616   0.65360   0.00000  Uiso   1.00
C341   C     0.09182   0.85300   0.69042   0.00000  Uiso   1.00
C342   C     0.18066   0.86846   0.71357   0.00000  Uiso   1.00
C343   C     0.01908   0.76923   0.55884   0.00000  Uiso   1.00
C344   C     0.96791   0.80343   0.51599   0.00000  Uiso   1.00
C345   C     0.00010   0.79624   0.45936   0.00000  Uiso   1.00
H346   H     0.20729   0.66531   0.58886   0.00000  Uiso   1.00
H347   H     0.13235   0.55309   0.63086   0.00000  Uiso   1.00
H348   H     0.31797   0.74062   0.65321   0.00000  Uiso   1.00
H349   H     0.19409   0.69107   0.47881   0.00000  Uiso   1.00
H350   H     0.01380   0.44631   0.68329   0.00000  Uiso   1.00
H351   H     0.40520   0.84175   0.73039   0.00000  Uiso   1.00
H352   H     0.14397   0.73725   0.36263   0.00000  Uiso   1.00
H353   H     0.93386   0.80116   0.63383   0.00000  Uiso   1.00
H354   H     0.84391   0.69639   0.67830   0.00000  Uiso   1.00
H355   H     0.02954   0.88392   0.70065   0.00000  Uiso   1.00
H356   H     0.90565   0.83437   0.52625   0.00000  Uiso   1.00
H357   H     0.77969   0.56261   0.72180   0.00000  Uiso   1.00
H358   H     0.17109   0.95806   0.76889   0.00000  Uiso   1.00
H359   H     0.90986   0.85356   0.40114   0.00000  Uiso   1.00
O360   O     0.84252   0.43310   0.73101   0.00000  Uiso   1.00
O361   O     0.35603   0.95190   0.79279   0.00000  Uiso   1.00
O362   O     0.01330   0.81480   0.31030   0.00000  Uiso   1.00
N363   N     0.97104   0.48806   0.68624   0.00000  Uiso   1.00
N364   N     0.33697   0.85776   0.73028   0.00000  Uiso   1.00
N365   N     0.09276   0.76008   0.38646   0.00000  Uiso   1.00
N366   N     0.84507   0.55064   0.70696   0.00000  Uiso   1.00
N367   N     0.21100   0.92034   0.75100   0.00000  Uiso   1.00
N368   N     0.96678   0.82267   0.40718   0.00000  Uiso   1.00
