data_job_02667
_audit_creation_date              2018-12-19
_audit_creation_method            'Materials Studio'
_symmetry_space_group_name_H-M    'P1'
_symmetry_Int_Tables_number       1
_symmetry_cell_setting            triclinic
loop_
_symmetry_equiv_pos_as_xyz
  x,y,z
_cell_length_a                    22.2691
_cell_length_b                    11.7272
_cell_length_c                    20.2211
_cell_angle_alpha                 90.0000
_cell_angle_beta                  90.0000
_cell_angle_gamma                 90.0000
loop_
_atom_site_label
_atom_site_type_symbol
_atom_site_fract_x
_atom_site_fract_y
_atom_site_fract_z
_atom_site_U_iso_or_equiv
_atom_site_adp_type
_atom_site_occupancy
C1     C     0.90795   0.62643   0.45256   0.00000  Uiso   1.00
C2     C     0.86140   0.71558   0.47220   0.00000  Uiso   1.00
C3     C     0.83721   0.72976   0.53491   0.00000  Uiso   1.00
C4     C     0.79520   0.81619   0.54278   0.00000  Uiso   1.00
C5     C     0.72551   0.94398   0.58133   0.00000  Uiso   1.00
C6     C     0.88029   0.55924   0.39563   0.00000  Uiso   1.00
C7     C     0.87200   0.44198   0.39396   0.00000  Uiso   1.00
C8     C     0.84590   0.39681   0.33737   0.00000  Uiso   1.00
C9     C     0.80557   0.28188   0.25703   0.00000  Uiso   1.00
C10    C     0.96051   0.69236   0.42300   0.00000  Uiso   1.00
C11    C     0.01968   0.68701   0.44433   0.00000  Uiso   1.00
C12    C     0.06113   0.75390   0.41078   0.00000  Uiso   1.00
C13    C     0.14537   0.84566   0.37293   0.00000  Uiso   1.00
C14    C     0.87636   0.75470   0.35502   0.00000  Uiso   1.00
C15    C     0.84424   0.78524   0.41922   0.00000  Uiso   1.00
C16    C     0.80226   0.87168   0.42700   0.00000  Uiso   1.00
C17    C     0.77802   0.88599   0.48971   0.00000  Uiso   1.00
C18    C     0.86313   0.62891   0.34265   0.00000  Uiso   1.00
C19    C     0.83705   0.58390   0.28605   0.00000  Uiso   1.00
C20    C     0.82871   0.46660   0.28430   0.00000  Uiso   1.00
C21    C     0.94336   0.76204   0.37002   0.00000  Uiso   1.00
C22    C     0.98473   0.82893   0.33642   0.00000  Uiso   1.00
C23    C     0.04394   0.82369   0.35770   0.00000  Uiso   1.00
H24    H     0.92131   0.57219   0.49380   0.00000  Uiso   1.00
H25    H     0.85050   0.67582   0.57590   0.00000  Uiso   1.00
H26    H     0.88528   0.38809   0.43497   0.00000  Uiso   1.00
H27    H     0.03294   0.63309   0.48533   0.00000  Uiso   1.00
H28    H     0.76441   0.82142   0.64355   0.00000  Uiso   1.00
H29    H     0.83777   0.21472   0.34638   0.00000  Uiso   1.00
H30    H     0.14914   0.73134   0.45258   0.00000  Uiso   1.00
H31    H     0.86300   0.80894   0.31377   0.00000  Uiso   1.00
H32    H     0.78899   0.92557   0.38599   0.00000  Uiso   1.00
H33    H     0.82378   0.63783   0.24506   0.00000  Uiso   1.00
H34    H     0.97143   0.88283   0.29542   0.00000  Uiso   1.00
H35    H     0.71448   0.02412   0.48941   0.00000  Uiso   1.00
H36    H     0.78785   0.41742   0.19224   0.00000  Uiso   1.00
H37    H     0.09922   0.93405   0.29844   0.00000  Uiso   1.00
O38    O     0.69179   0.99520   0.61723   0.00000  Uiso   1.00
O39    O     0.78806   0.19923   0.22735   0.00000  Uiso   1.00
O40    O     0.19657   0.87703   0.36669   0.00000  Uiso   1.00
N41    N     0.76282   0.85314   0.59736   0.00000  Uiso   1.00
N42    N     0.83141   0.28591   0.31953   0.00000  Uiso   1.00
N43    N     0.12251   0.76888   0.41881   0.00000  Uiso   1.00
N44    N     0.73596   0.96221   0.51442   0.00000  Uiso   1.00
N45    N     0.80455   0.39498   0.23659   0.00000  Uiso   1.00
N46    N     0.09565   0.87796   0.33587   0.00000  Uiso   1.00
C47    C     0.59205   0.87357   0.95256   0.00000  Uiso   1.00
C48    C     0.63860   0.78442   0.97220   0.00000  Uiso   1.00
C49    C     0.66279   0.77024   0.03491   0.00000  Uiso   1.00
C50    C     0.70480   0.68381   0.04278   0.00000  Uiso   1.00
C51    C     0.77449   0.55602   0.08133   0.00000  Uiso   1.00
C52    C     0.61971   0.94076   0.89563   0.00000  Uiso   1.00
C53    C     0.62800   0.05802   0.89396   0.00000  Uiso   1.00
C54    C     0.65410   0.10319   0.83737   0.00000  Uiso   1.00
C55    C     0.69443   0.21812   0.75703   0.00000  Uiso   1.00
C56    C     0.53949   0.80764   0.92300   0.00000  Uiso   1.00
C57    C     0.48032   0.81299   0.94433   0.00000  Uiso   1.00
C58    C     0.43887   0.74610   0.91078   0.00000  Uiso   1.00
C59    C     0.35463   0.65434   0.87293   0.00000  Uiso   1.00
C60    C     0.62364   0.74530   0.85502   0.00000  Uiso   1.00
C61    C     0.65576   0.71476   0.91922   0.00000  Uiso   1.00
C62    C     0.69774   0.62832   0.92700   0.00000  Uiso   1.00
C63    C     0.72198   0.61401   0.98971   0.00000  Uiso   1.00
C64    C     0.63687   0.87109   0.84265   0.00000  Uiso   1.00
C65    C     0.66295   0.91610   0.78605   0.00000  Uiso   1.00
C66    C     0.67129   0.03340   0.78430   0.00000  Uiso   1.00
C67    C     0.55664   0.73796   0.87002   0.00000  Uiso   1.00
C68    C     0.51527   0.67107   0.83642   0.00000  Uiso   1.00
C69    C     0.45606   0.67631   0.85770   0.00000  Uiso   1.00
H70    H     0.57869   0.92781   0.99380   0.00000  Uiso   1.00
H71    H     0.64950   0.82418   0.07590   0.00000  Uiso   1.00
H72    H     0.61472   0.11191   0.93497   0.00000  Uiso   1.00
H73    H     0.46706   0.86691   0.98533   0.00000  Uiso   1.00
H74    H     0.73559   0.67858   0.14355   0.00000  Uiso   1.00
H75    H     0.66223   0.28528   0.84638   0.00000  Uiso   1.00
H76    H     0.35086   0.76866   0.95258   0.00000  Uiso   1.00
H77    H     0.63700   0.69106   0.81377   0.00000  Uiso   1.00
H78    H     0.71101   0.57443   0.88599   0.00000  Uiso   1.00
H79    H     0.67622   0.86217   0.74506   0.00000  Uiso   1.00
H80    H     0.52857   0.61717   0.79542   0.00000  Uiso   1.00
H81    H     0.78552   0.47588   0.98941   0.00000  Uiso   1.00
H82    H     0.71215   0.08258   0.69224   0.00000  Uiso   1.00
H83    H     0.40078   0.56595   0.79844   0.00000  Uiso   1.00
O84    O     0.80821   0.50480   0.11723   0.00000  Uiso   1.00
O85    O     0.71194   0.30077   0.72735   0.00000  Uiso   1.00
O86    O     0.30343   0.62297   0.86669   0.00000  Uiso   1.00
N87    N     0.73718   0.64686   0.09736   0.00000  Uiso   1.00
N88    N     0.66859   0.21409   0.81953   0.00000  Uiso   1.00
N89    N     0.37749   0.73112   0.91881   0.00000  Uiso   1.00
N90    N     0.76404   0.53779   0.01442   0.00000  Uiso   1.00
N91    N     0.69545   0.10502   0.73659   0.00000  Uiso   1.00
N92    N     0.40435   0.62204   0.83587   0.00000  Uiso   1.00
C93    C     0.09205   0.62643   0.04744   0.00000  Uiso   1.00
C94    C     0.13860   0.71558   0.02780   0.00000  Uiso   1.00
C95    C     0.16279   0.72976   0.96509   0.00000  Uiso   1.00
C96    C     0.20480   0.81619   0.95722   0.00000  Uiso   1.00
C97    C     0.27449   0.94398   0.91867   0.00000  Uiso   1.00
C98    C     0.11971   0.55924   0.10437   0.00000  Uiso   1.00
C99    C     0.12800   0.44198   0.10604   0.00000  Uiso   1.00
C100   C     0.15410   0.39681   0.16263   0.00000  Uiso   1.00
C101   C     0.19443   0.28188   0.24297   0.00000  Uiso   1.00
C102   C     0.03949   0.69236   0.07700   0.00000  Uiso   1.00
C103   C     0.98032   0.68701   0.05567   0.00000  Uiso   1.00
C104   C     0.93887   0.75390   0.08922   0.00000  Uiso   1.00
C105   C     0.85463   0.84566   0.12707   0.00000  Uiso   1.00
C106   C     0.12364   0.75470   0.14498   0.00000  Uiso   1.00
C107   C     0.15576   0.78524   0.08078   0.00000  Uiso   1.00
C108   C     0.19774   0.87168   0.07300   0.00000  Uiso   1.00
C109   C     0.22198   0.88599   0.01029   0.00000  Uiso   1.00
C110   C     0.13687   0.62891   0.15735   0.00000  Uiso   1.00
C111   C     0.16295   0.58390   0.21395   0.00000  Uiso   1.00
C112   C     0.17129   0.46660   0.21570   0.00000  Uiso   1.00
C113   C     0.05664   0.76204   0.12998   0.00000  Uiso   1.00
C114   C     0.01527   0.82893   0.16358   0.00000  Uiso   1.00
C115   C     0.95606   0.82369   0.14230   0.00000  Uiso   1.00
H116   H     0.07869   0.57219   0.00620   0.00000  Uiso   1.00
H117   H     0.14950   0.67582   0.92410   0.00000  Uiso   1.00
H118   H     0.11472   0.38809   0.06503   0.00000  Uiso   1.00
H119   H     0.96706   0.63309   0.01467   0.00000  Uiso   1.00
H120   H     0.23559   0.82142   0.85645   0.00000  Uiso   1.00
H121   H     0.16223   0.21472   0.15362   0.00000  Uiso   1.00
H122   H     0.85086   0.73134   0.04742   0.00000  Uiso   1.00
H123   H     0.13700   0.80894   0.18623   0.00000  Uiso   1.00
H124   H     0.21101   0.92557   0.11401   0.00000  Uiso   1.00
H125   H     0.17622   0.63783   0.25494   0.00000  Uiso   1.00
H126   H     0.02857   0.88283   0.20458   0.00000  Uiso   1.00
H127   H     0.28552   0.02412   0.01059   0.00000  Uiso   1.00
H128   H     0.21215   0.41742   0.30776   0.00000  Uiso   1.00
H129   H     0.90078   0.93405   0.20156   0.00000  Uiso   1.00
O130   O     0.30821   0.99520   0.88277   0.00000  Uiso   1.00
O131   O     0.21194   0.19923   0.27265   0.00000  Uiso   1.00
O132   O     0.80343   0.87703   0.13331   0.00000  Uiso   1.00
N133   N     0.23718   0.85314   0.90264   0.00000  Uiso   1.00
N134   N     0.16859   0.28591   0.18047   0.00000  Uiso   1.00
N135   N     0.87749   0.76888   0.08119   0.00000  Uiso   1.00
N136   N     0.26404   0.96221   0.98558   0.00000  Uiso   1.00
N137   N     0.19545   0.39498   0.26341   0.00000  Uiso   1.00
N138   N     0.90435   0.87796   0.16413   0.00000  Uiso   1.00
C139   C     0.40795   0.87357   0.54744   0.00000  Uiso   1.00
C140   C     0.36140   0.78442   0.52780   0.00000  Uiso   1.00
C141   C     0.33721   0.77024   0.46509   0.00000  Uiso   1.00
C142   C     0.29520   0.68381   0.45722   0.00000  Uiso   1.00
C143   C     0.22551   0.55602   0.41867   0.00000  Uiso   1.00
C144   C     0.38029   0.94076   0.60437   0.00000  Uiso   1.00
C145   C     0.37200   0.05802   0.60604   0.00000  Uiso   1.00
C146   C     0.34590   0.10319   0.66263   0.00000  Uiso   1.00
C147   C     0.30557   0.21812   0.74297   0.00000  Uiso   1.00
C148   C     0.46051   0.80764   0.57700   0.00000  Uiso   1.00
C149   C     0.51968   0.81299   0.55567   0.00000  Uiso   1.00
C150   C     0.56113   0.74610   0.58922   0.00000  Uiso   1.00
C151   C     0.64537   0.65434   0.62707   0.00000  Uiso   1.00
C152   C     0.37636   0.74530   0.64498   0.00000  Uiso   1.00
C153   C     0.34424   0.71476   0.58078   0.00000  Uiso   1.00
C154   C     0.30226   0.62832   0.57300   0.00000  Uiso   1.00
C155   C     0.27802   0.61401   0.51029   0.00000  Uiso   1.00
C156   C     0.36313   0.87109   0.65735   0.00000  Uiso   1.00
C157   C     0.33705   0.91610   0.71395   0.00000  Uiso   1.00
C158   C     0.32871   0.03340   0.71570   0.00000  Uiso   1.00
C159   C     0.44336   0.73796   0.62998   0.00000  Uiso   1.00
C160   C     0.48473   0.67107   0.66358   0.00000  Uiso   1.00
C161   C     0.54394   0.67631   0.64230   0.00000  Uiso   1.00
H162   H     0.42131   0.92781   0.50620   0.00000  Uiso   1.00
H163   H     0.35050   0.82418   0.42410   0.00000  Uiso   1.00
H164   H     0.38528   0.11191   0.56503   0.00000  Uiso   1.00
H165   H     0.53294   0.86691   0.51467   0.00000  Uiso   1.00
H166   H     0.26441   0.67858   0.35645   0.00000  Uiso   1.00
H167   H     0.33777   0.28528   0.65362   0.00000  Uiso   1.00
H168   H     0.64914   0.76866   0.54742   0.00000  Uiso   1.00
H169   H     0.36300   0.69106   0.68623   0.00000  Uiso   1.00
H170   H     0.28899   0.57443   0.61401   0.00000  Uiso   1.00
H171   H     0.32378   0.86217   0.75494   0.00000  Uiso   1.00
H172   H     0.47143   0.61717   0.70458   0.00000  Uiso   1.00
H173   H     0.21448   0.47588   0.51059   0.00000  Uiso   1.00
H174   H     0.28785   0.08258   0.80776   0.00000  Uiso   1.00
H175   H     0.59922   0.56595   0.70156   0.00000  Uiso   1.00
O176   O     0.19179   0.50480   0.38277   0.00000  Uiso   1.00
O177   O     0.28806   0.30077   0.77265   0.00000  Uiso   1.00
O178   O     0.69657   0.62297   0.63331   0.00000  Uiso   1.00
N179   N     0.26282   0.64686   0.40264   0.00000  Uiso   1.00
N180   N     0.33141   0.21409   0.68047   0.00000  Uiso   1.00
N181   N     0.62251   0.73112   0.58119   0.00000  Uiso   1.00
N182   N     0.23596   0.53779   0.48558   0.00000  Uiso   1.00
N183   N     0.30455   0.10502   0.76341   0.00000  Uiso   1.00
N184   N     0.59565   0.62204   0.66413   0.00000  Uiso   1.00
C185   C     0.09205   0.37357   0.54744   0.00000  Uiso   1.00
C186   C     0.13860   0.28442   0.52780   0.00000  Uiso   1.00
C187   C     0.16279   0.27024   0.46509   0.00000  Uiso   1.00
C188   C     0.20480   0.18381   0.45722   0.00000  Uiso   1.00
C189   C     0.27449   0.05602   0.41867   0.00000  Uiso   1.00
C190   C     0.11971   0.44076   0.60437   0.00000  Uiso   1.00
C191   C     0.12800   0.55802   0.60604   0.00000  Uiso   1.00
C192   C     0.15410   0.60319   0.66263   0.00000  Uiso   1.00
C193   C     0.19443   0.71812   0.74297   0.00000  Uiso   1.00
C194   C     0.03949   0.30764   0.57700   0.00000  Uiso   1.00
C195   C     0.98032   0.31299   0.55567   0.00000  Uiso   1.00
C196   C     0.93887   0.24610   0.58922   0.00000  Uiso   1.00
C197   C     0.85463   0.15434   0.62707   0.00000  Uiso   1.00
C198   C     0.12364   0.24530   0.64498   0.00000  Uiso   1.00
C199   C     0.15576   0.21476   0.58078   0.00000  Uiso   1.00
C200   C     0.19774   0.12832   0.57300   0.00000  Uiso   1.00
C201   C     0.22198   0.11401   0.51029   0.00000  Uiso   1.00
C202   C     0.13687   0.37109   0.65735   0.00000  Uiso   1.00
C203   C     0.16295   0.41610   0.71395   0.00000  Uiso   1.00
C204   C     0.17129   0.53340   0.71570   0.00000  Uiso   1.00
C205   C     0.05664   0.23796   0.62998   0.00000  Uiso   1.00
C206   C     0.01527   0.17107   0.66358   0.00000  Uiso   1.00
C207   C     0.95606   0.17631   0.64230   0.00000  Uiso   1.00
H208   H     0.07869   0.42781   0.50620   0.00000  Uiso   1.00
H209   H     0.14950   0.32418   0.42410   0.00000  Uiso   1.00
H210   H     0.11472   0.61191   0.56503   0.00000  Uiso   1.00
H211   H     0.96706   0.36691   0.51467   0.00000  Uiso   1.00
H212   H     0.23559   0.17858   0.35645   0.00000  Uiso   1.00
H213   H     0.16223   0.78528   0.65362   0.00000  Uiso   1.00
H214   H     0.85086   0.26866   0.54742   0.00000  Uiso   1.00
H215   H     0.13700   0.19106   0.68623   0.00000  Uiso   1.00
H216   H     0.21101   0.07443   0.61401   0.00000  Uiso   1.00
H217   H     0.17622   0.36217   0.75494   0.00000  Uiso   1.00
H218   H     0.02857   0.11717   0.70458   0.00000  Uiso   1.00
H219   H     0.28552   0.97588   0.51059   0.00000  Uiso   1.00
H220   H     0.21215   0.58258   0.80776   0.00000  Uiso   1.00
H221   H     0.90078   0.06595   0.70156   0.00000  Uiso   1.00
O222   O     0.30821   0.00480   0.38277   0.00000  Uiso   1.00
O223   O     0.21194   0.80077   0.77265   0.00000  Uiso   1.00
O224   O     0.80343   0.12297   0.63331   0.00000  Uiso   1.00
N225   N     0.23718   0.14686   0.40264   0.00000  Uiso   1.00
N226   N     0.16859   0.71409   0.68047   0.00000  Uiso   1.00
N227   N     0.87749   0.23112   0.58119   0.00000  Uiso   1.00
N228   N     0.26404   0.03779   0.48558   0.00000  Uiso   1.00
N229   N     0.19545   0.60502   0.76341   0.00000  Uiso   1.00
N230   N     0.90435   0.12204   0.66413   0.00000  Uiso   1.00
C231   C     0.40795   0.12643   0.04744   0.00000  Uiso   1.00
C232   C     0.36140   0.21558   0.02780   0.00000  Uiso   1.00
C233   C     0.33721   0.22976   0.96509   0.00000  Uiso   1.00
C234   C     0.29520   0.31619   0.95722   0.00000  Uiso   1.00
C235   C     0.22551   0.44398   0.91867   0.00000  Uiso   1.00
C236   C     0.38029   0.05924   0.10437   0.00000  Uiso   1.00
C237   C     0.37200   0.94198   0.10604   0.00000  Uiso   1.00
C238   C     0.34590   0.89681   0.16263   0.00000  Uiso   1.00
C239   C     0.30557   0.78188   0.24297   0.00000  Uiso   1.00
C240   C     0.46051   0.19236   0.07700   0.00000  Uiso   1.00
C241   C     0.51968   0.18701   0.05567   0.00000  Uiso   1.00
C242   C     0.56113   0.25390   0.08922   0.00000  Uiso   1.00
C243   C     0.64537   0.34566   0.12707   0.00000  Uiso   1.00
C244   C     0.37636   0.25470   0.14498   0.00000  Uiso   1.00
C245   C     0.34424   0.28524   0.08078   0.00000  Uiso   1.00
C246   C     0.30226   0.37168   0.07300   0.00000  Uiso   1.00
C247   C     0.27802   0.38599   0.01029   0.00000  Uiso   1.00
C248   C     0.36313   0.12891   0.15735   0.00000  Uiso   1.00
C249   C     0.33705   0.08390   0.21395   0.00000  Uiso   1.00
C250   C     0.32871   0.96660   0.21570   0.00000  Uiso   1.00
C251   C     0.44336   0.26204   0.12998   0.00000  Uiso   1.00
C252   C     0.48473   0.32893   0.16358   0.00000  Uiso   1.00
C253   C     0.54394   0.32369   0.14230   0.00000  Uiso   1.00
H254   H     0.42131   0.07219   0.00620   0.00000  Uiso   1.00
H255   H     0.35050   0.17582   0.92410   0.00000  Uiso   1.00
H256   H     0.38528   0.88809   0.06503   0.00000  Uiso   1.00
H257   H     0.53294   0.13309   0.01467   0.00000  Uiso   1.00
H258   H     0.26441   0.32142   0.85645   0.00000  Uiso   1.00
H259   H     0.33777   0.71472   0.15362   0.00000  Uiso   1.00
H260   H     0.64914   0.23134   0.04742   0.00000  Uiso   1.00
H261   H     0.36300   0.30894   0.18623   0.00000  Uiso   1.00
H262   H     0.28899   0.42557   0.11401   0.00000  Uiso   1.00
H263   H     0.32378   0.13783   0.25494   0.00000  Uiso   1.00
H264   H     0.47143   0.38283   0.20458   0.00000  Uiso   1.00
H265   H     0.21448   0.52412   0.01059   0.00000  Uiso   1.00
H266   H     0.28785   0.91742   0.30776   0.00000  Uiso   1.00
H267   H     0.59922   0.43405   0.20156   0.00000  Uiso   1.00
O268   O     0.19179   0.49520   0.88277   0.00000  Uiso   1.00
O269   O     0.28806   0.69923   0.27265   0.00000  Uiso   1.00
O270   O     0.69657   0.37703   0.13331   0.00000  Uiso   1.00
N271   N     0.26282   0.35314   0.90264   0.00000  Uiso   1.00
N272   N     0.33141   0.78591   0.18047   0.00000  Uiso   1.00
N273   N     0.62251   0.26888   0.08119   0.00000  Uiso   1.00
N274   N     0.23596   0.46221   0.98558   0.00000  Uiso   1.00
N275   N     0.30455   0.89498   0.26341   0.00000  Uiso   1.00
N276   N     0.59565   0.37796   0.16413   0.00000  Uiso   1.00
C277   C     0.90795   0.37357   0.95256   0.00000  Uiso   1.00
C278   C     0.86140   0.28442   0.97220   0.00000  Uiso   1.00
C279   C     0.83721   0.27024   0.03491   0.00000  Uiso   1.00
C280   C     0.79520   0.18381   0.04278   0.00000  Uiso   1.00
C281   C     0.72551   0.05602   0.08133   0.00000  Uiso   1.00
C282   C     0.88029   0.44076   0.89563   0.00000  Uiso   1.00
C283   C     0.87200   0.55802   0.89396   0.00000  Uiso   1.00
C284   C     0.84590   0.60319   0.83737   0.00000  Uiso   1.00
C285   C     0.80557   0.71812   0.75703   0.00000  Uiso   1.00
C286   C     0.96051   0.30764   0.92300   0.00000  Uiso   1.00
C287   C     0.01968   0.31299   0.94433   0.00000  Uiso   1.00
C288   C     0.06113   0.24610   0.91078   0.00000  Uiso   1.00
C289   C     0.14537   0.15434   0.87293   0.00000  Uiso   1.00
C290   C     0.87636   0.24530   0.85502   0.00000  Uiso   1.00
C291   C     0.84424   0.21476   0.91922   0.00000  Uiso   1.00
C292   C     0.80226   0.12832   0.92700   0.00000  Uiso   1.00
C293   C     0.77802   0.11401   0.98971   0.00000  Uiso   1.00
C294   C     0.86313   0.37109   0.84265   0.00000  Uiso   1.00
C295   C     0.83705   0.41610   0.78605   0.00000  Uiso   1.00
C296   C     0.82871   0.53340   0.78430   0.00000  Uiso   1.00
C297   C     0.94336   0.23796   0.87002   0.00000  Uiso   1.00
C298   C     0.98473   0.17107   0.83642   0.00000  Uiso   1.00
C299   C     0.04394   0.17631   0.85770   0.00000  Uiso   1.00
H300   H     0.92131   0.42781   0.99380   0.00000  Uiso   1.00
H301   H     0.85050   0.32418   0.07590   0.00000  Uiso   1.00
H302   H     0.88528   0.61191   0.93497   0.00000  Uiso   1.00
H303   H     0.03294   0.36691   0.98533   0.00000  Uiso   1.00
H304   H     0.76441   0.17858   0.14355   0.00000  Uiso   1.00
H305   H     0.83777   0.78528   0.84638   0.00000  Uiso   1.00
H306   H     0.14914   0.26866   0.95258   0.00000  Uiso   1.00
H307   H     0.86300   0.19106   0.81377   0.00000  Uiso   1.00
H308   H     0.78899   0.07443   0.88599   0.00000  Uiso   1.00
H309   H     0.82378   0.36217   0.74506   0.00000  Uiso   1.00
H310   H     0.97143   0.11717   0.79542   0.00000  Uiso   1.00
H311   H     0.71448   0.97588   0.98941   0.00000  Uiso   1.00
H312   H     0.78785   0.58258   0.69224   0.00000  Uiso   1.00
H313   H     0.09922   0.06595   0.79844   0.00000  Uiso   1.00
O314   O     0.69179   0.00480   0.11723   0.00000  Uiso   1.00
O315   O     0.78806   0.80077   0.72735   0.00000  Uiso   1.00
O316   O     0.19657   0.12297   0.86669   0.00000  Uiso   1.00
N317   N     0.76282   0.14686   0.09736   0.00000  Uiso   1.00
N318   N     0.83141   0.71409   0.81953   0.00000  Uiso   1.00
N319   N     0.12251   0.23112   0.91881   0.00000  Uiso   1.00
N320   N     0.73596   0.03779   0.01442   0.00000  Uiso   1.00
N321   N     0.80455   0.60502   0.73659   0.00000  Uiso   1.00
N322   N     0.09565   0.12204   0.83587   0.00000  Uiso   1.00
C323   C     0.59205   0.12643   0.45256   0.00000  Uiso   1.00
C324   C     0.63860   0.21558   0.47220   0.00000  Uiso   1.00
C325   C     0.66279   0.22976   0.53491   0.00000  Uiso   1.00
C326   C     0.70480   0.31619   0.54278   0.00000  Uiso   1.00
C327   C     0.77449   0.44398   0.58133   0.00000  Uiso   1.00
C328   C     0.61971   0.05924   0.39563   0.00000  Uiso   1.00
C329   C     0.62800   0.94198   0.39396   0.00000  Uiso   1.00
C330   C     0.65410   0.89681   0.33737   0.00000  Uiso   1.00
C331   C     0.69443   0.78188   0.25703   0.00000  Uiso   1.00
C332   C     0.53949   0.19236   0.42300   0.00000  Uiso   1.00
C333   C     0.48032   0.18701   0.44433   0.00000  Uiso   1.00
C334   C     0.43887   0.25390   0.41078   0.00000  Uiso   1.00
C335   C     0.35463   0.34566   0.37293   0.00000  Uiso   1.00
C336   C     0.62364   0.25470   0.35502   0.00000  Uiso   1.00
C337   C     0.65576   0.28524   0.41922   0.00000  Uiso   1.00
C338   C     0.69774   0.37168   0.42700   0.00000  Uiso   1.00
C339   C     0.72198   0.38599   0.48971   0.00000  Uiso   1.00
C340   C     0.63687   0.12891   0.34265   0.00000  Uiso   1.00
C341   C     0.66295   0.08390   0.28605   0.00000  Uiso   1.00
C342   C     0.67129   0.96660   0.28430   0.00000  Uiso   1.00
C343   C     0.55664   0.26204   0.37002   0.00000  Uiso   1.00
C344   C     0.51527   0.32893   0.33642   0.00000  Uiso   1.00
C345   C     0.45606   0.32369   0.35770   0.00000  Uiso   1.00
H346   H     0.57869   0.07219   0.49380   0.00000  Uiso   1.00
H347   H     0.64950   0.17582   0.57590   0.00000  Uiso   1.00
H348   H     0.61472   0.88809   0.43497   0.00000  Uiso   1.00
H349   H     0.46706   0.13309   0.48533   0.00000  Uiso   1.00
H350   H     0.73559   0.32142   0.64355   0.00000  Uiso   1.00
H351   H     0.66223   0.71472   0.34638   0.00000  Uiso   1.00
H352   H     0.35086   0.23134   0.45258   0.00000  Uiso   1.00
H353   H     0.63700   0.30894   0.31377   0.00000  Uiso   1.00
H354   H     0.71101   0.42557   0.38599   0.00000  Uiso   1.00
H355   H     0.67622   0.13783   0.24506   0.00000  Uiso   1.00
H356   H     0.52857   0.38283   0.29542   0.00000  Uiso   1.00
H357   H     0.78552   0.52412   0.48941   0.00000  Uiso   1.00
H358   H     0.71215   0.91742   0.19224   0.00000  Uiso   1.00
H359   H     0.40078   0.43405   0.29844   0.00000  Uiso   1.00
O360   O     0.80821   0.49520   0.61723   0.00000  Uiso   1.00
O361   O     0.71194   0.69923   0.22735   0.00000  Uiso   1.00
O362   O     0.30343   0.37703   0.36669   0.00000  Uiso   1.00
N363   N     0.73718   0.35314   0.59736   0.00000  Uiso   1.00
N364   N     0.66859   0.78591   0.31953   0.00000  Uiso   1.00
N365   N     0.37749   0.26888   0.41881   0.00000  Uiso   1.00
N366   N     0.76404   0.46221   0.51442   0.00000  Uiso   1.00
N367   N     0.69545   0.89498   0.23659   0.00000  Uiso   1.00
N368   N     0.40435   0.37796   0.33587   0.00000  Uiso   1.00
