data_job_06977
_audit_creation_date              2018-12-19
_audit_creation_method            'Materials Studio'
_symmetry_space_group_name_H-M    'P1'
_symmetry_Int_Tables_number       1
_symmetry_cell_setting            triclinic
loop_
_symmetry_equiv_pos_as_xyz
  x,y,z
_cell_length_a                    21.2339
_cell_length_b                    23.0934
_cell_length_c                    23.3829
_cell_angle_alpha                 79.2535
_cell_angle_beta                  116.0250
_cell_angle_gamma                 70.7475
loop_
_atom_site_label
_atom_site_type_symbol
_atom_site_fract_x
_atom_site_fract_y
_atom_site_fract_z
_atom_site_U_iso_or_equiv
_atom_site_adp_type
_atom_site_occupancy
C1     C     0.35584   0.37057   0.35458   0.00000  Uiso   1.00
C2     C     0.36878   0.30606   0.34263   0.00000  Uiso   1.00
C3     C     0.42859   0.24278   0.39094   0.00000  Uiso   1.00
C4     C     0.43033   0.19017   0.36993   0.00000  Uiso   1.00
C5     C     0.45899   0.08843   0.36155   0.00000  Uiso   1.00
C6     C     0.35670   0.41604   0.29884   0.00000  Uiso   1.00
C7     C     0.40634   0.44525   0.31032   0.00000  Uiso   1.00
C8     C     0.39789   0.48523   0.25245   0.00000  Uiso   1.00
C9     C     0.40775   0.55429   0.17607   0.00000  Uiso   1.00
C10    C     0.27126   0.40268   0.33784   0.00000  Uiso   1.00
C11    C     0.24905   0.42066   0.38212   0.00000  Uiso   1.00
C12    C     0.16867   0.44940   0.35708   0.00000  Uiso   1.00
C13    C     0.04587   0.49770   0.34127   0.00000  Uiso   1.00
C14    C     0.25256   0.38965   0.23138   0.00000  Uiso   1.00
C15    C     0.31268   0.31643   0.27571   0.00000  Uiso   1.00
C16    C     0.31433   0.26390   0.25463   0.00000  Uiso   1.00
C17    C     0.37413   0.20055   0.30290   0.00000  Uiso   1.00
C18    C     0.30060   0.42641   0.23192   0.00000  Uiso   1.00
C19    C     0.29207   0.46636   0.17402   0.00000  Uiso   1.00
C20    C     0.34169   0.49562   0.18541   0.00000  Uiso   1.00
C21    C     0.21516   0.41304   0.27093   0.00000  Uiso   1.00
C22    C     0.13479   0.44177   0.24581   0.00000  Uiso   1.00
C23    C     0.11247   0.45979   0.29004   0.00000  Uiso   1.00
H24    H     0.39951   0.36250   0.40667   0.00000  Uiso   1.00
H25    H     0.47200   0.23478   0.44272   0.00000  Uiso   1.00
H26    H     0.44974   0.43722   0.36211   0.00000  Uiso   1.00
H27    H     0.29248   0.41263   0.43390   0.00000  Uiso   1.00
H28    H     0.52765   0.09776   0.45316   0.00000  Uiso   1.00
H29    H     0.48070   0.52463   0.28320   0.00000  Uiso   1.00
H30    H     0.14908   0.47278   0.43457   0.00000  Uiso   1.00
H31    H     0.20888   0.39773   0.17928   0.00000  Uiso   1.00
H32    H     0.27091   0.27194   0.20284   0.00000  Uiso   1.00
H33    H     0.24865   0.47438   0.12224   0.00000  Uiso   1.00
H34    H     0.09139   0.44979   0.19403   0.00000  Uiso   1.00
H35    H     0.36444   0.12791   0.25846   0.00000  Uiso   1.00
H36    H     0.31748   0.55479   0.08851   0.00000  Uiso   1.00
H37    H     0.98587   0.50294   0.23988   0.00000  Uiso   1.00
O38    O     0.49031   0.02945   0.37541   0.00000  Uiso   1.00
O39    O     0.42869   0.58951   0.15243   0.00000  Uiso   1.00
O40    O     0.99363   0.52147   0.35103   0.00000  Uiso   1.00
N41    N     0.48072   0.12211   0.40411   0.00000  Uiso   1.00
N42    N     0.43683   0.52121   0.24520   0.00000  Uiso   1.00
N43    N     0.12679   0.47275   0.38672   0.00000  Uiso   1.00
N44    N     0.39289   0.13834   0.29934   0.00000  Uiso   1.00
N45    N     0.34900   0.53744   0.14044   0.00000  Uiso   1.00
N46    N     0.03897   0.48898   0.28196   0.00000  Uiso   1.00
C47    C     0.11180   0.73813   0.64197   0.00000  Uiso   1.00
C48    C     0.11591   0.68611   0.61016   0.00000  Uiso   1.00
C49    C     0.16934   0.66067   0.59123   0.00000  Uiso   1.00
C50    C     0.16343   0.61345   0.56297   0.00000  Uiso   1.00
C51    C     0.17851   0.53589   0.51490   0.00000  Uiso   1.00
C52    C     0.02748   0.79508   0.59464   0.00000  Uiso   1.00
C53    C     0.00656   0.86125   0.56267   0.00000  Uiso   1.00
C54    C     0.92620   0.90576   0.52135   0.00000  Uiso   1.00
C55    C     0.80400   0.99738   0.44924   0.00000  Uiso   1.00
C56    C     0.11970   0.70676   0.70978   0.00000  Uiso   1.00
C57    C     0.17629   0.69869   0.77463   0.00000  Uiso   1.00
C58    C     0.17356   0.66885   0.83025   0.00000  Uiso   1.00
C59    C     0.19453   0.62334   0.93691   0.00000  Uiso   1.00
C60    C     0.00630   0.69953   0.62544   0.00000  Uiso   1.00
C61    C     0.05861   0.66515   0.60117   0.00000  Uiso   1.00
C62    C     0.05262   0.61795   0.57293   0.00000  Uiso   1.00
C63    C     0.10603   0.59244   0.55397   0.00000  Uiso   1.00
C64    C     0.97018   0.77411   0.58565   0.00000  Uiso   1.00
C65    C     0.88984   0.81854   0.54438   0.00000  Uiso   1.00
C66    C     0.86880   0.88476   0.51236   0.00000  Uiso   1.00
C67    C     0.06240   0.68579   0.70080   0.00000  Uiso   1.00
C68    C     0.05958   0.65597   0.75633   0.00000  Uiso   1.00
C69    C     0.11616   0.64785   0.82125   0.00000  Uiso   1.00
H70    H     0.15640   0.75446   0.64896   0.00000  Uiso   1.00
H71    H     0.21367   0.67691   0.59818   0.00000  Uiso   1.00
H72    H     0.05091   0.87746   0.56964   0.00000  Uiso   1.00
H73    H     0.22062   0.71492   0.78156   0.00000  Uiso   1.00
H74    H     0.25187   0.58170   0.53790   0.00000  Uiso   1.00
H75    H     0.90869   0.00458   0.47773   0.00000  Uiso   1.00
H76    H     0.26656   0.66183   0.92461   0.00000  Uiso   1.00
H77    H     0.96169   0.68321   0.61844   0.00000  Uiso   1.00
H78    H     0.00827   0.60174   0.56599   0.00000  Uiso   1.00
H79    H     0.84551   0.80229   0.53744   0.00000  Uiso   1.00
H80    H     0.01523   0.63975   0.74936   0.00000  Uiso   1.00
H81    H     0.08516   0.52069   0.51177   0.00000  Uiso   1.00
H82    H     0.74198   0.94358   0.45160   0.00000  Uiso   1.00
H83    H     0.09985   0.60082   0.89848   0.00000  Uiso   1.00
O84    O     0.20265   0.49891   0.49086   0.00000  Uiso   1.00
O85    O     0.75242   0.05371   0.41193   0.00000  Uiso   1.00
O86    O     0.22193   0.60403   0.99823   0.00000  Uiso   1.00
N87    N     0.20625   0.57851   0.53896   0.00000  Uiso   1.00
N88    N     0.88540   0.97388   0.48270   0.00000  Uiso   1.00
N89    N     0.21996   0.65345   0.90049   0.00000  Uiso   1.00
N90    N     0.11654   0.54568   0.52490   0.00000  Uiso   1.00
N91    N     0.79569   0.94105   0.46864   0.00000  Uiso   1.00
N92    N     0.13026   0.62062   0.88643   0.00000  Uiso   1.00
C93    C     0.65788   0.78212   0.85929   0.00000  Uiso   1.00
C94    C     0.59754   0.75807   0.82509   0.00000  Uiso   1.00
C95    C     0.53094   0.79155   0.75833   0.00000  Uiso   1.00
C96    C     0.48311   0.76125   0.73666   0.00000  Uiso   1.00
C97    C     0.38662   0.73329   0.67693   0.00000  Uiso   1.00
C98    C     0.66092   0.78379   0.92532   0.00000  Uiso   1.00
C99    C     0.64762   0.83890   0.94284   0.00000  Uiso   1.00
C100   C     0.65315   0.83025   0.00554   0.00000  Uiso   1.00
C101   C     0.65512   0.84222   0.10144   0.00000  Uiso   1.00
C102   C     0.73813   0.72681   0.88245   0.00000  Uiso   1.00
C103   C     0.78976   0.73400   0.86395   0.00000  Uiso   1.00
C104   C     0.86031   0.67736   0.89059   0.00000  Uiso   1.00
C105   C     0.98216   0.60085   0.91994   0.00000  Uiso   1.00
C106   C     0.69137   0.66876   0.93951   0.00000  Uiso   1.00
C107   C     0.61573   0.69650   0.86866   0.00000  Uiso   1.00
C108   C     0.56799   0.66613   0.84708   0.00000  Uiso   1.00
C109   C     0.50133   0.69956   0.78031   0.00000  Uiso   1.00
C110   C     0.67911   0.72223   0.96888   0.00000  Uiso   1.00
C111   C     0.68467   0.71349   0.03158   0.00000  Uiso   1.00
C112   C     0.67137   0.76857   0.04919   0.00000  Uiso   1.00
C113   C     0.75632   0.66523   0.92602   0.00000  Uiso   1.00
C114   C     0.82680   0.60858   0.95270   0.00000  Uiso   1.00
C115   C     0.87853   0.61568   0.93424   0.00000  Uiso   1.00
H116   H     0.64373   0.83005   0.82538   0.00000  Uiso   1.00
H117   H     0.51688   0.83920   0.72464   0.00000  Uiso   1.00
H118   H     0.63355   0.88654   0.90911   0.00000  Uiso   1.00
H119   H     0.77567   0.78165   0.83024   0.00000  Uiso   1.00
H120   H     0.38426   0.82220   0.63217   0.00000  Uiso   1.00
H121   H     0.63029   0.92202   0.02115   0.00000  Uiso   1.00
H122   H     0.92997   0.70084   0.85484   0.00000  Uiso   1.00
H123   H     0.70553   0.62082   0.97343   0.00000  Uiso   1.00
H124   H     0.58208   0.61849   0.88081   0.00000  Uiso   1.00
H125   H     0.69874   0.66583   0.06528   0.00000  Uiso   1.00
H126   H     0.84086   0.56094   0.98641   0.00000  Uiso   1.00
H127   H     0.43717   0.64307   0.75892   0.00000  Uiso   1.00
H128   H     0.68320   0.74288   0.14791   0.00000  Uiso   1.00
H129   H     0.98288   0.52170   0.98159   0.00000  Uiso   1.00
O130   O     0.32837   0.73488   0.63195   0.00000  Uiso   1.00
O131   O     0.65117   0.86583   0.14229   0.00000  Uiso   1.00
O132   O     0.04434   0.57565   0.92408   0.00000  Uiso   1.00
N133   N     0.41366   0.78036   0.67470   0.00000  Uiso   1.00
N134   N     0.64367   0.87368   0.03838   0.00000  Uiso   1.00
N135   N     0.92386   0.66690   0.88290   0.00000  Uiso   1.00
N136   N     0.44213   0.68396   0.74291   0.00000  Uiso   1.00
N137   N     0.67215   0.77729   0.10659   0.00000  Uiso   1.00
N138   N     0.95233   0.57051   0.95111   0.00000  Uiso   1.00
C139   C     0.00401   0.16412   0.75429   0.00000  Uiso   1.00
C140   C     0.02063   0.12583   0.71177   0.00000  Uiso   1.00
C141   C     0.97525   0.14760   0.64034   0.00000  Uiso   1.00
C142   C     0.00037   0.10524   0.61122   0.00000  Uiso   1.00
C143   C     0.01584   0.05520   0.53897   0.00000  Uiso   1.00
C144   C     0.07857   0.17015   0.79650   0.00000  Uiso   1.00
C145   C     0.08191   0.22920   0.79632   0.00000  Uiso   1.00
C146   C     0.15581   0.22415   0.83855   0.00000  Uiso   1.00
C147   C     0.26123   0.24293   0.89789   0.00000  Uiso   1.00
C148   C     0.99872   0.11831   0.80621   0.00000  Uiso   1.00
C149   C     0.93492   0.13378   0.81422   0.00000  Uiso   1.00
C150   C     0.94159   0.08509   0.86463   0.00000  Uiso   1.00
C151   C     0.92302   0.02338   0.93905   0.00000  Uiso   1.00
C152   C     0.12932   0.05018   0.82960   0.00000  Uiso   1.00
C153   C     0.08869   0.06394   0.75268   0.00000  Uiso   1.00
C154   C     0.11389   0.02153   0.72366   0.00000  Uiso   1.00
C155   C     0.06855   0.04324   0.65221   0.00000  Uiso   1.00
C156   C     0.14663   0.10827   0.83741   0.00000  Uiso   1.00
C157   C     0.22054   0.10313   0.87965   0.00000  Uiso   1.00
C158   C     0.22399   0.16215   0.87953   0.00000  Uiso   1.00
C159   C     0.06678   0.05642   0.84712   0.00000  Uiso   1.00
C160   C     0.07355   0.00771   0.89754   0.00000  Uiso   1.00
C161   C     0.00978   0.02309   0.90561   0.00000  Uiso   1.00
H162   H     0.95103   0.21231   0.72244   0.00000  Uiso   1.00
H163   H     0.92259   0.19550   0.60870   0.00000  Uiso   1.00
H164   H     0.02923   0.27708   0.76467   0.00000  Uiso   1.00
H165   H     0.88226   0.18167   0.78255   0.00000  Uiso   1.00
H166   H     0.92108   0.14958   0.50063   0.00000  Uiso   1.00
H167   H     0.14594   0.32160   0.82951   0.00000  Uiso   1.00
H168   H     0.83603   0.12042   0.86723   0.00000  Uiso   1.00
H169   H     0.18231   0.00200   0.86146   0.00000  Uiso   1.00
H170   H     0.16656   0.97364   0.75534   0.00000  Uiso   1.00
H171   H     0.27320   0.05523   0.91130   0.00000  Uiso   1.00
H172   H     0.12623   0.95982   0.92919   0.00000  Uiso   1.00
H173   H     0.11910   0.96952   0.61964   0.00000  Uiso   1.00
H174   H     0.34396   0.14154   0.94853   0.00000  Uiso   1.00
H175   H     0.03405   0.94035   0.98624   0.00000  Uiso   1.00
O176   O     0.00557   0.04470   0.48782   0.00000  Uiso   1.00
O177   O     0.30057   0.27039   0.91931   0.00000  Uiso   1.00
O178   O     0.89397   0.00644   0.96879   0.00000  Uiso   1.00
N179   N     0.96984   0.11109   0.54320   0.00000  Uiso   1.00
N180   N     0.18007   0.27192   0.85068   0.00000  Uiso   1.00
N181   N     0.89034   0.08383   0.88596   0.00000  Uiso   1.00
N182   N     0.07639   0.01420   0.60724   0.00000  Uiso   1.00
N183   N     0.28662   0.17503   0.91472   0.00000  Uiso   1.00
N184   N     0.99689   0.98694   0.95000   0.00000  Uiso   1.00
C185   C     0.47701   0.84404   0.43553   0.00000  Uiso   1.00
C186   C     0.42088   0.81405   0.42688   0.00000  Uiso   1.00
C187   C     0.43964   0.74784   0.43778   0.00000  Uiso   1.00
C188   C     0.38003   0.73028   0.42711   0.00000  Uiso   1.00
C189   C     0.30440   0.67657   0.41690   0.00000  Uiso   1.00
C190   C     0.47829   0.87630   0.48703   0.00000  Uiso   1.00
C191   C     0.54531   0.86243   0.54848   0.00000  Uiso   1.00
C192   C     0.53403   0.89729   0.58844   0.00000  Uiso   1.00
C193   C     0.54753   0.94025   0.67156   0.00000  Uiso   1.00
C194   C     0.43645   0.90107   0.36641   0.00000  Uiso   1.00
C195   C     0.46830   0.90804   0.32646   0.00000  Uiso   1.00
C196   C     0.42180   0.96376   0.26487   0.00000  Uiso   1.00
C197   C     0.37034   0.04519   0.16073   0.00000  Uiso   1.00
C198   C     0.33780   0.93061   0.39720   0.00000  Uiso   1.00
C199   C     0.34527   0.86108   0.40607   0.00000  Uiso   1.00
C200   C     0.28562   0.84362   0.39538   0.00000  Uiso   1.00
C201   C     0.30428   0.77739   0.40626   0.00000  Uiso   1.00
C202   C     0.40268   0.92332   0.46621   0.00000  Uiso   1.00
C203   C     0.39130   0.95821   0.50608   0.00000  Uiso   1.00
C204   C     0.45828   0.94439   0.56758   0.00000  Uiso   1.00
C205   C     0.36084   0.94810   0.34559   0.00000  Uiso   1.00
C206   C     0.31428   0.00382   0.28406   0.00000  Uiso   1.00
C207   C     0.34605   0.01087   0.24402   0.00000  Uiso   1.00
H208   H     0.53587   0.80743   0.45174   0.00000  Uiso   1.00
H209   H     0.49816   0.71146   0.45390   0.00000  Uiso   1.00
H210   H     0.60382   0.82605   0.56458   0.00000  Uiso   1.00
H211   H     0.52681   0.87165   0.34259   0.00000  Uiso   1.00
H212   H     0.42301   0.62580   0.44714   0.00000  Uiso   1.00
H213   H     0.64580   0.86742   0.68050   0.00000  Uiso   1.00
H214   H     0.48343   0.96358   0.21239   0.00000  Uiso   1.00
H215   H     0.27893   0.96722   0.38099   0.00000  Uiso   1.00
H216   H     0.22711   0.88002   0.37927   0.00000  Uiso   1.00
H217   H     0.33277   0.99460   0.48995   0.00000  Uiso   1.00
H218   H     0.25577   0.04020   0.26797   0.00000  Uiso   1.00
H219   H     0.20302   0.76260   0.38657   0.00000  Uiso   1.00
H220   H     0.42581   0.00422   0.61993   0.00000  Uiso   1.00
H221   H     0.26343   0.10038   0.15183   0.00000  Uiso   1.00
O222   O     0.28357   0.63395   0.41702   0.00000  Uiso   1.00
O223   O     0.57587   0.95095   0.72317   0.00000  Uiso   1.00
O224   O     0.36283   0.07711   0.10903   0.00000  Uiso   1.00
N225   N     0.37834   0.66996   0.43311   0.00000  Uiso   1.00
N226   N     0.58664   0.89585   0.65129   0.00000  Uiso   1.00
N227   N     0.43484   0.98577   0.21366   0.00000  Uiso   1.00
N228   N     0.25997   0.74358   0.40051   0.00000  Uiso   1.00
N229   N     0.46826   0.96947   0.61870   0.00000  Uiso   1.00
N230   N     0.31646   0.05938   0.18107   0.00000  Uiso   1.00
C231   C     0.75900   0.15109   0.22711   0.00000  Uiso   1.00
C232   C     0.72449   0.10309   0.21393   0.00000  Uiso   1.00
C233   C     0.68455   0.08625   0.24230   0.00000  Uiso   1.00
C234   C     0.65753   0.04144   0.22379   0.00000  Uiso   1.00
C235   C     0.60201   0.97104   0.21017   0.00000  Uiso   1.00
C236   C     0.72169   0.20418   0.15627   0.00000  Uiso   1.00
C237   C     0.67939   0.27234   0.13616   0.00000  Uiso   1.00
C238   C     0.65002   0.31263   0.06912   0.00000  Uiso   1.00
C239   C     0.59019   0.39918   0.96600   0.00000  Uiso   1.00
C240   C     0.84662   0.11199   0.25404   0.00000  Uiso   1.00
C241   C     0.90938   0.10264   0.31614   0.00000  Uiso   1.00
C242   C     0.98519   0.06533   0.33141   0.00000  Uiso   1.00
C243   C     0.11934   0.00874   0.38010   0.00000  Uiso   1.00
C244   C     0.78206   0.10147   0.14380   0.00000  Uiso   1.00
C245   C     0.73702   0.07614   0.16867   0.00000  Uiso   1.00
C246   C     0.71006   0.03135   0.15012   0.00000  Uiso   1.00
C247   C     0.67008   0.01444   0.17846   0.00000  Uiso   1.00
C248   C     0.73421   0.17723   0.11101   0.00000  Uiso   1.00
C249   C     0.70490   0.21744   0.04399   0.00000  Uiso   1.00
C250   C     0.66257   0.28563   0.02378   0.00000  Uiso   1.00
C251   C     0.85915   0.08504   0.20879   0.00000  Uiso   1.00
C252   C     0.93488   0.04774   0.22396   0.00000  Uiso   1.00
C253   C     0.99774   0.03833   0.28607   0.00000  Uiso   1.00
H254   H     0.74925   0.17208   0.26234   0.00000  Uiso   1.00
H255   H     0.67486   0.10712   0.27731   0.00000  Uiso   1.00
H256   H     0.66972   0.29318   0.17120   0.00000  Uiso   1.00
H257   H     0.89966   0.12351   0.35114   0.00000  Uiso   1.00
H258   H     0.59789   0.02324   0.27393   0.00000  Uiso   1.00
H259   H     0.58706   0.41556   0.05019   0.00000  Uiso   1.00
H260   H     0.07194   0.05777   0.42965   0.00000  Uiso   1.00
H261   H     0.79181   0.08048   0.10856   0.00000  Uiso   1.00
H262   H     0.71976   0.01050   0.11510   0.00000  Uiso   1.00
H263   H     0.71461   0.19656   0.00898   0.00000  Uiso   1.00
H264   H     0.94455   0.02689   0.18893   0.00000  Uiso   1.00
H265   H     0.63432   0.94482   0.14227   0.00000  Uiso   1.00
H266   H     0.62349   0.33714   0.91853   0.00000  Uiso   1.00
H267   H     0.10838   0.97935   0.29799   0.00000  Uiso   1.00
O268   O     0.56791   0.93966   0.21516   0.00000  Uiso   1.00
O269   O     0.55372   0.45436   0.92163   0.00000  Uiso   1.00
O270   O     0.18987   0.98496   0.41946   0.00000  Uiso   1.00
N271   N     0.61636   0.01438   0.24206   0.00000  Uiso   1.00
N272   N     0.60623   0.38117   0.03287   0.00000  Uiso   1.00
N273   N     0.05955   0.04669   0.38762   0.00000  Uiso   1.00
N274   N     0.63597   0.97218   0.17122   0.00000  Uiso   1.00
N275   N     0.62583   0.33897   0.96203   0.00000  Uiso   1.00
N276   N     0.07916   0.00449   0.31678   0.00000  Uiso   1.00
C277   C     0.93324   0.52057   0.63700   0.00000  Uiso   1.00
C278   C     0.89818   0.57550   0.65781   0.00000  Uiso   1.00
C279   C     0.84900   0.64249   0.61500   0.00000  Uiso   1.00
C280   C     0.82317   0.68483   0.64383   0.00000  Uiso   1.00
C281   C     0.76528   0.77375   0.66561   0.00000  Uiso   1.00
C282   C     0.90729   0.46874   0.65303   0.00000  Uiso   1.00
C283   C     0.86577   0.44597   0.60620   0.00000  Uiso   1.00
C284   C     0.84761   0.39844   0.63101   0.00000  Uiso   1.00
C285   C     0.80390   0.32158   0.64538   0.00000  Uiso   1.00
C286   C     0.02274   0.48735   0.68740   0.00000  Uiso   1.00
C287   C     0.07830   0.48021   0.66948   0.00000  Uiso   1.00
C288   C     0.15735   0.44833   0.72322   0.00000  Uiso   1.00
C289   C     0.29289   0.40037   0.79096   0.00000  Uiso   1.00
C290   C     0.97484   0.47663   0.76432   0.00000  Uiso   1.00
C291   C     0.92078   0.55163   0.72697   0.00000  Uiso   1.00
C292   C     0.89503   0.59388   0.75587   0.00000  Uiso   1.00
C293   C     0.84581   0.66093   0.71311   0.00000  Uiso   1.00
C294   C     0.92988   0.44487   0.72218   0.00000  Uiso   1.00
C295   C     0.91179   0.39736   0.74707   0.00000  Uiso   1.00
C296   C     0.87025   0.37453   0.70029   0.00000  Uiso   1.00
C297   C     0.04534   0.46349   0.75656   0.00000  Uiso   1.00
C298   C     0.12432   0.43160   0.81034   0.00000  Uiso   1.00
C299   C     0.17999   0.42442   0.79250   0.00000  Uiso   1.00
H300   H     0.91564   0.53914   0.58316   0.00000  Uiso   1.00
H301   H     0.83152   0.66094   0.56148   0.00000  Uiso   1.00
H302   H     0.84830   0.46444   0.55269   0.00000  Uiso   1.00
H303   H     0.06079   0.49869   0.61595   0.00000  Uiso   1.00
H304   H     0.74820   0.78545   0.56794   0.00000  Uiso   1.00
H305   H     0.78359   0.37111   0.54941   0.00000  Uiso   1.00
H306   H     0.23167   0.44331   0.68281   0.00000  Uiso   1.00
H307   H     0.99243   0.45805   0.81816   0.00000  Uiso   1.00
H308   H     0.91252   0.57540   0.80938   0.00000  Uiso   1.00
H309   H     0.92929   0.37890   0.80059   0.00000  Uiso   1.00
H310   H     0.14178   0.41314   0.86385   0.00000  Uiso   1.00
H311   H     0.81393   0.71602   0.76915   0.00000  Uiso   1.00
H312   H     0.84933   0.30167   0.75061   0.00000  Uiso   1.00
H313   H     0.29741   0.37388   0.88401   0.00000  Uiso   1.00
O314   O     0.72709   0.82939   0.65852   0.00000  Uiso   1.00
O315   O     0.77354   0.28578   0.63421   0.00000  Uiso   1.00
O316   O     0.36141   0.38051   0.80923   0.00000  Uiso   1.00
N317   N     0.77465   0.75300   0.61651   0.00000  Uiso   1.00
N318   N     0.80772   0.36563   0.59917   0.00000  Uiso   1.00
N319   N     0.22665   0.43311   0.72389   0.00000  Uiso   1.00
N320   N     0.81002   0.71564   0.72477   0.00000  Uiso   1.00
N321   N     0.84310   0.32827   0.70744   0.00000  Uiso   1.00
N322   N     0.26202   0.39575   0.83216   0.00000  Uiso   1.00
C323   C     0.93542   0.26547   0.33313   0.00000  Uiso   1.00
C324   C     0.89151   0.32830   0.33998   0.00000  Uiso   1.00
C325   C     0.83671   0.33758   0.35905   0.00000  Uiso   1.00
C326   C     0.80311   0.39863   0.36233   0.00000  Uiso   1.00
C327   C     0.73183   0.48858   0.37531   0.00000  Uiso   1.00
C328   C     0.02341   0.24355   0.38056   0.00000  Uiso   1.00
C329   C     0.07950   0.18157   0.43374   0.00000  Uiso   1.00
C330   C     0.15693   0.17128   0.47117   0.00000  Uiso   1.00
C331   C     0.29044   0.12963   0.54712   0.00000  Uiso   1.00
C332   C     0.91724   0.28756   0.25962   0.00000  Uiso   1.00
C333   C     0.88409   0.26257   0.21112   0.00000  Uiso   1.00
C334   C     0.87215   0.28932   0.14673   0.00000  Uiso   1.00
C335   C     0.84082   0.31601   0.03490   0.00000  Uiso   1.00
C336   C     0.97321   0.35740   0.30503   0.00000  Uiso   1.00
C337   C     0.91204   0.37823   0.32471   0.00000  Uiso   1.00
C338   C     0.87851   0.43929   0.32795   0.00000  Uiso   1.00
C339   C     0.82366   0.44866   0.34703   0.00000  Uiso   1.00
C340   C     0.04393   0.29348   0.36529   0.00000  Uiso   1.00
C341   C     0.12130   0.28327   0.40265   0.00000  Uiso   1.00
C342   C     0.17749   0.22129   0.45588   0.00000  Uiso   1.00
C343   C     0.93776   0.33749   0.24435   0.00000  Uiso   1.00
C344   C     0.92588   0.36428   0.18002   0.00000  Uiso   1.00
C345   C     0.89271   0.33934   0.13143   0.00000  Uiso   1.00
H346   H     0.91945   0.22660   0.34502   0.00000  Uiso   1.00
H347   H     0.82085   0.29893   0.37087   0.00000  Uiso   1.00
H348   H     0.06360   0.14294   0.44554   0.00000  Uiso   1.00
H349   H     0.86821   0.22394   0.22295   0.00000  Uiso   1.00
H350   H     0.72060   0.40113   0.39282   0.00000  Uiso   1.00
H351   H     0.23247   0.07221   0.55025   0.00000  Uiso   1.00
H352   H     0.82045   0.24300   0.08088   0.00000  Uiso   1.00
H353   H     0.98919   0.39627   0.29314   0.00000  Uiso   1.00
H354   H     0.89440   0.47791   0.31614   0.00000  Uiso   1.00
H355   H     0.13716   0.32192   0.39082   0.00000  Uiso   1.00
H356   H     0.94177   0.40292   0.16822   0.00000  Uiso   1.00
H357   H     0.78030   0.54640   0.34840   0.00000  Uiso   1.00
H358   H     0.29217   0.21747   0.50584   0.00000  Uiso   1.00
H359   H     0.88016   0.38827   0.03646   0.00000  Uiso   1.00
O360   O     0.68686   0.52440   0.38669   0.00000  Uiso   1.00
O361   O     0.35841   0.09286   0.59324   0.00000  Uiso   1.00
O362   O     0.81786   0.31694   0.97743   0.00000  Uiso   1.00
N363   N     0.74764   0.42412   0.37919   0.00000  Uiso   1.00
N364   N     0.22621   0.11660   0.52640   0.00000  Uiso   1.00
N365   N     0.84103   0.27626   0.08757   0.00000  Uiso   1.00
N366   N     0.77977   0.50229   0.35529   0.00000  Uiso   1.00
N367   N     0.25834   0.19477   0.50249   0.00000  Uiso   1.00
N368   N     0.87316   0.35443   0.06367   0.00000  Uiso   1.00
C369   C     0.44799   0.24979   0.13368   0.00000  Uiso   1.00
C370   C     0.49544   0.27892   0.17778   0.00000  Uiso   1.00
C371   C     0.55043   0.24803   0.24856   0.00000  Uiso   1.00
C372   C     0.58756   0.28294   0.27937   0.00000  Uiso   1.00
C373   C     0.66391   0.31850   0.35372   0.00000  Uiso   1.00
C374   C     0.46565   0.25022   0.07708   0.00000  Uiso   1.00
C375   C     0.49558   0.19521   0.06318   0.00000  Uiso   1.00
C376   C     0.50762   0.20596   0.00921   0.00000  Uiso   1.00
C377   C     0.53766   0.19698   0.92719   0.00000  Uiso   1.00
C378   C     0.36106   0.30033   0.09742   0.00000  Uiso   1.00
C379   C     0.30303   0.28744   0.10061   0.00000  Uiso   1.00
C380   C     0.22701   0.34038   0.06375   0.00000  Uiso   1.00
C381   C     0.09465   0.40920   0.01331   0.00000  Uiso   1.00
C382   C     0.41615   0.36669   0.06253   0.00000  Uiso   1.00
C383   C     0.47815   0.34242   0.13913   0.00000  Uiso   1.00
C384   C     0.51520   0.37738   0.16985   0.00000  Uiso   1.00
C385   C     0.57024   0.34655   0.24066   0.00000  Uiso   1.00
C386   C     0.44836   0.31372   0.03844   0.00000  Uiso   1.00
C387   C     0.46035   0.32455   0.98447   0.00000  Uiso   1.00
C388   C     0.49029   0.26957   0.97050   0.00000  Uiso   1.00
C389   C     0.34376   0.36383   0.05878   0.00000  Uiso   1.00
C390   C     0.26781   0.41679   0.02190   0.00000  Uiso   1.00
C391   C     0.20969   0.40399   0.02504   0.00000  Uiso   1.00
H392   H     0.46145   0.20035   0.16376   0.00000  Uiso   1.00
H393   H     0.56380   0.19889   0.27844   0.00000  Uiso   1.00
H394   H     0.50895   0.14608   0.09309   0.00000  Uiso   1.00
H395   H     0.31644   0.23830   0.13052   0.00000  Uiso   1.00
H396   H     0.66967   0.22527   0.38855   0.00000  Uiso   1.00
H397   H     0.55399   0.11391   0.99770   0.00000  Uiso   1.00
H398   H     0.14804   0.30838   0.07662   0.00000  Uiso   1.00
H399   H     0.40268   0.41613   0.03245   0.00000  Uiso   1.00
H400   H     0.50181   0.42651   0.13993   0.00000  Uiso   1.00
H401   H     0.44696   0.37370   0.95458   0.00000  Uiso   1.00
H402   H     0.25445   0.46592   0.99200   0.00000  Uiso   1.00
H403   H     0.61936   0.41001   0.27612   0.00000  Uiso   1.00
H404   H     0.50367   0.29866   0.88528   0.00000  Uiso   1.00
H405   H     0.09773   0.49313   0.96420   0.00000  Uiso   1.00
O406   O     0.71080   0.32057   0.40541   0.00000  Uiso   1.00
O407   O     0.55901   0.17448   0.89263   0.00000  Uiso   1.00
O408   O     0.02643   0.42961   0.99617   0.00000  Uiso   1.00
N409   N     0.64421   0.26733   0.34734   0.00000  Uiso   1.00
N410   N     0.53607   0.16321   0.98193   0.00000  Uiso   1.00
N411   N     0.15654   0.34502   0.05570   0.00000  Uiso   1.00
N412   N     0.61714   0.36674   0.28685   0.00000  Uiso   1.00
N413   N     0.50899   0.26263   0.92144   0.00000  Uiso   1.00
N414   N     0.12946   0.44443   0.99521   0.00000  Uiso   1.00
C415   C     0.06790   0.74598   0.34521   0.00000  Uiso   1.00
C416   C     0.07317   0.79202   0.38421   0.00000  Uiso   1.00
C417   C     0.13660   0.77649   0.44899   0.00000  Uiso   1.00
C418   C     0.12997   0.82541   0.47584   0.00000  Uiso   1.00
C419   C     0.14842   0.88743   0.54200   0.00000  Uiso   1.00
C420   C     0.99276   0.74074   0.32951   0.00000  Uiso   1.00
C421   C     0.98858   0.68210   0.34829   0.00000  Uiso   1.00
C422   C     0.91425   0.68786   0.32909   0.00000  Uiso   1.00
C423   C     0.80785   0.67027   0.31028   0.00000  Uiso   1.00
C424   C     0.05240   0.78363   0.27563   0.00000  Uiso   1.00
C425   C     0.09837   0.76105   0.24909   0.00000  Uiso   1.00
C426   C     0.07425   0.80292   0.18451   0.00000  Uiso   1.00
C427   C     0.06047   0.85192   0.08204   0.00000  Uiso   1.00
C428   C     0.94332   0.86048   0.27769   0.00000  Uiso   1.00
C429   C     0.00550   0.85421   0.34754   0.00000  Uiso   1.00
C430   C     0.99876   0.90317   0.37429   0.00000  Uiso   1.00
C431   C     0.06218   0.88772   0.43910   0.00000  Uiso   1.00
C432   C     0.92509   0.80293   0.29284   0.00000  Uiso   1.00
C433   C     0.85074   0.80878   0.27359   0.00000  Uiso   1.00
C434   C     0.84646   0.75017   0.29235   0.00000  Uiso   1.00
C435   C     0.98474   0.84583   0.23895   0.00000  Uiso   1.00
C436   C     0.96053   0.88773   0.17440   0.00000  Uiso   1.00
C437   C     0.00645   0.86522   0.14777   0.00000  Uiso   1.00
H438   H     0.12058   0.69756   0.37376   0.00000  Uiso   1.00
H439   H     0.18896   0.72836   0.47736   0.00000  Uiso   1.00
H440   H     0.04096   0.63398   0.37667   0.00000  Uiso   1.00
H441   H     0.15073   0.71292   0.27749   0.00000  Uiso   1.00
H442   H     0.23491   0.78992   0.57606   0.00000  Uiso   1.00
H443   H     0.92284   0.59093   0.36373   0.00000  Uiso   1.00
H444   H     0.15432   0.75738   0.15458   0.00000  Uiso   1.00
H445   H     0.89063   0.90889   0.24914   0.00000  Uiso   1.00
H446   H     0.94639   0.95129   0.34590   0.00000  Uiso   1.00
H447   H     0.79839   0.85692   0.24521   0.00000  Uiso   1.00
H448   H     0.90816   0.93585   0.14603   0.00000  Uiso   1.00
H449   H     0.03803   0.97086   0.46937   0.00000  Uiso   1.00
H450   H     0.72596   0.77186   0.25703   0.00000  Uiso   1.00
H451   H     0.95744   0.93832   0.04789   0.00000  Uiso   1.00
O452   O     0.17729   0.90446   0.58863   0.00000  Uiso   1.00
O453   O     0.76786   0.64338   0.31004   0.00000  Uiso   1.00
O454   O     0.07156   0.86177   0.03565   0.00000  Uiso   1.00
N455   N     0.18093   0.82669   0.53767   0.00000  Uiso   1.00
N456   N     0.88916   0.64064   0.33916   0.00000  Uiso   1.00
N457   N     0.10557   0.79626   0.14361   0.00000  Uiso   1.00
N458   N     0.07499   0.92405   0.48025   0.00000  Uiso   1.00
N459   N     0.78322   0.73801   0.28174   0.00000  Uiso   1.00
N460   N     0.99963   0.89362   0.08620   0.00000  Uiso   1.00
C461   C     0.54232   0.13221   0.63756   0.00000  Uiso   1.00
C462   C     0.55315   0.19403   0.62136   0.00000  Uiso   1.00
C463   C     0.49276   0.25830   0.57711   0.00000  Uiso   1.00
C464   C     0.51491   0.30803   0.56920   0.00000  Uiso   1.00
C465   C     0.51961   0.40616   0.53868   0.00000  Uiso   1.00
C466   C     0.59121   0.08291   0.61973   0.00000  Uiso   1.00
C467   C     0.56282   0.05376   0.57410   0.00000  Uiso   1.00
C468   C     0.61701   0.00994   0.56483   0.00000  Uiso   1.00
C469   C     0.68081   0.93552   0.53181   0.00000  Uiso   1.00
C470   C     0.58314   0.10190   0.71590   0.00000  Uiso   1.00
C471   C     0.54798   0.08869   0.75114   0.00000  Uiso   1.00
C472   C     0.59539   0.06085   0.82284   0.00000  Uiso   1.00
C473   C     0.64666   0.01590   0.93915   0.00000  Uiso   1.00
C474   C     0.68904   0.10624   0.70223   0.00000  Uiso   1.00
C475   C     0.63284   0.17992   0.65649   0.00000  Uiso   1.00
C476   C     0.65509   0.22957   0.64865   0.00000  Uiso   1.00
C477   C     0.59474   0.29390   0.60439   0.00000  Uiso   1.00
C478   C     0.67090   0.06880   0.65485   0.00000  Uiso   1.00
C479   C     0.72515   0.02502   0.64565   0.00000  Uiso   1.00
C480   C     0.69685   0.99581   0.60002   0.00000  Uiso   1.00
C481   C     0.66284   0.08779   0.75103   0.00000  Uiso   1.00
C482   C     0.71031   0.05996   0.82269   0.00000  Uiso   1.00
C483   C     0.67522   0.04671   0.85803   0.00000  Uiso   1.00
H484   H     0.48028   0.14319   0.61021   0.00000  Uiso   1.00
H485   H     0.43110   0.26920   0.54993   0.00000  Uiso   1.00
H486   H     0.50115   0.06468   0.54693   0.00000  Uiso   1.00
H487   H     0.48631   0.09961   0.72394   0.00000  Uiso   1.00
H488   H     0.41172   0.40267   0.49856   0.00000  Uiso   1.00
H489   H     0.55943   0.97142   0.49226   0.00000  Uiso   1.00
H490   H     0.52814   0.04508   0.86553   0.00000  Uiso   1.00
H491   H     0.75109   0.09525   0.72957   0.00000  Uiso   1.00
H492   H     0.71676   0.21863   0.67584   0.00000  Uiso   1.00
H493   H     0.78681   0.01411   0.67284   0.00000  Uiso   1.00
H494   H     0.77197   0.04905   0.84985   0.00000  Uiso   1.00
H495   H     0.64357   0.36163   0.60075   0.00000  Uiso   1.00
H496   H     0.79129   0.93037   0.59445   0.00000  Uiso   1.00
H497   H     0.76000   0.00404   0.96772   0.00000  Uiso   1.00
O498   O     0.50018   0.46418   0.51214   0.00000  Uiso   1.00
O499   O     0.69398   0.89837   0.50388   0.00000  Uiso   1.00
O500   O     0.65292   0.99502   0.99359   0.00000  Uiso   1.00
N501   N     0.47099   0.37608   0.53000   0.00000  Uiso   1.00
N502   N     0.60909   0.97289   0.52410   0.00000  Uiso   1.00
N503   N     0.57984   0.04174   0.87307   0.00000  Uiso   1.00
N504   N     0.59575   0.35400   0.58499   0.00000  Uiso   1.00
N505   N     0.73385   0.95081   0.57908   0.00000  Uiso   1.00
N506   N     0.70460   0.01966   0.92806   0.00000  Uiso   1.00
C507   C     0.31292   0.80556   0.82997   0.00000  Uiso   1.00
C508   C     0.34148   0.85365   0.85530   0.00000  Uiso   1.00
C509   C     0.37183   0.88752   0.82846   0.00000  Uiso   1.00
C510   C     0.39469   0.92922   0.85881   0.00000  Uiso   1.00
C511   C     0.44017   0.00271   0.88976   0.00000  Uiso   1.00
C512   C     0.36053   0.74014   0.89283   0.00000  Uiso   1.00
C513   C     0.40690   0.67858   0.89753   0.00000  Uiso   1.00
C514   C     0.44580   0.62474   0.95947   0.00000  Uiso   1.00
C515   C     0.52081   0.52201   0.04867   0.00000  Uiso   1.00
C516   C     0.22760   0.83237   0.81145   0.00000  Uiso   1.00
C517   C     0.16219   0.84833   0.74774   0.00000  Uiso   1.00
C518   C     0.08917   0.87211   0.74118   0.00000  Uiso   1.00
C519   C     0.95778   0.91257   0.70402   0.00000  Uiso   1.00
C520   C     0.29954   0.81938   0.93162   0.00000  Uiso   1.00
C521   C     0.33421   0.86115   0.91051   0.00000  Uiso   1.00
C522   C     0.35702   0.90281   0.94092   0.00000  Uiso   1.00
C523   C     0.38741   0.93674   0.91412   0.00000  Uiso   1.00
C524   C     0.35326   0.74765   0.94804   0.00000  Uiso   1.00
C525   C     0.39209   0.69388   0.00999   0.00000  Uiso   1.00
C526   C     0.43851   0.63226   0.01478   0.00000  Uiso   1.00
C527   C     0.22033   0.83987   0.86666   0.00000  Uiso   1.00
C528   C     0.14739   0.86363   0.86020   0.00000  Uiso   1.00
C529   C     0.08188   0.87963   0.79649   0.00000  Uiso   1.00
H530   H     0.31859   0.79971   0.78699   0.00000  Uiso   1.00
H531   H     0.37746   0.88169   0.78573   0.00000  Uiso   1.00
H532   H     0.41251   0.67279   0.85479   0.00000  Uiso   1.00
H533   H     0.16784   0.84252   0.70503   0.00000  Uiso   1.00
H534   H     0.43955   0.97587   0.80870   0.00000  Uiso   1.00
H535   H     0.51344   0.53539   0.95431   0.00000  Uiso   1.00
H536   H     0.99751   0.89328   0.63850   0.00000  Uiso   1.00
H537   H     0.29388   0.82523   0.97461   0.00000  Uiso   1.00
H538   H     0.35139   0.90861   0.98364   0.00000  Uiso   1.00
H539   H     0.38645   0.69971   0.05270   0.00000  Uiso   1.00
H540   H     0.14178   0.86943   0.90293   0.00000  Uiso   1.00
H541   H     0.41839   0.99771   0.96933   0.00000  Uiso   1.00
H542   H     0.49229   0.55723   0.11494   0.00000  Uiso   1.00
H543   H     0.97636   0.91513   0.79913   0.00000  Uiso   1.00
O544   O     0.46727   0.04116   0.89159   0.00000  Uiso   1.00
O545   O     0.56421   0.46327   0.08261   0.00000  Uiso   1.00
O546   O     0.88732   0.93282   0.66828   0.00000  Uiso   1.00
N547   N     0.42666   0.96958   0.84526   0.00000  Uiso   1.00
N548   N     0.49576   0.55775   0.98140   0.00000  Uiso   1.00
N549   N     0.01341   0.89234   0.68614   0.00000  Uiso   1.00
N550   N     0.41528   0.98133   0.93169   0.00000  Uiso   1.00
N551   N     0.48437   0.56951   0.06783   0.00000  Uiso   1.00
N552   N     0.00202   0.90410   0.77258   0.00000  Uiso   1.00
