data_job_06058
_audit_creation_date              2018-12-19
_audit_creation_method            'Materials Studio'
_symmetry_space_group_name_H-M    'P1'
_symmetry_Int_Tables_number       1
_symmetry_cell_setting            triclinic
loop_
_symmetry_equiv_pos_as_xyz
  x,y,z
_cell_length_a                    12.4605
_cell_length_b                    19.9729
_cell_length_c                    19.9931
_cell_angle_alpha                 64.2870
_cell_angle_beta                  78.0450
_cell_angle_gamma                 101.9505
loop_
_atom_site_label
_atom_site_type_symbol
_atom_site_fract_x
_atom_site_fract_y
_atom_site_fract_z
_atom_site_U_iso_or_equiv
_atom_site_adp_type
_atom_site_occupancy
C1     C     0.91840   0.95211   0.29549   0.00000  Uiso   1.00
C2     C     0.03102   0.01874   0.26880   0.00000  Uiso   1.00
C3     C     0.14127   0.02541   0.22855   0.00000  Uiso   1.00
C4     C     0.23317   0.09076   0.20944   0.00000  Uiso   1.00
C5     C     0.41076   0.18560   0.16492   0.00000  Uiso   1.00
C6     C     0.86501   0.91749   0.38425   0.00000  Uiso   1.00
C7     C     0.83568   0.83902   0.44106   0.00000  Uiso   1.00
C8     C     0.78781   0.81913   0.51913   0.00000  Uiso   1.00
C9     C     0.70759   0.75676   0.65384   0.00000  Uiso   1.00
C10    C     0.83666   0.99148   0.25920   0.00000  Uiso   1.00
C11    C     0.78345   0.97522   0.21090   0.00000  Uiso   1.00
C12    C     0.71169   0.01762   0.18370   0.00000  Uiso   1.00
C13    C     0.58745   0.07014   0.12427   0.00000  Uiso   1.00
C14    C     0.88554   0.05630   0.33310   0.00000  Uiso   1.00
C15    C     0.01317   0.07534   0.28923   0.00000  Uiso   1.00
C16    C     0.10492   0.14069   0.27017   0.00000  Uiso   1.00
C17    C     0.21529   0.14746   0.22990   0.00000  Uiso   1.00
C18    C     0.84716   0.97408   0.40468   0.00000  Uiso   1.00
C19    C     0.79932   0.95430   0.48267   0.00000  Uiso   1.00
C20    C     0.76993   0.87583   0.53959   0.00000  Uiso   1.00
C21    C     0.81881   0.04808   0.27963   0.00000  Uiso   1.00
C22    C     0.74710   0.09051   0.25251   0.00000  Uiso   1.00
C23    C     0.69381   0.07431   0.20417   0.00000  Uiso   1.00
H24    H     0.93230   0.90804   0.27959   0.00000  Uiso   1.00
H25    H     0.15505   0.98160   0.21276   0.00000  Uiso   1.00
H26    H     0.84949   0.79524   0.42523   0.00000  Uiso   1.00
H27    H     0.79729   0.93142   0.19510   0.00000  Uiso   1.00
H28    H     0.39416   0.08809   0.14771   0.00000  Uiso   1.00
H29    H     0.74982   0.69513   0.59571   0.00000  Uiso   1.00
H30    H     0.63973   0.98230   0.11044   0.00000  Uiso   1.00
H31    H     0.87164   0.10037   0.34901   0.00000  Uiso   1.00
H32    H     0.09108   0.18448   0.28599   0.00000  Uiso   1.00
H33    H     0.78551   0.99812   0.49846   0.00000  Uiso   1.00
H34    H     0.73331   0.13430   0.26833   0.00000  Uiso   1.00
H35    H     0.34223   0.25276   0.20714   0.00000  Uiso   1.00
H36    H     0.69789   0.85980   0.65515   0.00000  Uiso   1.00
H37    H     0.58781   0.14697   0.16987   0.00000  Uiso   1.00
O38    O     0.51365   0.22227   0.13474   0.00000  Uiso   1.00
O39    O     0.66828   0.70672   0.72250   0.00000  Uiso   1.00
O40    O     0.52386   0.08348   0.08583   0.00000  Uiso   1.00
N41    N     0.35182   0.11531   0.17033   0.00000  Uiso   1.00
N42    N     0.74942   0.74792   0.58919   0.00000  Uiso   1.00
N43    N     0.64647   0.01638   0.13552   0.00000  Uiso   1.00
N44    N     0.32388   0.20392   0.20231   0.00000  Uiso   1.00
N45    N     0.72148   0.83653   0.62117   0.00000  Uiso   1.00
N46    N     0.61854   0.10499   0.16750   0.00000  Uiso   1.00
C47    C     0.96921   0.75184   0.95363   0.00000  Uiso   1.00
C48    C     0.01535   0.71201   0.02027   0.00000  Uiso   1.00
C49    C     0.11887   0.74553   0.02711   0.00000  Uiso   1.00
C50    C     0.14559   0.69943   0.09242   0.00000  Uiso   1.00
C51    C     0.22855   0.64925   0.18729   0.00000  Uiso   1.00
C52    C     0.95043   0.69764   0.91886   0.00000  Uiso   1.00
C53    C     0.99934   0.71911   0.84044   0.00000  Uiso   1.00
C54    C     0.97139   0.66091   0.82039   0.00000  Uiso   1.00
C55    C     0.95348   0.58845   0.75781   0.00000  Uiso   1.00
C56    C     0.84824   0.74890   0.99291   0.00000  Uiso   1.00
C57    C     0.81122   0.81345   0.97674   0.00000  Uiso   1.00
C58    C     0.69723   0.79841   0.01902   0.00000  Uiso   1.00
C59    C     0.52066   0.80553   0.07141   0.00000  Uiso   1.00
C60    C     0.83259   0.61033   0.05745   0.00000  Uiso   1.00
C61    C     0.94114   0.63514   0.07665   0.00000  Uiso   1.00
C62    C     0.96771   0.58897   0.14197   0.00000  Uiso   1.00
C63    C     0.07125   0.62243   0.14891   0.00000  Uiso   1.00
C64    C     0.87622   0.62079   0.97524   0.00000  Uiso   1.00
C65    C     0.84818   0.56254   0.95530   0.00000  Uiso   1.00
C66    C     0.89705   0.58391   0.87687   0.00000  Uiso   1.00
C67    C     0.77403   0.67204   0.04930   0.00000  Uiso   1.00
C68    C     0.66007   0.65689   0.09161   0.00000  Uiso   1.00
C69    C     0.62288   0.72140   0.07551   0.00000  Uiso   1.00
H70    H     0.02699   0.81168   0.90973   0.00000  Uiso   1.00
H71    H     0.17628   0.80502   0.98345   0.00000  Uiso   1.00
H72    H     0.05675   0.77859   0.79682   0.00000  Uiso   1.00
H73    H     0.86867   0.87292   0.93310   0.00000  Uiso   1.00
H74    H     0.30909   0.76372   0.09005   0.00000  Uiso   1.00
H75    H     0.05704   0.70801   0.69650   0.00000  Uiso   1.00
H76    H     0.66043   0.90693   0.98388   0.00000  Uiso   1.00
H77    H     0.77481   0.55049   0.10135   0.00000  Uiso   1.00
H78    H     0.91027   0.52949   0.18560   0.00000  Uiso   1.00
H79    H     0.79075   0.50307   0.99895   0.00000  Uiso   1.00
H80    H     0.60267   0.59740   0.13524   0.00000  Uiso   1.00
H81    H     0.09319   0.54010   0.25412   0.00000  Uiso   1.00
H82    H     0.84114   0.48439   0.86056   0.00000  Uiso   1.00
H83    H     0.44452   0.68330   0.14795   0.00000  Uiso   1.00
O84    O     0.29482   0.64280   0.22403   0.00000  Uiso   1.00
O85    O     0.96412   0.56972   0.70771   0.00000  Uiso   1.00
O86    O     0.44378   0.83069   0.08475   0.00000  Uiso   1.00
N87    N     0.23968   0.71398   0.11711   0.00000  Uiso   1.00
N88    N     0.00404   0.66189   0.74917   0.00000  Uiso   1.00
N89    N     0.63323   0.84786   0.01783   0.00000  Uiso   1.00
N90    N     0.12350   0.59365   0.20539   0.00000  Uiso   1.00
N91    N     0.88787   0.54156   0.83745   0.00000  Uiso   1.00
N92    N     0.51705   0.72753   0.10611   0.00000  Uiso   1.00
C93    C     0.21348   0.29344   0.75338   0.00000  Uiso   1.00
C94    C     0.29935   0.26651   0.71354   0.00000  Uiso   1.00
C95    C     0.36941   0.22617   0.74707   0.00000  Uiso   1.00
C96    C     0.44212   0.20683   0.70097   0.00000  Uiso   1.00
C97    C     0.57513   0.16196   0.65079   0.00000  Uiso   1.00
C98    C     0.24867   0.38227   0.69937   0.00000  Uiso   1.00
C99    C     0.27610   0.43926   0.72100   0.00000  Uiso   1.00
C100   C     0.30612   0.51736   0.66297   0.00000  Uiso   1.00
C101   C     0.36036   0.65221   0.59081   0.00000  Uiso   1.00
C102   C     0.09554   0.25717   0.75024   0.00000  Uiso   1.00
C103   C     0.99421   0.20898   0.81463   0.00000  Uiso   1.00
C104   C     0.89530   0.18177   0.79941   0.00000  Uiso   1.00
C105   C     0.71178   0.12238   0.80624   0.00000  Uiso   1.00
C106   C     0.21802   0.33083   0.61187   0.00000  Uiso   1.00
C107   C     0.30181   0.28683   0.63668   0.00000  Uiso   1.00
C108   C     0.37443   0.26754   0.59051   0.00000  Uiso   1.00
C109   C     0.44459   0.22718   0.62397   0.00000  Uiso   1.00
C110   C     0.25113   0.40259   0.62252   0.00000  Uiso   1.00
C111   C     0.28112   0.48063   0.56444   0.00000  Uiso   1.00
C112   C     0.30859   0.53772   0.58597   0.00000  Uiso   1.00
C113   C     0.09800   0.27748   0.67338   0.00000  Uiso   1.00
C114   C     0.99923   0.25035   0.65807   0.00000  Uiso   1.00
C115   C     0.89777   0.20212   0.72242   0.00000  Uiso   1.00
H116   H     0.21156   0.27763   0.81321   0.00000  Uiso   1.00
H117   H     0.36749   0.21047   0.80655   0.00000  Uiso   1.00
H118   H     0.27417   0.42352   0.78048   0.00000  Uiso   1.00
H119   H     0.99233   0.19327   0.87410   0.00000  Uiso   1.00
H120   H     0.54148   0.14499   0.76526   0.00000  Uiso   1.00
H121   H     0.34468   0.59421   0.71030   0.00000  Uiso   1.00
H122   H     0.75036   0.10870   0.90770   0.00000  Uiso   1.00
H123   H     0.21993   0.34665   0.55203   0.00000  Uiso   1.00
H124   H     0.37632   0.28327   0.53104   0.00000  Uiso   1.00
H125   H     0.28301   0.49633   0.50497   0.00000  Uiso   1.00
H126   H     0.00117   0.26608   0.59858   0.00000  Uiso   1.00
H127   H     0.54866   0.20408   0.54164   0.00000  Uiso   1.00
H128   H     0.35185   0.65331   0.48669   0.00000  Uiso   1.00
H129   H     0.75754   0.16779   0.68408   0.00000  Uiso   1.00
O130   O     0.64782   0.13162   0.64434   0.00000  Uiso   1.00
O131   O     0.38960   0.72099   0.57225   0.00000  Uiso   1.00
O132   O     0.60988   0.08400   0.83123   0.00000  Uiso   1.00
N133   N     0.52169   0.16758   0.71552   0.00000  Uiso   1.00
N134   N     0.33771   0.58758   0.66413   0.00000  Uiso   1.00
N135   N     0.78207   0.13368   0.84868   0.00000  Uiso   1.00
N136   N     0.52555   0.19937   0.59519   0.00000  Uiso   1.00
N137   N     0.34157   0.61938   0.54381   0.00000  Uiso   1.00
N138   N     0.78593   0.16548   0.72835   0.00000  Uiso   1.00
C139   C     0.08160   0.04789   0.70451   0.00000  Uiso   1.00
C140   C     0.96898   0.98126   0.73120   0.00000  Uiso   1.00
C141   C     0.85873   0.97459   0.77145   0.00000  Uiso   1.00
C142   C     0.76683   0.90924   0.79056   0.00000  Uiso   1.00
C143   C     0.58924   0.81440   0.83508   0.00000  Uiso   1.00
C144   C     0.13499   0.08251   0.61575   0.00000  Uiso   1.00
C145   C     0.16432   0.16098   0.55894   0.00000  Uiso   1.00
C146   C     0.21219   0.18087   0.48087   0.00000  Uiso   1.00
C147   C     0.29241   0.24324   0.34616   0.00000  Uiso   1.00
C148   C     0.16334   0.00851   0.74080   0.00000  Uiso   1.00
C149   C     0.21655   0.02478   0.78910   0.00000  Uiso   1.00
C150   C     0.28831   0.98238   0.81630   0.00000  Uiso   1.00
C151   C     0.41255   0.92986   0.87573   0.00000  Uiso   1.00
C152   C     0.11446   0.94370   0.66690   0.00000  Uiso   1.00
C153   C     0.98683   0.92466   0.71077   0.00000  Uiso   1.00
C154   C     0.89508   0.85931   0.72983   0.00000  Uiso   1.00
C155   C     0.78471   0.85254   0.77010   0.00000  Uiso   1.00
C156   C     0.15284   0.02592   0.59532   0.00000  Uiso   1.00
C157   C     0.20068   0.04570   0.51733   0.00000  Uiso   1.00
C158   C     0.23007   0.12417   0.46041   0.00000  Uiso   1.00
C159   C     0.18119   0.95192   0.72037   0.00000  Uiso   1.00
C160   C     0.25289   0.90949   0.74749   0.00000  Uiso   1.00
C161   C     0.30619   0.92569   0.79583   0.00000  Uiso   1.00
H162   H     0.06770   0.09196   0.72041   0.00000  Uiso   1.00
H163   H     0.84495   0.01840   0.78724   0.00000  Uiso   1.00
H164   H     0.15051   0.20476   0.57477   0.00000  Uiso   1.00
H165   H     0.20271   0.06858   0.80490   0.00000  Uiso   1.00
H166   H     0.60584   0.91191   0.85229   0.00000  Uiso   1.00
H167   H     0.25018   0.30487   0.40429   0.00000  Uiso   1.00
H168   H     0.36027   0.01770   0.88956   0.00000  Uiso   1.00
H169   H     0.12836   0.89963   0.65099   0.00000  Uiso   1.00
H170   H     0.90892   0.81552   0.71401   0.00000  Uiso   1.00
H171   H     0.21449   0.00188   0.50154   0.00000  Uiso   1.00
H172   H     0.26669   0.86570   0.73167   0.00000  Uiso   1.00
H173   H     0.65777   0.74724   0.79286   0.00000  Uiso   1.00
H174   H     0.30211   0.14020   0.34485   0.00000  Uiso   1.00
H175   H     0.41219   0.85303   0.83013   0.00000  Uiso   1.00
O176   O     0.48635   0.77773   0.86526   0.00000  Uiso   1.00
O177   O     0.33172   0.29328   0.27750   0.00000  Uiso   1.00
O178   O     0.47614   0.91652   0.91417   0.00000  Uiso   1.00
N179   N     0.64818   0.88469   0.82967   0.00000  Uiso   1.00
N180   N     0.25058   0.25208   0.41081   0.00000  Uiso   1.00
N181   N     0.35353   0.98362   0.86448   0.00000  Uiso   1.00
N182   N     0.67612   0.79608   0.79769   0.00000  Uiso   1.00
N183   N     0.27852   0.16347   0.37883   0.00000  Uiso   1.00
N184   N     0.38146   0.89501   0.83250   0.00000  Uiso   1.00
C185   C     0.03079   0.24816   0.04637   0.00000  Uiso   1.00
C186   C     0.98465   0.28799   0.97973   0.00000  Uiso   1.00
C187   C     0.88113   0.25447   0.97289   0.00000  Uiso   1.00
C188   C     0.85441   0.30057   0.90758   0.00000  Uiso   1.00
C189   C     0.77145   0.35075   0.81271   0.00000  Uiso   1.00
C190   C     0.04957   0.30236   0.08114   0.00000  Uiso   1.00
C191   C     0.00066   0.28089   0.15956   0.00000  Uiso   1.00
C192   C     0.02861   0.33909   0.17961   0.00000  Uiso   1.00
C193   C     0.04652   0.41155   0.24219   0.00000  Uiso   1.00
C194   C     0.15176   0.25110   0.00709   0.00000  Uiso   1.00
C195   C     0.18878   0.18655   0.02326   0.00000  Uiso   1.00
C196   C     0.30277   0.20159   0.98098   0.00000  Uiso   1.00
C197   C     0.47934   0.19447   0.92859   0.00000  Uiso   1.00
C198   C     0.16741   0.38967   0.94255   0.00000  Uiso   1.00
C199   C     0.05886   0.36486   0.92335   0.00000  Uiso   1.00
C200   C     0.03229   0.41103   0.85803   0.00000  Uiso   1.00
C201   C     0.92875   0.37757   0.85109   0.00000  Uiso   1.00
C202   C     0.12378   0.37921   0.02476   0.00000  Uiso   1.00
C203   C     0.15182   0.43746   0.04470   0.00000  Uiso   1.00
C204   C     0.10295   0.41609   0.12313   0.00000  Uiso   1.00
C205   C     0.22597   0.32796   0.95070   0.00000  Uiso   1.00
C206   C     0.33993   0.34311   0.90839   0.00000  Uiso   1.00
C207   C     0.37712   0.27860   0.92449   0.00000  Uiso   1.00
H208   H     0.97301   0.18832   0.09027   0.00000  Uiso   1.00
H209   H     0.82372   0.19498   0.01655   0.00000  Uiso   1.00
H210   H     0.94325   0.22141   0.20318   0.00000  Uiso   1.00
H211   H     0.13133   0.12708   0.06690   0.00000  Uiso   1.00
H212   H     0.69091   0.23628   0.90995   0.00000  Uiso   1.00
H213   H     0.94296   0.29199   0.30350   0.00000  Uiso   1.00
H214   H     0.33957   0.09307   0.01612   0.00000  Uiso   1.00
H215   H     0.22519   0.44951   0.89865   0.00000  Uiso   1.00
H216   H     0.08973   0.47051   0.81440   0.00000  Uiso   1.00
H217   H     0.20925   0.49693   0.00105   0.00000  Uiso   1.00
H218   H     0.39733   0.40260   0.86476   0.00000  Uiso   1.00
H219   H     0.90681   0.45990   0.74588   0.00000  Uiso   1.00
H220   H     0.15886   0.51561   0.13944   0.00000  Uiso   1.00
H221   H     0.55548   0.31670   0.85206   0.00000  Uiso   1.00
O222   O     0.70518   0.35720   0.77597   0.00000  Uiso   1.00
O223   O     0.03588   0.43028   0.29229   0.00000  Uiso   1.00
O224   O     0.55622   0.16931   0.91525   0.00000  Uiso   1.00
N225   N     0.76032   0.28602   0.88289   0.00000  Uiso   1.00
N226   N     0.99596   0.33811   0.25083   0.00000  Uiso   1.00
N227   N     0.36677   0.15214   0.98217   0.00000  Uiso   1.00
N228   N     0.87650   0.40635   0.79461   0.00000  Uiso   1.00
N229   N     0.11213   0.45844   0.16255   0.00000  Uiso   1.00
N230   N     0.48295   0.27247   0.89389   0.00000  Uiso   1.00
C231   C     0.78652   0.70656   0.24662   0.00000  Uiso   1.00
C232   C     0.70065   0.73349   0.28646   0.00000  Uiso   1.00
C233   C     0.63059   0.77383   0.25293   0.00000  Uiso   1.00
C234   C     0.55788   0.79317   0.29903   0.00000  Uiso   1.00
C235   C     0.42487   0.83804   0.34921   0.00000  Uiso   1.00
C236   C     0.75133   0.61773   0.30063   0.00000  Uiso   1.00
C237   C     0.72390   0.56074   0.27900   0.00000  Uiso   1.00
C238   C     0.69388   0.48264   0.33703   0.00000  Uiso   1.00
C239   C     0.63964   0.34779   0.40919   0.00000  Uiso   1.00
C240   C     0.90446   0.74283   0.24976   0.00000  Uiso   1.00
C241   C     0.00579   0.79102   0.18537   0.00000  Uiso   1.00
C242   C     0.10470   0.81823   0.20058   0.00000  Uiso   1.00
C243   C     0.28822   0.87762   0.19376   0.00000  Uiso   1.00
C244   C     0.78198   0.66917   0.38813   0.00000  Uiso   1.00
C245   C     0.69819   0.71317   0.36332   0.00000  Uiso   1.00
C246   C     0.62557   0.73246   0.40949   0.00000  Uiso   1.00
C247   C     0.55541   0.77282   0.37603   0.00000  Uiso   1.00
C248   C     0.74887   0.59741   0.37748   0.00000  Uiso   1.00
C249   C     0.71888   0.51937   0.43556   0.00000  Uiso   1.00
C250   C     0.69141   0.46228   0.41403   0.00000  Uiso   1.00
C251   C     0.90200   0.72252   0.32662   0.00000  Uiso   1.00
C252   C     0.00077   0.74965   0.34193   0.00000  Uiso   1.00
C253   C     0.10223   0.79788   0.27758   0.00000  Uiso   1.00
H254   H     0.78844   0.72237   0.18679   0.00000  Uiso   1.00
H255   H     0.63251   0.78953   0.19345   0.00000  Uiso   1.00
H256   H     0.72583   0.57648   0.21952   0.00000  Uiso   1.00
H257   H     0.00767   0.80673   0.12590   0.00000  Uiso   1.00
H258   H     0.45852   0.85501   0.23474   0.00000  Uiso   1.00
H259   H     0.65532   0.40579   0.28970   0.00000  Uiso   1.00
H260   H     0.24964   0.89130   0.09230   0.00000  Uiso   1.00
H261   H     0.78007   0.65335   0.44797   0.00000  Uiso   1.00
H262   H     0.62368   0.71673   0.46896   0.00000  Uiso   1.00
H263   H     0.71699   0.50367   0.49503   0.00000  Uiso   1.00
H264   H     0.99883   0.73392   0.40142   0.00000  Uiso   1.00
H265   H     0.45134   0.79592   0.45836   0.00000  Uiso   1.00
H266   H     0.64815   0.34669   0.51331   0.00000  Uiso   1.00
H267   H     0.24246   0.83221   0.31592   0.00000  Uiso   1.00
O268   O     0.35218   0.86839   0.35566   0.00000  Uiso   1.00
O269   O     0.61040   0.27901   0.42775   0.00000  Uiso   1.00
O270   O     0.39012   0.91600   0.16877   0.00000  Uiso   1.00
N271   N     0.47831   0.83242   0.28448   0.00000  Uiso   1.00
N272   N     0.66229   0.41242   0.33587   0.00000  Uiso   1.00
N273   N     0.21793   0.86632   0.15132   0.00000  Uiso   1.00
N274   N     0.47445   0.80063   0.40481   0.00000  Uiso   1.00
N275   N     0.65843   0.38062   0.45619   0.00000  Uiso   1.00
N276   N     0.21407   0.83452   0.27165   0.00000  Uiso   1.00
