data_job_05280
_audit_creation_date              2018-12-19
_audit_creation_method            'Materials Studio'
_symmetry_space_group_name_H-M    'P1'
_symmetry_Int_Tables_number       1
_symmetry_cell_setting            triclinic
loop_
_symmetry_equiv_pos_as_xyz
  x,y,z
_cell_length_a                    20.4793
_cell_length_b                    20.4793
_cell_length_c                    12.4166
_cell_angle_alpha                 90.0000
_cell_angle_beta                  90.0000
_cell_angle_gamma                 90.0000
loop_
_atom_site_label
_atom_site_type_symbol
_atom_site_fract_x
_atom_site_fract_y
_atom_site_fract_z
_atom_site_U_iso_or_equiv
_atom_site_adp_type
_atom_site_occupancy
C1     C     0.27894   0.90970   0.70022   0.00000  Uiso   1.00
C2     C     0.27436   0.94560   0.80755   0.00000  Uiso   1.00
C3     C     0.32681   0.96509   0.87061   0.00000  Uiso   1.00
C4     C     0.31239   0.99730   0.96608   0.00000  Uiso   1.00
C5     C     0.31509   0.05115   0.12802   0.00000  Uiso   1.00
C6     C     0.23900   0.84738   0.71347   0.00000  Uiso   1.00
C7     C     0.26172   0.78428   0.69741   0.00000  Uiso   1.00
C8     C     0.21754   0.73381   0.71366   0.00000  Uiso   1.00
C9     C     0.16534   0.63516   0.72947   0.00000  Uiso   1.00
C10    C     0.24201   0.95159   0.61899   0.00000  Uiso   1.00
C11    C     0.26726   0.97610   0.52346   0.00000  Uiso   1.00
C12    C     0.22560   0.01336   0.46015   0.00000  Uiso   1.00
C13    C     0.17807   0.07652   0.32926   0.00000  Uiso   1.00
C14    C     0.16008   0.93227   0.75763   0.00000  Uiso   1.00
C15    C     0.20979   0.95785   0.83874   0.00000  Uiso   1.00
C16    C     0.19530   0.99005   0.93413   0.00000  Uiso   1.00
C17    C     0.24771   0.00958   0.99732   0.00000  Uiso   1.00
C18    C     0.17444   0.85963   0.74466   0.00000  Uiso   1.00
C19    C     0.13021   0.80924   0.76093   0.00000  Uiso   1.00
C20    C     0.15286   0.74608   0.74491   0.00000  Uiso   1.00
C21    C     0.17745   0.96385   0.65017   0.00000  Uiso   1.00
C22    C     0.13574   0.00107   0.58699   0.00000  Uiso   1.00
C23    C     0.16092   0.02564   0.49140   0.00000  Uiso   1.00
H24    H     0.32921   0.90016   0.67594   0.00000  Uiso   1.00
H25    H     0.37676   0.95559   0.84645   0.00000  Uiso   1.00
H26    H     0.31169   0.77481   0.67326   0.00000  Uiso   1.00
H27    H     0.31722   0.96661   0.49935   0.00000  Uiso   1.00
H28    H     0.40102   0.02242   0.04926   0.00000  Uiso   1.00
H29    H     0.26379   0.64124   0.68406   0.00000  Uiso   1.00
H30    H     0.27546   0.04569   0.31733   0.00000  Uiso   1.00
H31    H     0.10981   0.94181   0.78191   0.00000  Uiso   1.00
H32    H     0.14533   0.99953   0.95825   0.00000  Uiso   1.00
H33    H     0.08025   0.81875   0.78506   0.00000  Uiso   1.00
H34    H     0.08579   0.01055   0.61115   0.00000  Uiso   1.00
H35    H     0.21317   0.05809   0.14001   0.00000  Uiso   1.00
H36    H     0.07595   0.67690   0.77480   0.00000  Uiso   1.00
H37    H     0.08762   0.08135   0.40807   0.00000  Uiso   1.00
O38    O     0.33442   0.07746   0.20874   0.00000  Uiso   1.00
O39    O     0.15438   0.57736   0.72958   0.00000  Uiso   1.00
O40    O     0.16969   0.10798   0.24845   0.00000  Uiso   1.00
N41    N     0.35193   0.02291   0.04641   0.00000  Uiso   1.00
N42    N     0.22364   0.66652   0.70498   0.00000  Uiso   1.00
N43    N     0.23454   0.04463   0.36211   0.00000  Uiso   1.00
N44    N     0.25086   0.04210   0.09524   0.00000  Uiso   1.00
N45    N     0.12257   0.68572   0.75381   0.00000  Uiso   1.00
N46    N     0.13347   0.06382   0.41093   0.00000  Uiso   1.00
C47    C     0.77894   0.40970   0.20022   0.00000  Uiso   1.00
C48    C     0.77436   0.44560   0.30755   0.00000  Uiso   1.00
C49    C     0.82681   0.46509   0.37061   0.00000  Uiso   1.00
C50    C     0.81239   0.49730   0.46608   0.00000  Uiso   1.00
C51    C     0.81509   0.55115   0.62802   0.00000  Uiso   1.00
C52    C     0.73900   0.34738   0.21347   0.00000  Uiso   1.00
C53    C     0.76172   0.28428   0.19741   0.00000  Uiso   1.00
C54    C     0.71754   0.23381   0.21366   0.00000  Uiso   1.00
C55    C     0.66534   0.13516   0.22947   0.00000  Uiso   1.00
C56    C     0.74201   0.45159   0.11899   0.00000  Uiso   1.00
C57    C     0.76726   0.47610   0.02346   0.00000  Uiso   1.00
C58    C     0.72560   0.51336   0.96015   0.00000  Uiso   1.00
C59    C     0.67807   0.57652   0.82926   0.00000  Uiso   1.00
C60    C     0.66008   0.43227   0.25763   0.00000  Uiso   1.00
C61    C     0.70979   0.45785   0.33874   0.00000  Uiso   1.00
C62    C     0.69530   0.49005   0.43413   0.00000  Uiso   1.00
C63    C     0.74771   0.50958   0.49732   0.00000  Uiso   1.00
C64    C     0.67444   0.35963   0.24466   0.00000  Uiso   1.00
C65    C     0.63021   0.30924   0.26093   0.00000  Uiso   1.00
C66    C     0.65286   0.24608   0.24491   0.00000  Uiso   1.00
C67    C     0.67745   0.46385   0.15017   0.00000  Uiso   1.00
C68    C     0.63574   0.50107   0.08699   0.00000  Uiso   1.00
C69    C     0.66092   0.52564   0.99140   0.00000  Uiso   1.00
H70    H     0.82921   0.40016   0.17594   0.00000  Uiso   1.00
H71    H     0.87676   0.45559   0.34645   0.00000  Uiso   1.00
H72    H     0.81169   0.27481   0.17326   0.00000  Uiso   1.00
H73    H     0.81722   0.46661   0.99935   0.00000  Uiso   1.00
H74    H     0.90102   0.52242   0.54926   0.00000  Uiso   1.00
H75    H     0.76379   0.14124   0.18406   0.00000  Uiso   1.00
H76    H     0.77546   0.54569   0.81733   0.00000  Uiso   1.00
H77    H     0.60981   0.44181   0.28191   0.00000  Uiso   1.00
H78    H     0.64533   0.49953   0.45825   0.00000  Uiso   1.00
H79    H     0.58025   0.31875   0.28506   0.00000  Uiso   1.00
H80    H     0.58579   0.51055   0.11115   0.00000  Uiso   1.00
H81    H     0.71317   0.55809   0.64001   0.00000  Uiso   1.00
H82    H     0.57595   0.17690   0.27480   0.00000  Uiso   1.00
H83    H     0.58762   0.58135   0.90807   0.00000  Uiso   1.00
O84    O     0.83442   0.57746   0.70874   0.00000  Uiso   1.00
O85    O     0.65438   0.07736   0.22958   0.00000  Uiso   1.00
O86    O     0.66969   0.60798   0.74845   0.00000  Uiso   1.00
N87    N     0.85193   0.52291   0.54641   0.00000  Uiso   1.00
N88    N     0.72364   0.16652   0.20498   0.00000  Uiso   1.00
N89    N     0.73454   0.54463   0.86211   0.00000  Uiso   1.00
N90    N     0.75086   0.54210   0.59524   0.00000  Uiso   1.00
N91    N     0.62257   0.18572   0.25381   0.00000  Uiso   1.00
N92    N     0.63347   0.56382   0.91093   0.00000  Uiso   1.00
C93    C     0.72106   0.09030   0.70022   0.00000  Uiso   1.00
C94    C     0.72564   0.05440   0.80755   0.00000  Uiso   1.00
C95    C     0.67319   0.03491   0.87061   0.00000  Uiso   1.00
C96    C     0.68761   0.00270   0.96608   0.00000  Uiso   1.00
C97    C     0.68491   0.94885   0.12802   0.00000  Uiso   1.00
C98    C     0.76100   0.15262   0.71347   0.00000  Uiso   1.00
C99    C     0.73828   0.21572   0.69741   0.00000  Uiso   1.00
C100   C     0.78246   0.26619   0.71366   0.00000  Uiso   1.00
C101   C     0.83466   0.36484   0.72947   0.00000  Uiso   1.00
C102   C     0.75799   0.04841   0.61899   0.00000  Uiso   1.00
C103   C     0.73274   0.02390   0.52346   0.00000  Uiso   1.00
C104   C     0.77440   0.98664   0.46015   0.00000  Uiso   1.00
C105   C     0.82193   0.92348   0.32926   0.00000  Uiso   1.00
C106   C     0.83992   0.06773   0.75763   0.00000  Uiso   1.00
C107   C     0.79021   0.04215   0.83874   0.00000  Uiso   1.00
C108   C     0.80470   0.00995   0.93413   0.00000  Uiso   1.00
C109   C     0.75229   0.99042   0.99732   0.00000  Uiso   1.00
C110   C     0.82556   0.14037   0.74466   0.00000  Uiso   1.00
C111   C     0.86979   0.19076   0.76093   0.00000  Uiso   1.00
C112   C     0.84714   0.25392   0.74491   0.00000  Uiso   1.00
C113   C     0.82255   0.03615   0.65017   0.00000  Uiso   1.00
C114   C     0.86426   0.99893   0.58699   0.00000  Uiso   1.00
C115   C     0.83908   0.97436   0.49140   0.00000  Uiso   1.00
H116   H     0.67079   0.09984   0.67594   0.00000  Uiso   1.00
H117   H     0.62324   0.04441   0.84645   0.00000  Uiso   1.00
H118   H     0.68831   0.22519   0.67326   0.00000  Uiso   1.00
H119   H     0.68278   0.03339   0.49935   0.00000  Uiso   1.00
H120   H     0.59898   0.97758   0.04926   0.00000  Uiso   1.00
H121   H     0.73621   0.35876   0.68406   0.00000  Uiso   1.00
H122   H     0.72454   0.95431   0.31733   0.00000  Uiso   1.00
H123   H     0.89019   0.05819   0.78191   0.00000  Uiso   1.00
H124   H     0.85467   0.00047   0.95825   0.00000  Uiso   1.00
H125   H     0.91975   0.18125   0.78506   0.00000  Uiso   1.00
H126   H     0.91421   0.98945   0.61115   0.00000  Uiso   1.00
H127   H     0.78683   0.94191   0.14001   0.00000  Uiso   1.00
H128   H     0.92405   0.32310   0.77480   0.00000  Uiso   1.00
H129   H     0.91238   0.91865   0.40807   0.00000  Uiso   1.00
O130   O     0.66558   0.92254   0.20874   0.00000  Uiso   1.00
O131   O     0.84562   0.42264   0.72958   0.00000  Uiso   1.00
O132   O     0.83031   0.89202   0.24845   0.00000  Uiso   1.00
N133   N     0.64807   0.97709   0.04641   0.00000  Uiso   1.00
N134   N     0.77636   0.33348   0.70498   0.00000  Uiso   1.00
N135   N     0.76546   0.95537   0.36211   0.00000  Uiso   1.00
N136   N     0.74914   0.95790   0.09524   0.00000  Uiso   1.00
N137   N     0.87743   0.31428   0.75381   0.00000  Uiso   1.00
N138   N     0.86653   0.93618   0.41093   0.00000  Uiso   1.00
C139   C     0.22106   0.59030   0.20022   0.00000  Uiso   1.00
C140   C     0.22564   0.55440   0.30755   0.00000  Uiso   1.00
C141   C     0.17319   0.53491   0.37061   0.00000  Uiso   1.00
C142   C     0.18761   0.50270   0.46608   0.00000  Uiso   1.00
C143   C     0.18491   0.44885   0.62802   0.00000  Uiso   1.00
C144   C     0.26100   0.65262   0.21347   0.00000  Uiso   1.00
C145   C     0.23828   0.71572   0.19741   0.00000  Uiso   1.00
C146   C     0.28246   0.76619   0.21366   0.00000  Uiso   1.00
C147   C     0.33466   0.86484   0.22947   0.00000  Uiso   1.00
C148   C     0.25799   0.54841   0.11899   0.00000  Uiso   1.00
C149   C     0.23274   0.52390   0.02346   0.00000  Uiso   1.00
C150   C     0.27440   0.48664   0.96015   0.00000  Uiso   1.00
C151   C     0.32193   0.42348   0.82926   0.00000  Uiso   1.00
C152   C     0.33992   0.56773   0.25763   0.00000  Uiso   1.00
C153   C     0.29021   0.54215   0.33874   0.00000  Uiso   1.00
C154   C     0.30470   0.50995   0.43413   0.00000  Uiso   1.00
C155   C     0.25229   0.49042   0.49732   0.00000  Uiso   1.00
C156   C     0.32556   0.64037   0.24466   0.00000  Uiso   1.00
C157   C     0.36979   0.69076   0.26093   0.00000  Uiso   1.00
C158   C     0.34714   0.75392   0.24491   0.00000  Uiso   1.00
C159   C     0.32255   0.53615   0.15017   0.00000  Uiso   1.00
C160   C     0.36426   0.49893   0.08699   0.00000  Uiso   1.00
C161   C     0.33908   0.47436   0.99140   0.00000  Uiso   1.00
H162   H     0.17079   0.59984   0.17594   0.00000  Uiso   1.00
H163   H     0.12324   0.54441   0.34645   0.00000  Uiso   1.00
H164   H     0.18831   0.72519   0.17326   0.00000  Uiso   1.00
H165   H     0.18278   0.53339   0.99935   0.00000  Uiso   1.00
H166   H     0.09898   0.47758   0.54926   0.00000  Uiso   1.00
H167   H     0.23621   0.85876   0.18406   0.00000  Uiso   1.00
H168   H     0.22454   0.45431   0.81733   0.00000  Uiso   1.00
H169   H     0.39019   0.55819   0.28191   0.00000  Uiso   1.00
H170   H     0.35467   0.50047   0.45825   0.00000  Uiso   1.00
H171   H     0.41975   0.68125   0.28506   0.00000  Uiso   1.00
H172   H     0.41421   0.48945   0.11115   0.00000  Uiso   1.00
H173   H     0.28683   0.44191   0.64001   0.00000  Uiso   1.00
H174   H     0.42405   0.82310   0.27480   0.00000  Uiso   1.00
H175   H     0.41238   0.41865   0.90807   0.00000  Uiso   1.00
O176   O     0.16558   0.42254   0.70874   0.00000  Uiso   1.00
O177   O     0.34562   0.92264   0.22958   0.00000  Uiso   1.00
O178   O     0.33031   0.39202   0.74845   0.00000  Uiso   1.00
N179   N     0.14807   0.47709   0.54641   0.00000  Uiso   1.00
N180   N     0.27636   0.83348   0.20498   0.00000  Uiso   1.00
N181   N     0.26546   0.45537   0.86211   0.00000  Uiso   1.00
N182   N     0.24914   0.45790   0.59524   0.00000  Uiso   1.00
N183   N     0.37743   0.81428   0.25381   0.00000  Uiso   1.00
N184   N     0.36653   0.43618   0.91093   0.00000  Uiso   1.00
C185   C     0.09030   0.27894   0.70022   0.00000  Uiso   1.00
C186   C     0.05440   0.27436   0.80755   0.00000  Uiso   1.00
C187   C     0.03491   0.32681   0.87061   0.00000  Uiso   1.00
C188   C     0.00270   0.31239   0.96608   0.00000  Uiso   1.00
C189   C     0.94885   0.31509   0.12802   0.00000  Uiso   1.00
C190   C     0.15262   0.23900   0.71347   0.00000  Uiso   1.00
C191   C     0.21572   0.26172   0.69741   0.00000  Uiso   1.00
C192   C     0.26619   0.21754   0.71366   0.00000  Uiso   1.00
C193   C     0.36484   0.16534   0.72947   0.00000  Uiso   1.00
C194   C     0.04841   0.24201   0.61899   0.00000  Uiso   1.00
C195   C     0.02390   0.26726   0.52346   0.00000  Uiso   1.00
C196   C     0.98664   0.22560   0.46015   0.00000  Uiso   1.00
C197   C     0.92348   0.17807   0.32926   0.00000  Uiso   1.00
C198   C     0.06773   0.16008   0.75763   0.00000  Uiso   1.00
C199   C     0.04215   0.20979   0.83874   0.00000  Uiso   1.00
C200   C     0.00995   0.19530   0.93413   0.00000  Uiso   1.00
C201   C     0.99042   0.24771   0.99732   0.00000  Uiso   1.00
C202   C     0.14037   0.17444   0.74466   0.00000  Uiso   1.00
C203   C     0.19076   0.13021   0.76093   0.00000  Uiso   1.00
C204   C     0.25392   0.15286   0.74491   0.00000  Uiso   1.00
C205   C     0.03615   0.17745   0.65017   0.00000  Uiso   1.00
C206   C     0.99893   0.13574   0.58699   0.00000  Uiso   1.00
C207   C     0.97436   0.16092   0.49140   0.00000  Uiso   1.00
H208   H     0.09984   0.32921   0.67594   0.00000  Uiso   1.00
H209   H     0.04441   0.37676   0.84645   0.00000  Uiso   1.00
H210   H     0.22519   0.31169   0.67326   0.00000  Uiso   1.00
H211   H     0.03339   0.31722   0.49935   0.00000  Uiso   1.00
H212   H     0.97758   0.40102   0.04926   0.00000  Uiso   1.00
H213   H     0.35876   0.26379   0.68406   0.00000  Uiso   1.00
H214   H     0.95431   0.27546   0.31733   0.00000  Uiso   1.00
H215   H     0.05819   0.10981   0.78191   0.00000  Uiso   1.00
H216   H     0.00047   0.14533   0.95825   0.00000  Uiso   1.00
H217   H     0.18125   0.08025   0.78506   0.00000  Uiso   1.00
H218   H     0.98945   0.08579   0.61115   0.00000  Uiso   1.00
H219   H     0.94191   0.21317   0.14001   0.00000  Uiso   1.00
H220   H     0.32310   0.07595   0.77480   0.00000  Uiso   1.00
H221   H     0.91865   0.08762   0.40807   0.00000  Uiso   1.00
O222   O     0.92254   0.33442   0.20874   0.00000  Uiso   1.00
O223   O     0.42264   0.15438   0.72958   0.00000  Uiso   1.00
O224   O     0.89202   0.16969   0.24845   0.00000  Uiso   1.00
N225   N     0.97709   0.35193   0.04641   0.00000  Uiso   1.00
N226   N     0.33348   0.22364   0.70498   0.00000  Uiso   1.00
N227   N     0.95537   0.23454   0.36211   0.00000  Uiso   1.00
N228   N     0.95790   0.25086   0.09524   0.00000  Uiso   1.00
N229   N     0.31428   0.12257   0.75381   0.00000  Uiso   1.00
N230   N     0.93618   0.13347   0.41093   0.00000  Uiso   1.00
C231   C     0.59030   0.77894   0.20022   0.00000  Uiso   1.00
C232   C     0.55440   0.77436   0.30755   0.00000  Uiso   1.00
C233   C     0.53491   0.82681   0.37061   0.00000  Uiso   1.00
C234   C     0.50270   0.81239   0.46608   0.00000  Uiso   1.00
C235   C     0.44885   0.81509   0.62802   0.00000  Uiso   1.00
C236   C     0.65262   0.73900   0.21347   0.00000  Uiso   1.00
C237   C     0.71572   0.76172   0.19741   0.00000  Uiso   1.00
C238   C     0.76619   0.71754   0.21366   0.00000  Uiso   1.00
C239   C     0.86484   0.66534   0.22947   0.00000  Uiso   1.00
C240   C     0.54841   0.74201   0.11899   0.00000  Uiso   1.00
C241   C     0.52390   0.76726   0.02346   0.00000  Uiso   1.00
C242   C     0.48664   0.72560   0.96015   0.00000  Uiso   1.00
C243   C     0.42348   0.67807   0.82926   0.00000  Uiso   1.00
C244   C     0.56773   0.66008   0.25763   0.00000  Uiso   1.00
C245   C     0.54215   0.70979   0.33874   0.00000  Uiso   1.00
C246   C     0.50995   0.69530   0.43413   0.00000  Uiso   1.00
C247   C     0.49042   0.74771   0.49732   0.00000  Uiso   1.00
C248   C     0.64037   0.67444   0.24466   0.00000  Uiso   1.00
C249   C     0.69076   0.63021   0.26093   0.00000  Uiso   1.00
C250   C     0.75392   0.65286   0.24491   0.00000  Uiso   1.00
C251   C     0.53615   0.67745   0.15017   0.00000  Uiso   1.00
C252   C     0.49893   0.63574   0.08699   0.00000  Uiso   1.00
C253   C     0.47436   0.66092   0.99140   0.00000  Uiso   1.00
H254   H     0.59984   0.82921   0.17594   0.00000  Uiso   1.00
H255   H     0.54441   0.87676   0.34645   0.00000  Uiso   1.00
H256   H     0.72519   0.81169   0.17326   0.00000  Uiso   1.00
H257   H     0.53339   0.81722   0.99935   0.00000  Uiso   1.00
H258   H     0.47758   0.90102   0.54926   0.00000  Uiso   1.00
H259   H     0.85876   0.76379   0.18406   0.00000  Uiso   1.00
H260   H     0.45431   0.77546   0.81733   0.00000  Uiso   1.00
H261   H     0.55819   0.60981   0.28191   0.00000  Uiso   1.00
H262   H     0.50047   0.64533   0.45825   0.00000  Uiso   1.00
H263   H     0.68125   0.58025   0.28506   0.00000  Uiso   1.00
H264   H     0.48945   0.58579   0.11115   0.00000  Uiso   1.00
H265   H     0.44191   0.71317   0.64001   0.00000  Uiso   1.00
H266   H     0.82310   0.57595   0.27480   0.00000  Uiso   1.00
H267   H     0.41865   0.58762   0.90807   0.00000  Uiso   1.00
O268   O     0.42254   0.83442   0.70874   0.00000  Uiso   1.00
O269   O     0.92264   0.65438   0.22958   0.00000  Uiso   1.00
O270   O     0.39202   0.66969   0.74845   0.00000  Uiso   1.00
N271   N     0.47709   0.85193   0.54641   0.00000  Uiso   1.00
N272   N     0.83348   0.72364   0.20498   0.00000  Uiso   1.00
N273   N     0.45537   0.73454   0.86211   0.00000  Uiso   1.00
N274   N     0.45790   0.75086   0.59524   0.00000  Uiso   1.00
N275   N     0.81428   0.62257   0.25381   0.00000  Uiso   1.00
N276   N     0.43618   0.63347   0.91093   0.00000  Uiso   1.00
C277   C     0.90970   0.72106   0.70022   0.00000  Uiso   1.00
C278   C     0.94560   0.72564   0.80755   0.00000  Uiso   1.00
C279   C     0.96509   0.67319   0.87061   0.00000  Uiso   1.00
C280   C     0.99730   0.68761   0.96608   0.00000  Uiso   1.00
C281   C     0.05115   0.68491   0.12802   0.00000  Uiso   1.00
C282   C     0.84738   0.76100   0.71347   0.00000  Uiso   1.00
C283   C     0.78428   0.73828   0.69741   0.00000  Uiso   1.00
C284   C     0.73381   0.78246   0.71366   0.00000  Uiso   1.00
C285   C     0.63516   0.83466   0.72947   0.00000  Uiso   1.00
C286   C     0.95159   0.75799   0.61899   0.00000  Uiso   1.00
C287   C     0.97610   0.73274   0.52346   0.00000  Uiso   1.00
C288   C     0.01336   0.77440   0.46015   0.00000  Uiso   1.00
C289   C     0.07652   0.82193   0.32926   0.00000  Uiso   1.00
C290   C     0.93227   0.83992   0.75763   0.00000  Uiso   1.00
C291   C     0.95785   0.79021   0.83874   0.00000  Uiso   1.00
C292   C     0.99005   0.80470   0.93413   0.00000  Uiso   1.00
C293   C     0.00958   0.75229   0.99732   0.00000  Uiso   1.00
C294   C     0.85963   0.82556   0.74466   0.00000  Uiso   1.00
C295   C     0.80924   0.86979   0.76093   0.00000  Uiso   1.00
C296   C     0.74608   0.84714   0.74491   0.00000  Uiso   1.00
C297   C     0.96385   0.82255   0.65017   0.00000  Uiso   1.00
C298   C     0.00107   0.86426   0.58699   0.00000  Uiso   1.00
C299   C     0.02564   0.83908   0.49140   0.00000  Uiso   1.00
H300   H     0.90016   0.67079   0.67594   0.00000  Uiso   1.00
H301   H     0.95559   0.62324   0.84645   0.00000  Uiso   1.00
H302   H     0.77481   0.68831   0.67326   0.00000  Uiso   1.00
H303   H     0.96661   0.68278   0.49935   0.00000  Uiso   1.00
H304   H     0.02242   0.59898   0.04926   0.00000  Uiso   1.00
H305   H     0.64124   0.73621   0.68406   0.00000  Uiso   1.00
H306   H     0.04569   0.72454   0.31733   0.00000  Uiso   1.00
H307   H     0.94181   0.89019   0.78191   0.00000  Uiso   1.00
H308   H     0.99953   0.85467   0.95825   0.00000  Uiso   1.00
H309   H     0.81875   0.91975   0.78506   0.00000  Uiso   1.00
H310   H     0.01055   0.91421   0.61115   0.00000  Uiso   1.00
H311   H     0.05809   0.78683   0.14001   0.00000  Uiso   1.00
H312   H     0.67690   0.92405   0.77480   0.00000  Uiso   1.00
H313   H     0.08135   0.91238   0.40807   0.00000  Uiso   1.00
O314   O     0.07746   0.66558   0.20874   0.00000  Uiso   1.00
O315   O     0.57736   0.84562   0.72958   0.00000  Uiso   1.00
O316   O     0.10798   0.83031   0.24845   0.00000  Uiso   1.00
N317   N     0.02291   0.64807   0.04641   0.00000  Uiso   1.00
N318   N     0.66652   0.77636   0.70498   0.00000  Uiso   1.00
N319   N     0.04463   0.76546   0.36211   0.00000  Uiso   1.00
N320   N     0.04210   0.74914   0.09524   0.00000  Uiso   1.00
N321   N     0.68572   0.87743   0.75381   0.00000  Uiso   1.00
N322   N     0.06382   0.86653   0.41093   0.00000  Uiso   1.00
C323   C     0.40970   0.22106   0.20022   0.00000  Uiso   1.00
C324   C     0.44560   0.22564   0.30755   0.00000  Uiso   1.00
C325   C     0.46509   0.17319   0.37061   0.00000  Uiso   1.00
C326   C     0.49730   0.18761   0.46608   0.00000  Uiso   1.00
C327   C     0.55115   0.18491   0.62802   0.00000  Uiso   1.00
C328   C     0.34738   0.26100   0.21347   0.00000  Uiso   1.00
C329   C     0.28428   0.23828   0.19741   0.00000  Uiso   1.00
C330   C     0.23381   0.28246   0.21366   0.00000  Uiso   1.00
C331   C     0.13516   0.33466   0.22947   0.00000  Uiso   1.00
C332   C     0.45159   0.25799   0.11899   0.00000  Uiso   1.00
C333   C     0.47610   0.23274   0.02346   0.00000  Uiso   1.00
C334   C     0.51336   0.27440   0.96015   0.00000  Uiso   1.00
C335   C     0.57652   0.32193   0.82926   0.00000  Uiso   1.00
C336   C     0.43227   0.33992   0.25763   0.00000  Uiso   1.00
C337   C     0.45785   0.29021   0.33874   0.00000  Uiso   1.00
C338   C     0.49005   0.30470   0.43413   0.00000  Uiso   1.00
C339   C     0.50958   0.25229   0.49732   0.00000  Uiso   1.00
C340   C     0.35963   0.32556   0.24466   0.00000  Uiso   1.00
C341   C     0.30924   0.36979   0.26093   0.00000  Uiso   1.00
C342   C     0.24608   0.34714   0.24491   0.00000  Uiso   1.00
C343   C     0.46385   0.32255   0.15017   0.00000  Uiso   1.00
C344   C     0.50107   0.36426   0.08699   0.00000  Uiso   1.00
C345   C     0.52564   0.33908   0.99140   0.00000  Uiso   1.00
H346   H     0.40016   0.17079   0.17594   0.00000  Uiso   1.00
H347   H     0.45559   0.12324   0.34645   0.00000  Uiso   1.00
H348   H     0.27481   0.18831   0.17326   0.00000  Uiso   1.00
H349   H     0.46661   0.18278   0.99935   0.00000  Uiso   1.00
H350   H     0.52242   0.09898   0.54926   0.00000  Uiso   1.00
H351   H     0.14124   0.23621   0.18406   0.00000  Uiso   1.00
H352   H     0.54569   0.22454   0.81733   0.00000  Uiso   1.00
H353   H     0.44181   0.39019   0.28191   0.00000  Uiso   1.00
H354   H     0.49953   0.35467   0.45825   0.00000  Uiso   1.00
H355   H     0.31875   0.41975   0.28506   0.00000  Uiso   1.00
H356   H     0.51055   0.41421   0.11115   0.00000  Uiso   1.00
H357   H     0.55809   0.28683   0.64001   0.00000  Uiso   1.00
H358   H     0.17690   0.42405   0.27480   0.00000  Uiso   1.00
H359   H     0.58135   0.41238   0.90807   0.00000  Uiso   1.00
O360   O     0.57746   0.16558   0.70874   0.00000  Uiso   1.00
O361   O     0.07736   0.34562   0.22958   0.00000  Uiso   1.00
O362   O     0.60798   0.33031   0.74845   0.00000  Uiso   1.00
N363   N     0.52291   0.14807   0.54641   0.00000  Uiso   1.00
N364   N     0.16652   0.27636   0.20498   0.00000  Uiso   1.00
N365   N     0.54463   0.26546   0.86211   0.00000  Uiso   1.00
N366   N     0.54210   0.24914   0.59524   0.00000  Uiso   1.00
N367   N     0.18572   0.37743   0.25381   0.00000  Uiso   1.00
N368   N     0.56382   0.36653   0.91093   0.00000  Uiso   1.00
