data_job_02313
_audit_creation_date              2018-12-19
_audit_creation_method            'Materials Studio'
_symmetry_space_group_name_H-M    'P1'
_symmetry_Int_Tables_number       1
_symmetry_cell_setting            triclinic
loop_
_symmetry_equiv_pos_as_xyz
  x,y,z
_cell_length_a                    23.3860
_cell_length_b                    13.3840
_cell_length_c                    11.9343
_cell_angle_alpha                 90.0000
_cell_angle_beta                  90.0000
_cell_angle_gamma                 90.0000
loop_
_atom_site_label
_atom_site_type_symbol
_atom_site_fract_x
_atom_site_fract_y
_atom_site_fract_z
_atom_site_U_iso_or_equiv
_atom_site_adp_type
_atom_site_occupancy
C1     C     0.29718   0.36178   0.27013   0.00000  Uiso   1.00
C2     C     0.33388   0.38651   0.37204   0.00000  Uiso   1.00
C3     C     0.37061   0.32106   0.42637   0.00000  Uiso   1.00
C4     C     0.40041   0.35804   0.51805   0.00000  Uiso   1.00
C5     C     0.45840   0.38138   0.67085   0.00000  Uiso   1.00
C6     C     0.23576   0.38594   0.30345   0.00000  Uiso   1.00
C7     C     0.19000   0.31999   0.30009   0.00000  Uiso   1.00
C8     C     0.13719   0.35649   0.33402   0.00000  Uiso   1.00
C9     C     0.04284   0.37896   0.38025   0.00000  Uiso   1.00
C10    C     0.31338   0.43768   0.18029   0.00000  Uiso   1.00
C11    C     0.33286   0.41525   0.07336   0.00000  Uiso   1.00
C12    C     0.34539   0.49532   0.00359   0.00000  Uiso   1.00
C13    C     0.37157   0.59812   0.85859   0.00000  Uiso   1.00
C14    C     0.28477   0.54387   0.33633   0.00000  Uiso   1.00
C15    C     0.32714   0.48542   0.40799   0.00000  Uiso   1.00
C16    C     0.35689   0.52251   0.49961   0.00000  Uiso   1.00
C17    C     0.39366   0.45712   0.55407   0.00000  Uiso   1.00
C18    C     0.22902   0.48483   0.33940   0.00000  Uiso   1.00
C19    C     0.17627   0.52145   0.37334   0.00000  Uiso   1.00
C20    C     0.13044   0.45557   0.37004   0.00000  Uiso   1.00
C21    C     0.30664   0.53658   0.21624   0.00000  Uiso   1.00
C22    C     0.31914   0.61671   0.14661   0.00000  Uiso   1.00
C23    C     0.33864   0.59440   0.03961   0.00000  Uiso   1.00
H24    H     0.30242   0.28478   0.24214   0.00000  Uiso   1.00
H25    H     0.37581   0.24452   0.39852   0.00000  Uiso   1.00
H26    H     0.19522   0.24346   0.27226   0.00000  Uiso   1.00
H27    H     0.33807   0.33870   0.04557   0.00000  Uiso   1.00
H28    H     0.45419   0.24348   0.58779   0.00000  Uiso   1.00
H29    H     0.07341   0.24126   0.32151   0.00000  Uiso   1.00
H30    H     0.37463   0.44210   0.84349   0.00000  Uiso   1.00
H31    H     0.27952   0.62087   0.36432   0.00000  Uiso   1.00
H32    H     0.35166   0.59905   0.52742   0.00000  Uiso   1.00
H33    H     0.17107   0.59799   0.40115   0.00000  Uiso   1.00
H34    H     0.31392   0.69323   0.17446   0.00000  Uiso   1.00
H35    H     0.43459   0.53124   0.69241   0.00000  Uiso   1.00
H36    H     0.05380   0.52901   0.42612   0.00000  Uiso   1.00
H37    H     0.35503   0.72985   0.94811   0.00000  Uiso   1.00
O38    O     0.49224   0.36693   0.74520   0.00000  Uiso   1.00
O39    O     0.99267   0.36401   0.39583   0.00000  Uiso   1.00
O40    O     0.38787   0.62751   0.76869   0.00000  Uiso   1.00
N41    N     0.43969   0.31421   0.59001   0.00000  Uiso   1.00
N42    N     0.08368   0.31212   0.34108   0.00000  Uiso   1.00
N43    N     0.36528   0.49989   0.89415   0.00000  Uiso   1.00
N44    N     0.42914   0.46904   0.64631   0.00000  Uiso   1.00
N45    N     0.07313   0.46696   0.39737   0.00000  Uiso   1.00
N46    N     0.35474   0.65472   0.95045   0.00000  Uiso   1.00
C47    C     0.70282   0.63822   0.27013   0.00000  Uiso   1.00
C48    C     0.66612   0.61349   0.37204   0.00000  Uiso   1.00
C49    C     0.62939   0.67894   0.42637   0.00000  Uiso   1.00
C50    C     0.59959   0.64196   0.51805   0.00000  Uiso   1.00
C51    C     0.54160   0.61862   0.67085   0.00000  Uiso   1.00
C52    C     0.76424   0.61406   0.30345   0.00000  Uiso   1.00
C53    C     0.81000   0.68001   0.30009   0.00000  Uiso   1.00
C54    C     0.86281   0.64351   0.33402   0.00000  Uiso   1.00
C55    C     0.95716   0.62104   0.38025   0.00000  Uiso   1.00
C56    C     0.68662   0.56232   0.18029   0.00000  Uiso   1.00
C57    C     0.66714   0.58475   0.07336   0.00000  Uiso   1.00
C58    C     0.65461   0.50468   0.00359   0.00000  Uiso   1.00
C59    C     0.62843   0.40188   0.85859   0.00000  Uiso   1.00
C60    C     0.71523   0.45613   0.33633   0.00000  Uiso   1.00
C61    C     0.67286   0.51458   0.40799   0.00000  Uiso   1.00
C62    C     0.64311   0.47749   0.49961   0.00000  Uiso   1.00
C63    C     0.60634   0.54288   0.55407   0.00000  Uiso   1.00
C64    C     0.77098   0.51517   0.33940   0.00000  Uiso   1.00
C65    C     0.82373   0.47855   0.37334   0.00000  Uiso   1.00
C66    C     0.86956   0.54443   0.37004   0.00000  Uiso   1.00
C67    C     0.69336   0.46342   0.21624   0.00000  Uiso   1.00
C68    C     0.68086   0.38329   0.14661   0.00000  Uiso   1.00
C69    C     0.66136   0.40560   0.03961   0.00000  Uiso   1.00
H70    H     0.69758   0.71522   0.24214   0.00000  Uiso   1.00
H71    H     0.62419   0.75548   0.39852   0.00000  Uiso   1.00
H72    H     0.80478   0.75654   0.27226   0.00000  Uiso   1.00
H73    H     0.66193   0.66130   0.04557   0.00000  Uiso   1.00
H74    H     0.54581   0.75652   0.58779   0.00000  Uiso   1.00
H75    H     0.92659   0.75874   0.32151   0.00000  Uiso   1.00
H76    H     0.62537   0.55790   0.84349   0.00000  Uiso   1.00
H77    H     0.72048   0.37913   0.36432   0.00000  Uiso   1.00
H78    H     0.64834   0.40095   0.52742   0.00000  Uiso   1.00
H79    H     0.82893   0.40201   0.40115   0.00000  Uiso   1.00
H80    H     0.68608   0.30677   0.17446   0.00000  Uiso   1.00
H81    H     0.56541   0.46876   0.69241   0.00000  Uiso   1.00
H82    H     0.94620   0.47099   0.42612   0.00000  Uiso   1.00
H83    H     0.64497   0.27015   0.94811   0.00000  Uiso   1.00
O84    O     0.50776   0.63307   0.74520   0.00000  Uiso   1.00
O85    O     0.00733   0.63599   0.39583   0.00000  Uiso   1.00
O86    O     0.61213   0.37249   0.76869   0.00000  Uiso   1.00
N87    N     0.56031   0.68579   0.59001   0.00000  Uiso   1.00
N88    N     0.91632   0.68788   0.34108   0.00000  Uiso   1.00
N89    N     0.63472   0.50011   0.89415   0.00000  Uiso   1.00
N90    N     0.57086   0.53096   0.64631   0.00000  Uiso   1.00
N91    N     0.92687   0.53304   0.39737   0.00000  Uiso   1.00
N92    N     0.64526   0.34528   0.95045   0.00000  Uiso   1.00
C93    C     0.20282   0.86178   0.72987   0.00000  Uiso   1.00
C94    C     0.16612   0.88651   0.62796   0.00000  Uiso   1.00
C95    C     0.12939   0.82106   0.57363   0.00000  Uiso   1.00
C96    C     0.09959   0.85804   0.48195   0.00000  Uiso   1.00
C97    C     0.04160   0.88138   0.32915   0.00000  Uiso   1.00
C98    C     0.26424   0.88594   0.69655   0.00000  Uiso   1.00
C99    C     0.31000   0.81999   0.69991   0.00000  Uiso   1.00
C100   C     0.36281   0.85649   0.66598   0.00000  Uiso   1.00
C101   C     0.45716   0.87896   0.61975   0.00000  Uiso   1.00
C102   C     0.18662   0.93768   0.81971   0.00000  Uiso   1.00
C103   C     0.16714   0.91525   0.92664   0.00000  Uiso   1.00
C104   C     0.15461   0.99532   0.99641   0.00000  Uiso   1.00
C105   C     0.12843   0.09812   0.14141   0.00000  Uiso   1.00
C106   C     0.21523   0.04387   0.66367   0.00000  Uiso   1.00
C107   C     0.17286   0.98542   0.59201   0.00000  Uiso   1.00
C108   C     0.14311   0.02251   0.50039   0.00000  Uiso   1.00
C109   C     0.10634   0.95712   0.44593   0.00000  Uiso   1.00
C110   C     0.27098   0.98483   0.66060   0.00000  Uiso   1.00
C111   C     0.32373   0.02145   0.62666   0.00000  Uiso   1.00
C112   C     0.36956   0.95557   0.62996   0.00000  Uiso   1.00
C113   C     0.19336   0.03658   0.78376   0.00000  Uiso   1.00
C114   C     0.18086   0.11671   0.85339   0.00000  Uiso   1.00
C115   C     0.16136   0.09440   0.96039   0.00000  Uiso   1.00
H116   H     0.19758   0.78478   0.75786   0.00000  Uiso   1.00
H117   H     0.12419   0.74452   0.60148   0.00000  Uiso   1.00
H118   H     0.30478   0.74346   0.72774   0.00000  Uiso   1.00
H119   H     0.16193   0.83870   0.95443   0.00000  Uiso   1.00
H120   H     0.04581   0.74348   0.41221   0.00000  Uiso   1.00
H121   H     0.42659   0.74126   0.67849   0.00000  Uiso   1.00
H122   H     0.12537   0.94210   0.15651   0.00000  Uiso   1.00
H123   H     0.22048   0.12087   0.63568   0.00000  Uiso   1.00
H124   H     0.14834   0.09905   0.47258   0.00000  Uiso   1.00
H125   H     0.32893   0.09799   0.59885   0.00000  Uiso   1.00
H126   H     0.18608   0.19323   0.82554   0.00000  Uiso   1.00
H127   H     0.06541   0.03124   0.30759   0.00000  Uiso   1.00
H128   H     0.44620   0.02901   0.57388   0.00000  Uiso   1.00
H129   H     0.14497   0.22985   0.05189   0.00000  Uiso   1.00
O130   O     0.00776   0.86693   0.25480   0.00000  Uiso   1.00
O131   O     0.50733   0.86401   0.60417   0.00000  Uiso   1.00
O132   O     0.11213   0.12751   0.23131   0.00000  Uiso   1.00
N133   N     0.06031   0.81421   0.40999   0.00000  Uiso   1.00
N134   N     0.41632   0.81212   0.65892   0.00000  Uiso   1.00
N135   N     0.13472   0.99989   0.10585   0.00000  Uiso   1.00
N136   N     0.07086   0.96904   0.35369   0.00000  Uiso   1.00
N137   N     0.42687   0.96696   0.60263   0.00000  Uiso   1.00
N138   N     0.14526   0.15472   0.04955   0.00000  Uiso   1.00
C139   C     0.79718   0.13822   0.72987   0.00000  Uiso   1.00
C140   C     0.83388   0.11349   0.62796   0.00000  Uiso   1.00
C141   C     0.87061   0.17894   0.57363   0.00000  Uiso   1.00
C142   C     0.90040   0.14196   0.48195   0.00000  Uiso   1.00
C143   C     0.95840   0.11862   0.32915   0.00000  Uiso   1.00
C144   C     0.73576   0.11406   0.69655   0.00000  Uiso   1.00
C145   C     0.69000   0.18001   0.69991   0.00000  Uiso   1.00
C146   C     0.63719   0.14351   0.66598   0.00000  Uiso   1.00
C147   C     0.54284   0.12104   0.61975   0.00000  Uiso   1.00
C148   C     0.81338   0.06232   0.81971   0.00000  Uiso   1.00
C149   C     0.83286   0.08475   0.92664   0.00000  Uiso   1.00
C150   C     0.84539   0.00468   0.99641   0.00000  Uiso   1.00
C151   C     0.87157   0.90188   0.14141   0.00000  Uiso   1.00
C152   C     0.78477   0.95613   0.66367   0.00000  Uiso   1.00
C153   C     0.82714   0.01458   0.59201   0.00000  Uiso   1.00
C154   C     0.85689   0.97749   0.50039   0.00000  Uiso   1.00
C155   C     0.89366   0.04288   0.44593   0.00000  Uiso   1.00
C156   C     0.72902   0.01517   0.66060   0.00000  Uiso   1.00
C157   C     0.67627   0.97855   0.62666   0.00000  Uiso   1.00
C158   C     0.63044   0.04443   0.62996   0.00000  Uiso   1.00
C159   C     0.80664   0.96342   0.78376   0.00000  Uiso   1.00
C160   C     0.81914   0.88329   0.85339   0.00000  Uiso   1.00
C161   C     0.83864   0.90560   0.96039   0.00000  Uiso   1.00
H162   H     0.80242   0.21522   0.75786   0.00000  Uiso   1.00
H163   H     0.87581   0.25548   0.60148   0.00000  Uiso   1.00
H164   H     0.69522   0.25654   0.72774   0.00000  Uiso   1.00
H165   H     0.83807   0.16130   0.95443   0.00000  Uiso   1.00
H166   H     0.95419   0.25652   0.41221   0.00000  Uiso   1.00
H167   H     0.57341   0.25874   0.67849   0.00000  Uiso   1.00
H168   H     0.87463   0.05790   0.15651   0.00000  Uiso   1.00
H169   H     0.77952   0.87913   0.63568   0.00000  Uiso   1.00
H170   H     0.85166   0.90095   0.47258   0.00000  Uiso   1.00
H171   H     0.67107   0.90201   0.59885   0.00000  Uiso   1.00
H172   H     0.81392   0.80677   0.82554   0.00000  Uiso   1.00
H173   H     0.93459   0.96876   0.30759   0.00000  Uiso   1.00
H174   H     0.55380   0.97099   0.57388   0.00000  Uiso   1.00
H175   H     0.85503   0.77015   0.05189   0.00000  Uiso   1.00
O176   O     0.99224   0.13307   0.25480   0.00000  Uiso   1.00
O177   O     0.49267   0.13599   0.60417   0.00000  Uiso   1.00
O178   O     0.88787   0.87249   0.23131   0.00000  Uiso   1.00
N179   N     0.93969   0.18579   0.40999   0.00000  Uiso   1.00
N180   N     0.58368   0.18788   0.65892   0.00000  Uiso   1.00
N181   N     0.86528   0.00011   0.10585   0.00000  Uiso   1.00
N182   N     0.92914   0.03096   0.35369   0.00000  Uiso   1.00
N183   N     0.57313   0.03304   0.60263   0.00000  Uiso   1.00
N184   N     0.85474   0.84528   0.04955   0.00000  Uiso   1.00
