data_job_01095
_audit_creation_date              2018-12-19
_audit_creation_method            'Materials Studio'
_symmetry_space_group_name_H-M    'P1'
_symmetry_Int_Tables_number       1
_symmetry_cell_setting            triclinic
loop_
_symmetry_equiv_pos_as_xyz
  x,y,z
_cell_length_a                    30.2329
_cell_length_b                    23.2275
_cell_length_c                    29.3518
_cell_angle_alpha                 90.0000
_cell_angle_beta                  166.1134
_cell_angle_gamma                 90.0000
loop_
_atom_site_label
_atom_site_type_symbol
_atom_site_fract_x
_atom_site_fract_y
_atom_site_fract_z
_atom_site_U_iso_or_equiv
_atom_site_adp_type
_atom_site_occupancy
C1     C     0.07228   0.43070   0.70797   0.00000  Uiso   1.00
C2     C     0.15356   0.48286   0.81356   0.00000  Uiso   1.00
C3     C     0.05358   0.52675   0.73405   0.00000  Uiso   1.00
C4     C     0.15355   0.57066   0.85448   0.00000  Uiso   1.00
C5     C     0.25038   0.65168   0.98906   0.00000  Uiso   1.00
C6     C     0.15343   0.43123   0.74119   0.00000  Uiso   1.00
C7     C     0.05334   0.43169   0.60082   0.00000  Uiso   1.00
C8     C     0.15322   0.43213   0.66035   0.00000  Uiso   1.00
C9     C     0.24987   0.43294   0.68256   0.00000  Uiso   1.00
C10    C     0.15337   0.37798   0.81264   0.00000  Uiso   1.00
C11    C     0.05324   0.33366   0.73234   0.00000  Uiso   1.00
C12    C     0.15307   0.28925   0.85201   0.00000  Uiso   1.00
C13    C     0.24962   0.20738   0.98516   0.00000  Uiso   1.00
C14    C     0.42763   0.43064   0.06327   0.00000  Uiso   1.00
C15    C     0.34656   0.48283   0.00655   0.00000  Uiso   1.00
C16    C     0.44672   0.52669   0.12714   0.00000  Uiso   1.00
C17    C     0.34690   0.57063   0.04781   0.00000  Uiso   1.00
C18    C     0.34643   0.43120   0.93417   0.00000  Uiso   1.00
C19    C     0.44649   0.43163   0.99392   0.00000  Uiso   1.00
C20    C     0.34658   0.43210   0.85368   0.00000  Uiso   1.00
C21    C     0.34638   0.37794   0.00563   0.00000  Uiso   1.00
C22    C     0.44639   0.33360   0.12544   0.00000  Uiso   1.00
C23    C     0.34643   0.28922   0.04534   0.00000  Uiso   1.00
H24    H     0.92202   0.43073   0.55773   0.00000  Uiso   1.00
H25    H     0.90421   0.52676   0.58469   0.00000  Uiso   1.00
H26    H     0.90399   0.43172   0.45149   0.00000  Uiso   1.00
H27    H     0.90388   0.33370   0.58299   0.00000  Uiso   1.00
H28    H     0.96958   0.63324   0.69967   0.00000  Uiso   1.00
H29    H     0.96910   0.43280   0.41882   0.00000  Uiso   1.00
H30    H     0.96888   0.22611   0.69611   0.00000  Uiso   1.00
H31    H     0.57790   0.43061   0.21352   0.00000  Uiso   1.00
H32    H     0.59608   0.52665   0.27648   0.00000  Uiso   1.00
H33    H     0.59584   0.43160   0.14327   0.00000  Uiso   1.00
H34    H     0.59574   0.33358   0.27477   0.00000  Uiso   1.00
H35    H     0.53112   0.63314   0.26115   0.00000  Uiso   1.00
H36    H     0.53064   0.43270   0.98029   0.00000  Uiso   1.00
H37    H     0.53043   0.22602   0.25758   0.00000  Uiso   1.00
O38    O     0.25048   0.69638   0.00997   0.00000  Uiso   1.00
O39    O     0.24985   0.43340   0.64150   0.00000  Uiso   1.00
O40    O     0.24956   0.16223   0.00530   0.00000  Uiso   1.00
N41    N     0.09925   0.62003   0.82318   0.00000  Uiso   1.00
N42    N     0.09880   0.43264   0.56060   0.00000  Uiso   1.00
N43    N     0.09859   0.23940   0.81983   0.00000  Uiso   1.00
N44    N     0.40141   0.61998   0.12531   0.00000  Uiso   1.00
N45    N     0.40096   0.43259   0.86273   0.00000  Uiso   1.00
N46    N     0.40075   0.23935   0.12196   0.00000  Uiso   1.00
C47    C     0.92772   0.93070   0.79203   0.00000  Uiso   1.00
C48    C     0.84644   0.98286   0.68644   0.00000  Uiso   1.00
C49    C     0.94642   0.02675   0.76595   0.00000  Uiso   1.00
C50    C     0.84645   0.07066   0.64552   0.00000  Uiso   1.00
C51    C     0.74962   0.15168   0.51094   0.00000  Uiso   1.00
C52    C     0.84657   0.93123   0.75881   0.00000  Uiso   1.00
C53    C     0.94666   0.93169   0.89918   0.00000  Uiso   1.00
C54    C     0.84678   0.93213   0.83965   0.00000  Uiso   1.00
C55    C     0.75013   0.93294   0.81744   0.00000  Uiso   1.00
C56    C     0.84663   0.87798   0.68736   0.00000  Uiso   1.00
C57    C     0.94676   0.83366   0.76766   0.00000  Uiso   1.00
C58    C     0.84693   0.78925   0.64799   0.00000  Uiso   1.00
C59    C     0.75038   0.70738   0.51484   0.00000  Uiso   1.00
C60    C     0.57237   0.93064   0.43673   0.00000  Uiso   1.00
C61    C     0.65344   0.98283   0.49345   0.00000  Uiso   1.00
C62    C     0.55328   0.02669   0.37286   0.00000  Uiso   1.00
C63    C     0.65310   0.07063   0.45219   0.00000  Uiso   1.00
C64    C     0.65357   0.93120   0.56583   0.00000  Uiso   1.00
C65    C     0.55351   0.93163   0.50608   0.00000  Uiso   1.00
C66    C     0.65342   0.93210   0.64632   0.00000  Uiso   1.00
C67    C     0.65362   0.87794   0.49437   0.00000  Uiso   1.00
C68    C     0.55361   0.83360   0.37456   0.00000  Uiso   1.00
C69    C     0.65357   0.78922   0.45466   0.00000  Uiso   1.00
H70    H     0.07798   0.93073   0.94227   0.00000  Uiso   1.00
H71    H     0.09579   0.02676   0.91531   0.00000  Uiso   1.00
H72    H     0.09601   0.93172   0.04851   0.00000  Uiso   1.00
H73    H     0.09612   0.83370   0.91701   0.00000  Uiso   1.00
H74    H     0.03042   0.13324   0.80033   0.00000  Uiso   1.00
H75    H     0.03090   0.93280   0.08118   0.00000  Uiso   1.00
H76    H     0.03112   0.72611   0.80389   0.00000  Uiso   1.00
H77    H     0.42210   0.93061   0.28648   0.00000  Uiso   1.00
H78    H     0.40392   0.02665   0.22352   0.00000  Uiso   1.00
H79    H     0.40416   0.93160   0.35673   0.00000  Uiso   1.00
H80    H     0.40426   0.83358   0.22523   0.00000  Uiso   1.00
H81    H     0.46888   0.13314   0.23885   0.00000  Uiso   1.00
H82    H     0.46936   0.93270   0.51971   0.00000  Uiso   1.00
H83    H     0.46957   0.72602   0.24242   0.00000  Uiso   1.00
O84    O     0.74952   0.19638   0.49003   0.00000  Uiso   1.00
O85    O     0.75015   0.93340   0.85850   0.00000  Uiso   1.00
O86    O     0.75044   0.66223   0.49470   0.00000  Uiso   1.00
N87    N     0.90075   0.12003   0.67682   0.00000  Uiso   1.00
N88    N     0.90120   0.93264   0.93940   0.00000  Uiso   1.00
N89    N     0.90141   0.73940   0.68017   0.00000  Uiso   1.00
N90    N     0.59859   0.11998   0.37469   0.00000  Uiso   1.00
N91    N     0.59904   0.93259   0.63727   0.00000  Uiso   1.00
N92    N     0.59925   0.73935   0.37804   0.00000  Uiso   1.00
C93    C     0.92772   0.56930   0.29203   0.00000  Uiso   1.00
C94    C     0.84644   0.51714   0.18644   0.00000  Uiso   1.00
C95    C     0.94642   0.47325   0.26595   0.00000  Uiso   1.00
C96    C     0.84645   0.42934   0.14552   0.00000  Uiso   1.00
C97    C     0.74962   0.34832   0.01094   0.00000  Uiso   1.00
C98    C     0.84657   0.56877   0.25881   0.00000  Uiso   1.00
C99    C     0.94666   0.56831   0.39918   0.00000  Uiso   1.00
C100   C     0.84678   0.56787   0.33965   0.00000  Uiso   1.00
C101   C     0.75013   0.56706   0.31744   0.00000  Uiso   1.00
C102   C     0.84663   0.62202   0.18736   0.00000  Uiso   1.00
C103   C     0.94676   0.66634   0.26766   0.00000  Uiso   1.00
C104   C     0.84693   0.71075   0.14799   0.00000  Uiso   1.00
C105   C     0.75038   0.79262   0.01484   0.00000  Uiso   1.00
C106   C     0.57237   0.56936   0.93673   0.00000  Uiso   1.00
C107   C     0.65344   0.51717   0.99345   0.00000  Uiso   1.00
C108   C     0.55328   0.47331   0.87286   0.00000  Uiso   1.00
C109   C     0.65310   0.42937   0.95219   0.00000  Uiso   1.00
C110   C     0.65357   0.56880   0.06583   0.00000  Uiso   1.00
C111   C     0.55351   0.56837   0.00608   0.00000  Uiso   1.00
C112   C     0.65342   0.56790   0.14632   0.00000  Uiso   1.00
C113   C     0.65362   0.62206   0.99437   0.00000  Uiso   1.00
C114   C     0.55361   0.66640   0.87456   0.00000  Uiso   1.00
C115   C     0.65357   0.71078   0.95466   0.00000  Uiso   1.00
H116   H     0.07798   0.56927   0.44227   0.00000  Uiso   1.00
H117   H     0.09579   0.47324   0.41531   0.00000  Uiso   1.00
H118   H     0.09601   0.56828   0.54851   0.00000  Uiso   1.00
H119   H     0.09612   0.66630   0.41701   0.00000  Uiso   1.00
H120   H     0.03042   0.36676   0.30033   0.00000  Uiso   1.00
H121   H     0.03090   0.56720   0.58118   0.00000  Uiso   1.00
H122   H     0.03112   0.77389   0.30389   0.00000  Uiso   1.00
H123   H     0.42210   0.56939   0.78648   0.00000  Uiso   1.00
H124   H     0.40392   0.47335   0.72352   0.00000  Uiso   1.00
H125   H     0.40416   0.56840   0.85673   0.00000  Uiso   1.00
H126   H     0.40426   0.66642   0.72523   0.00000  Uiso   1.00
H127   H     0.46888   0.36686   0.73885   0.00000  Uiso   1.00
H128   H     0.46936   0.56730   0.01971   0.00000  Uiso   1.00
H129   H     0.46957   0.77398   0.74242   0.00000  Uiso   1.00
O130   O     0.74952   0.30362   0.99003   0.00000  Uiso   1.00
O131   O     0.75015   0.56660   0.35850   0.00000  Uiso   1.00
O132   O     0.75044   0.83777   0.99470   0.00000  Uiso   1.00
N133   N     0.90075   0.37997   0.17682   0.00000  Uiso   1.00
N134   N     0.90120   0.56736   0.43940   0.00000  Uiso   1.00
N135   N     0.90141   0.76060   0.18017   0.00000  Uiso   1.00
N136   N     0.59859   0.38002   0.87469   0.00000  Uiso   1.00
N137   N     0.59904   0.56741   0.13727   0.00000  Uiso   1.00
N138   N     0.59925   0.76065   0.87804   0.00000  Uiso   1.00
C139   C     0.07228   0.06930   0.20797   0.00000  Uiso   1.00
C140   C     0.15356   0.01714   0.31356   0.00000  Uiso   1.00
C141   C     0.05358   0.97325   0.23405   0.00000  Uiso   1.00
C142   C     0.15355   0.92934   0.35448   0.00000  Uiso   1.00
C143   C     0.25038   0.84832   0.48906   0.00000  Uiso   1.00
C144   C     0.15343   0.06877   0.24119   0.00000  Uiso   1.00
C145   C     0.05334   0.06831   0.10082   0.00000  Uiso   1.00
C146   C     0.15322   0.06787   0.16035   0.00000  Uiso   1.00
C147   C     0.24987   0.06706   0.18256   0.00000  Uiso   1.00
C148   C     0.15337   0.12202   0.31264   0.00000  Uiso   1.00
C149   C     0.05324   0.16634   0.23234   0.00000  Uiso   1.00
C150   C     0.15307   0.21075   0.35201   0.00000  Uiso   1.00
C151   C     0.24962   0.29262   0.48516   0.00000  Uiso   1.00
C152   C     0.42763   0.06936   0.56327   0.00000  Uiso   1.00
C153   C     0.34656   0.01717   0.50655   0.00000  Uiso   1.00
C154   C     0.44672   0.97331   0.62714   0.00000  Uiso   1.00
C155   C     0.34690   0.92937   0.54781   0.00000  Uiso   1.00
C156   C     0.34643   0.06880   0.43417   0.00000  Uiso   1.00
C157   C     0.44649   0.06837   0.49392   0.00000  Uiso   1.00
C158   C     0.34658   0.06790   0.35368   0.00000  Uiso   1.00
C159   C     0.34638   0.12206   0.50563   0.00000  Uiso   1.00
C160   C     0.44639   0.16640   0.62544   0.00000  Uiso   1.00
C161   C     0.34643   0.21078   0.54534   0.00000  Uiso   1.00
H162   H     0.92202   0.06927   0.05773   0.00000  Uiso   1.00
H163   H     0.90421   0.97324   0.08469   0.00000  Uiso   1.00
H164   H     0.90399   0.06828   0.95149   0.00000  Uiso   1.00
H165   H     0.90388   0.16630   0.08299   0.00000  Uiso   1.00
H166   H     0.96958   0.86676   0.19967   0.00000  Uiso   1.00
H167   H     0.96910   0.06720   0.91882   0.00000  Uiso   1.00
H168   H     0.96888   0.27389   0.19611   0.00000  Uiso   1.00
H169   H     0.57790   0.06939   0.71352   0.00000  Uiso   1.00
H170   H     0.59608   0.97335   0.77648   0.00000  Uiso   1.00
H171   H     0.59584   0.06840   0.64327   0.00000  Uiso   1.00
H172   H     0.59574   0.16642   0.77477   0.00000  Uiso   1.00
H173   H     0.53112   0.86686   0.76115   0.00000  Uiso   1.00
H174   H     0.53064   0.06730   0.48029   0.00000  Uiso   1.00
H175   H     0.53043   0.27398   0.75758   0.00000  Uiso   1.00
O176   O     0.25048   0.80362   0.50997   0.00000  Uiso   1.00
O177   O     0.24985   0.06660   0.14150   0.00000  Uiso   1.00
O178   O     0.24956   0.33777   0.50530   0.00000  Uiso   1.00
N179   N     0.09925   0.87997   0.32318   0.00000  Uiso   1.00
N180   N     0.09880   0.06736   0.06060   0.00000  Uiso   1.00
N181   N     0.09859   0.26060   0.31983   0.00000  Uiso   1.00
N182   N     0.40141   0.88002   0.62531   0.00000  Uiso   1.00
N183   N     0.40096   0.06741   0.36273   0.00000  Uiso   1.00
N184   N     0.40075   0.26065   0.62196   0.00000  Uiso   1.00
