data_job_06754
_audit_creation_date              2018-12-19
_audit_creation_method            'Materials Studio'
_symmetry_space_group_name_H-M    'P1'
_symmetry_Int_Tables_number       1
_symmetry_cell_setting            triclinic
loop_
_symmetry_equiv_pos_as_xyz
  x,y,z
_cell_length_a                    20.5616
_cell_length_b                    20.7323
_cell_length_c                    22.9420
_cell_angle_alpha                 111.6973
_cell_angle_beta                  67.3919
_cell_angle_gamma                 109.9103
loop_
_atom_site_label
_atom_site_type_symbol
_atom_site_fract_x
_atom_site_fract_y
_atom_site_fract_z
_atom_site_U_iso_or_equiv
_atom_site_adp_type
_atom_site_occupancy
C1     C     0.92503   0.77109   0.69351   0.00000  Uiso   1.00
C2     C     0.00347   0.76478   0.66875   0.00000  Uiso   1.00
C3     C     0.06259   0.81005   0.63740   0.00000  Uiso   1.00
C4     C     0.12991   0.79525   0.61852   0.00000  Uiso   1.00
C5     C     0.25051   0.79425   0.57821   0.00000  Uiso   1.00
C6     C     0.88240   0.69979   0.66058   0.00000  Uiso   1.00
C7     C     0.83972   0.69041   0.62236   0.00000  Uiso   1.00
C8     C     0.80511   0.62089   0.59661   0.00000  Uiso   1.00
C9     C     0.73770   0.51899   0.54366   0.00000  Uiso   1.00
C10    C     0.89910   0.77553   0.76643   0.00000  Uiso   1.00
C11    C     0.87044   0.82982   0.81721   0.00000  Uiso   1.00
C12    C     0.84988   0.82407   0.88058   0.00000  Uiso   1.00
C13    C     0.80840   0.83977   0.99197   0.00000  Uiso   1.00
C14    C     0.93945   0.66431   0.71575   0.00000  Uiso   1.00
C15    C     0.01130   0.70678   0.68083   0.00000  Uiso   1.00
C16    C     0.07854   0.69190   0.66200   0.00000  Uiso   1.00
C17    C     0.13775   0.73714   0.63062   0.00000  Uiso   1.00
C18    C     0.89023   0.64178   0.67266   0.00000  Uiso   1.00
C19    C     0.85567   0.57226   0.64696   0.00000  Uiso   1.00
C20    C     0.81295   0.56278   0.60871   0.00000  Uiso   1.00
C21    C     0.90693   0.71752   0.77851   0.00000  Uiso   1.00
C22    C     0.88640   0.71168   0.84181   0.00000  Uiso   1.00
C23    C     0.85772   0.76596   0.89268   0.00000  Uiso   1.00
H24    H     0.91893   0.81625   0.68411   0.00000  Uiso   1.00
H25    H     0.05651   0.85493   0.62806   0.00000  Uiso   1.00
H26    H     0.83367   0.73531   0.61303   0.00000  Uiso   1.00
H27    H     0.86439   0.87470   0.80785   0.00000  Uiso   1.00
H28    H     0.21249   0.87222   0.57122   0.00000  Uiso   1.00
H29    H     0.74259   0.61999   0.53955   0.00000  Uiso   1.00
H30    H     0.80738   0.91393   0.95037   0.00000  Uiso   1.00
H31    H     0.94554   0.61915   0.72515   0.00000  Uiso   1.00
H32    H     0.08458   0.64701   0.67135   0.00000  Uiso   1.00
H33    H     0.86174   0.52739   0.65632   0.00000  Uiso   1.00
H34    H     0.89246   0.66679   0.85114   0.00000  Uiso   1.00
H35    H     0.23528   0.70347   0.60635   0.00000  Uiso   1.00
H36    H     0.76537   0.45124   0.57469   0.00000  Uiso   1.00
H37    H     0.83016   0.74518   0.98550   0.00000  Uiso   1.00
O38    O     0.31487   0.80972   0.55263   0.00000  Uiso   1.00
O39    O     0.69837   0.47881   0.51110   0.00000  Uiso   1.00
O40    O     0.78337   0.86445   0.05008   0.00000  Uiso   1.00
N41    N     0.19877   0.82869   0.58688   0.00000  Uiso   1.00
N42    N     0.75946   0.59287   0.55727   0.00000  Uiso   1.00
N43    N     0.82001   0.86767   0.94134   0.00000  Uiso   1.00
N44    N     0.21103   0.73788   0.60579   0.00000  Uiso   1.00
N45    N     0.77172   0.50207   0.57617   0.00000  Uiso   1.00
N46    N     0.83227   0.77687   0.96025   0.00000  Uiso   1.00
C47    C     0.90831   0.03277   0.67208   0.00000  Uiso   1.00
C48    C     0.87103   0.96779   0.62760   0.00000  Uiso   1.00
C49    C     0.89006   0.90244   0.59829   0.00000  Uiso   1.00
C50    C     0.84924   0.84975   0.55931   0.00000  Uiso   1.00
C51    C     0.80017   0.74699   0.49163   0.00000  Uiso   1.00
C52    C     0.93175   0.09351   0.64072   0.00000  Uiso   1.00
C53    C     0.00184   0.13387   0.62245   0.00000  Uiso   1.00
C54    C     0.01213   0.18701   0.59453   0.00000  Uiso   1.00
C55    C     0.05732   0.27947   0.54727   0.00000  Uiso   1.00
C56    C     0.84928   0.05251   0.73620   0.00000  Uiso   1.00
C57    C     0.85002   0.05843   0.79822   0.00000  Uiso   1.00
C58    C     0.79089   0.07708   0.85069   0.00000  Uiso   1.00
C59    C     0.70802   0.10590   0.95167   0.00000  Uiso   1.00
C60    C     0.80198   0.05539   0.65499   0.00000  Uiso   1.00
C61    C     0.81328   0.98008   0.61831   0.00000  Uiso   1.00
C62    C     0.77241   0.92747   0.57938   0.00000  Uiso   1.00
C63    C     0.79138   0.86205   0.55001   0.00000  Uiso   1.00
C64    C     0.87400   0.10579   0.63144   0.00000  Uiso   1.00
C65    C     0.88419   0.15889   0.60354   0.00000  Uiso   1.00
C66    C     0.95427   0.19932   0.58523   0.00000  Uiso   1.00
C67    C     0.79152   0.06480   0.72692   0.00000  Uiso   1.00
C68    C     0.73237   0.08345   0.77930   0.00000  Uiso   1.00
C69    C     0.73303   0.08939   0.84139   0.00000  Uiso   1.00
H70    H     0.95328   0.02321   0.67930   0.00000  Uiso   1.00
H71    H     0.93477   0.89295   0.60548   0.00000  Uiso   1.00
H72    H     0.04652   0.12435   0.62965   0.00000  Uiso   1.00
H73    H     0.89473   0.04892   0.80538   0.00000  Uiso   1.00
H74    H     0.88879   0.75397   0.51951   0.00000  Uiso   1.00
H75    H     0.12443   0.24190   0.57050   0.00000  Uiso   1.00
H76    H     0.80434   0.08284   0.94107   0.00000  Uiso   1.00
H77    H     0.75701   0.06496   0.64776   0.00000  Uiso   1.00
H78    H     0.72772   0.93699   0.57220   0.00000  Uiso   1.00
H79    H     0.83948   0.16839   0.59637   0.00000  Uiso   1.00
H80    H     0.68769   0.09296   0.77210   0.00000  Uiso   1.00
H81    H     0.72075   0.78972   0.49250   0.00000  Uiso   1.00
H82    H     0.95639   0.27765   0.54349   0.00000  Uiso   1.00
H83    H     0.63630   0.11859   0.91406   0.00000  Uiso   1.00
O84    O     0.78906   0.68692   0.45685   0.00000  Uiso   1.00
O85    O     0.09821   0.32707   0.52376   0.00000  Uiso   1.00
O86    O     0.67826   0.11839   0.00993   0.00000  Uiso   1.00
N87    N     0.85325   0.77994   0.52354   0.00000  Uiso   1.00
N88    N     0.07356   0.23612   0.57119   0.00000  Uiso   1.00
N89    N     0.77432   0.08743   0.91765   0.00000  Uiso   1.00
N90    N     0.76283   0.79917   0.50900   0.00000  Uiso   1.00
N91    N     0.98314   0.25535   0.55666   0.00000  Uiso   1.00
N92    N     0.68389   0.10666   0.90311   0.00000  Uiso   1.00
C93    C     0.27066   0.01999   0.72710   0.00000  Uiso   1.00
C94    C     0.26819   0.07818   0.70288   0.00000  Uiso   1.00
C95    C     0.22540   0.07005   0.66520   0.00000  Uiso   1.00
C96    C     0.23096   0.12972   0.64805   0.00000  Uiso   1.00
C97    C     0.22004   0.21010   0.60740   0.00000  Uiso   1.00
C98    C     0.34968   0.01539   0.70187   0.00000  Uiso   1.00
C99    C     0.37539   0.95447   0.66335   0.00000  Uiso   1.00
C100   C     0.44955   0.96129   0.64536   0.00000  Uiso   1.00
C101   C     0.56514   0.94419   0.60318   0.00000  Uiso   1.00
C102   C     0.25304   0.04894   0.80158   0.00000  Uiso   1.00
C103   C     0.19752   0.01622   0.84691   0.00000  Uiso   1.00
C104   C     0.19032   0.05128   0.91286   0.00000  Uiso   1.00
C105   C     0.15587   0.08627   0.02550   0.00000  Uiso   1.00
C106   C     0.35663   0.14043   0.76364   0.00000  Uiso   1.00
C107   C     0.31489   0.14359   0.72273   0.00000  Uiso   1.00
C108   C     0.32051   0.20330   0.70563   0.00000  Uiso   1.00
C109   C     0.27774   0.19526   0.66794   0.00000  Uiso   1.00
C110   C     0.39637   0.08080   0.72172   0.00000  Uiso   1.00
C111   C     0.47051   0.08772   0.70378   0.00000  Uiso   1.00
C112   C     0.49633   0.02683   0.66524   0.00000  Uiso   1.00
C113   C     0.29973   0.11436   0.82144   0.00000  Uiso   1.00
C114   C     0.29263   0.14947   0.88733   0.00000  Uiso   1.00
C115   C     0.23710   0.11682   0.93275   0.00000  Uiso   1.00
H116   H     0.23431   0.96906   0.71165   0.00000  Uiso   1.00
H117   H     0.18927   0.01941   0.64985   0.00000  Uiso   1.00
H118   H     0.33924   0.90385   0.64801   0.00000  Uiso   1.00
H119   H     0.16139   0.96560   0.83153   0.00000  Uiso   1.00
H120   H     0.15995   0.10407   0.59007   0.00000  Uiso   1.00
H121   H     0.47617   0.86041   0.58620   0.00000  Uiso   1.00
H122   H     0.10113   0.99061   0.97319   0.00000  Uiso   1.00
H123   H     0.39299   0.19136   0.77910   0.00000  Uiso   1.00
H124   H     0.35666   0.25391   0.72100   0.00000  Uiso   1.00
H125   H     0.50663   0.13835   0.71915   0.00000  Uiso   1.00
H126   H     0.32878   0.20010   0.90268   0.00000  Uiso   1.00
H127   H     0.29581   0.29440   0.64781   0.00000  Uiso   1.00
H128   H     0.61203   0.05073   0.64394   0.00000  Uiso   1.00
H129   H     0.23699   0.18094   0.03094   0.00000  Uiso   1.00
O130   O     0.20113   0.23637   0.57948   0.00000  Uiso   1.00
O131   O     0.61600   0.91668   0.57442   0.00000  Uiso   1.00
O132   O     0.12396   0.08751   0.08215   0.00000  Uiso   1.00
N133   N     0.19690   0.14029   0.61164   0.00000  Uiso   1.00
N134   N     0.49255   0.91248   0.60801   0.00000  Uiso   1.00
N135   N     0.14193   0.03419   0.96982   0.00000  Uiso   1.00
N136   N     0.27000   0.24270   0.64271   0.00000  Uiso   1.00
N137   N     0.56565   0.01489   0.63909   0.00000  Uiso   1.00
N138   N     0.21504   0.13661   0.00090   0.00000  Uiso   1.00
C139   C     0.42495   0.56024   0.20378   0.00000  Uiso   1.00
C140   C     0.49911   0.60519   0.17592   0.00000  Uiso   1.00
C141   C     0.56065   0.57963   0.13616   0.00000  Uiso   1.00
C142   C     0.62324   0.62934   0.11575   0.00000  Uiso   1.00
C143   C     0.73824   0.68807   0.06960   0.00000  Uiso   1.00
C144   C     0.37205   0.57479   0.18098   0.00000  Uiso   1.00
C145   C     0.32676   0.52368   0.14548   0.00000  Uiso   1.00
C146   C     0.28238   0.54780   0.12934   0.00000  Uiso   1.00
C147   C     0.20008   0.55934   0.09109   0.00000  Uiso   1.00
C148   C     0.40485   0.59239   0.27806   0.00000  Uiso   1.00
C149   C     0.38711   0.55608   0.32420   0.00000  Uiso   1.00
C150   C     0.37033   0.59502   0.38980   0.00000  Uiso   1.00
C151   C     0.33896   0.63389   0.50229   0.00000  Uiso   1.00
C152   C     0.42665   0.69397   0.23823   0.00000  Uiso   1.00
C153   C     0.50003   0.67782   0.19462   0.00000  Uiso   1.00
C154   C     0.56254   0.72758   0.17427   0.00000  Uiso   1.00
C155   C     0.62417   0.70211   0.13449   0.00000  Uiso   1.00
C156   C     0.37298   0.64743   0.19968   0.00000  Uiso   1.00
C157   C     0.32865   0.67163   0.18360   0.00000  Uiso   1.00
C158   C     0.28331   0.62057   0.14808   0.00000  Uiso   1.00
C159   C     0.40578   0.66503   0.29677   0.00000  Uiso   1.00
C160   C     0.38901   0.70404   0.36231   0.00000  Uiso   1.00
C161   C     0.37126   0.66779   0.40854   0.00000  Uiso   1.00
H162   H     0.42422   0.50369   0.18922   0.00000  Uiso   1.00
H163   H     0.55991   0.52341   0.12169   0.00000  Uiso   1.00
H164   H     0.32605   0.46747   0.13102   0.00000  Uiso   1.00
H165   H     0.38640   0.49987   0.30971   0.00000  Uiso   1.00
H166   H     0.71075   0.57730   0.05505   0.00000  Uiso   1.00
H167   H     0.21762   0.45934   0.07474   0.00000  Uiso   1.00
H168   H     0.34488   0.52766   0.45154   0.00000  Uiso   1.00
H169   H     0.42738   0.75053   0.25280   0.00000  Uiso   1.00
H170   H     0.56324   0.78379   0.18876   0.00000  Uiso   1.00
H171   H     0.32938   0.72785   0.19809   0.00000  Uiso   1.00
H172   H     0.38973   0.76025   0.37677   0.00000  Uiso   1.00
H173   H     0.71345   0.78864   0.10948   0.00000  Uiso   1.00
H174   H     0.22032   0.67068   0.12918   0.00000  Uiso   1.00
H175   H     0.34759   0.73899   0.50598   0.00000  Uiso   1.00
O176   O     0.80142   0.70039   0.03897   0.00000  Uiso   1.00
O177   O     0.15444   0.54564   0.06482   0.00000  Uiso   1.00
O178   O     0.32141   0.63526   0.55917   0.00000  Uiso   1.00
N179   N     0.69274   0.62248   0.07666   0.00000  Uiso   1.00
N180   N     0.23171   0.51219   0.09506   0.00000  Uiso   1.00
N181   N     0.35067   0.57606   0.44734   0.00000  Uiso   1.00
N182   N     0.69420   0.73619   0.10595   0.00000  Uiso   1.00
N183   N     0.23316   0.62591   0.12435   0.00000  Uiso   1.00
N184   N     0.35212   0.68977   0.47663   0.00000  Uiso   1.00
C185   C     0.44096   0.24458   0.20110   0.00000  Uiso   1.00
C186   C     0.38404   0.25396   0.17949   0.00000  Uiso   1.00
C187   C     0.39542   0.30133   0.14490   0.00000  Uiso   1.00
C188   C     0.33641   0.30182   0.12978   0.00000  Uiso   1.00
C189   C     0.25837   0.32325   0.09333   0.00000  Uiso   1.00
C190   C     0.44264   0.16585   0.17222   0.00000  Uiso   1.00
C191   C     0.50328   0.13914   0.13153   0.00000  Uiso   1.00
C192   C     0.49359   0.06546   0.11030   0.00000  Uiso   1.00
C193   C     0.50654   0.95010   0.06261   0.00000  Uiso   1.00
C194   C     0.41051   0.25679   0.27532   0.00000  Uiso   1.00
C195   C     0.44414   0.30653   0.32132   0.00000  Uiso   1.00
C196   C     0.40741   0.30939   0.38689   0.00000  Uiso   1.00
C197   C     0.37046   0.33523   0.49927   0.00000  Uiso   1.00
C198   C     0.31592   0.16121   0.23575   0.00000  Uiso   1.00
C199   C     0.31613   0.20868   0.19831   0.00000  Uiso   1.00
C200   C     0.25708   0.20910   0.18324   0.00000  Uiso   1.00
C201   C     0.26836   0.25646   0.14863   0.00000  Uiso   1.00
C202   C     0.37472   0.12057   0.19104   0.00000  Uiso   1.00
C203   C     0.36494   0.04691   0.16987   0.00000  Uiso   1.00
C204   C     0.42555   0.02010   0.12915   0.00000  Uiso   1.00
C205   C     0.34259   0.21151   0.29414   0.00000  Uiso   1.00
C206   C     0.30579   0.21429   0.35965   0.00000  Uiso   1.00
C207   C     0.33937   0.26403   0.40574   0.00000  Uiso   1.00
H208   H     0.49384   0.27983   0.18644   0.00000  Uiso   1.00
H209   H     0.44799   0.33636   0.13034   0.00000  Uiso   1.00
H210   H     0.55584   0.17420   0.11698   0.00000  Uiso   1.00
H211   H     0.49670   0.34156   0.30673   0.00000  Uiso   1.00
H212   H     0.36722   0.37905   0.07642   0.00000  Uiso   1.00
H213   H     0.59462   0.03712   0.04826   0.00000  Uiso   1.00
H214   H     0.46993   0.39003   0.44840   0.00000  Uiso   1.00
H215   H     0.26304   0.12596   0.25040   0.00000  Uiso   1.00
H216   H     0.20452   0.17405   0.19781   0.00000  Uiso   1.00
H217   H     0.31237   0.01188   0.18445   0.00000  Uiso   1.00
H218   H     0.25324   0.17924   0.37420   0.00000  Uiso   1.00
H219   H     0.16961   0.24731   0.13117   0.00000  Uiso   1.00
H220   H     0.39702   0.90538   0.10302   0.00000  Uiso   1.00
H221   H     0.27232   0.25829   0.50316   0.00000  Uiso   1.00
O222   O     0.23410   0.34757   0.06802   0.00000  Uiso   1.00
O223   O     0.53244   0.89898   0.03110   0.00000  Uiso   1.00
O224   O     0.36884   0.36199   0.55607   0.00000  Uiso   1.00
N225   N     0.32874   0.34145   0.09653   0.00000  Uiso   1.00
N226   N     0.54135   0.02177   0.07020   0.00000  Uiso   1.00
N227   N     0.42477   0.35170   0.44430   0.00000  Uiso   1.00
N228   N     0.22241   0.27056   0.12600   0.00000  Uiso   1.00
N229   N     0.43501   0.95088   0.09967   0.00000  Uiso   1.00
N230   N     0.31844   0.28081   0.47376   0.00000  Uiso   1.00
C231   C     0.73597   0.54435   0.17980   0.00000  Uiso   1.00
C232   C     0.71388   0.46719   0.14080   0.00000  Uiso   1.00
C233   C     0.66911   0.44270   0.10096   0.00000  Uiso   1.00
C234   C     0.65543   0.37016   0.06944   0.00000  Uiso   1.00
C235   C     0.61658   0.25740   0.00764   0.00000  Uiso   1.00
C236   C     0.81855   0.56402   0.15769   0.00000  Uiso   1.00
C237   C     0.86178   0.62096   0.13205   0.00000  Uiso   1.00
C238   C     0.93621   0.62994   0.11475   0.00000  Uiso   1.00
C239   C     0.05986   0.66754   0.07920   0.00000  Uiso   1.00
C240   C     0.71340   0.54342   0.25110   0.00000  Uiso   1.00
C241   C     0.66825   0.58305   0.30402   0.00000  Uiso   1.00
C242   C     0.65417   0.57470   0.36537   0.00000  Uiso   1.00
C243   C     0.61456   0.58032   0.47487   0.00000  Uiso   1.00
C244   C     0.79127   0.45909   0.19468   0.00000  Uiso   1.00
C245   C     0.74392   0.42088   0.14889   0.00000  Uiso   1.00
C246   C     0.73030   0.34836   0.11742   0.00000  Uiso   1.00
C247   C     0.68552   0.32377   0.07754   0.00000  Uiso   1.00
C248   C     0.84858   0.51772   0.16577   0.00000  Uiso   1.00
C249   C     0.92297   0.52662   0.14851   0.00000  Uiso   1.00
C250   C     0.96630   0.58355   0.12285   0.00000  Uiso   1.00
C251   C     0.74344   0.49711   0.25919   0.00000  Uiso   1.00
C252   C     0.72943   0.48871   0.32048   0.00000  Uiso   1.00
C253   C     0.68426   0.52831   0.37347   0.00000  Uiso   1.00
H254   H     0.71259   0.58041   0.17351   0.00000  Uiso   1.00
H255   H     0.64588   0.47855   0.09472   0.00000  Uiso   1.00
H256   H     0.83852   0.65679   0.12581   0.00000  Uiso   1.00
H257   H     0.64501   0.61888   0.29774   0.00000  Uiso   1.00
H258   H     0.58519   0.34521   0.01090   0.00000  Uiso   1.00
H259   H     0.99138   0.72104   0.07648   0.00000  Uiso   1.00
H260   H     0.58333   0.64110   0.43905   0.00000  Uiso   1.00
H261   H     0.81466   0.42304   0.20097   0.00000  Uiso   1.00
H262   H     0.75355   0.31254   0.12369   0.00000  Uiso   1.00
H263   H     0.94619   0.49078   0.15477   0.00000  Uiso   1.00
H264   H     0.75268   0.45287   0.32671   0.00000  Uiso   1.00
H265   H     0.67258   0.21046   0.03441   0.00000  Uiso   1.00
H266   H     0.07877   0.58630   0.09999   0.00000  Uiso   1.00
H267   H     0.67072   0.50636   0.46256   0.00000  Uiso   1.00
O268   O     0.58686   0.20799   0.97130   0.00000  Uiso   1.00
O269   O     0.11976   0.70108   0.05735   0.00000  Uiso   1.00
O270   O     0.58441   0.59620   0.53303   0.00000  Uiso   1.00
N271   N     0.61413   0.32866   0.02705   0.00000  Uiso   1.00
N272   N     0.99390   0.68003   0.08835   0.00000  Uiso   1.00
N273   N     0.61242   0.60531   0.42733   0.00000  Uiso   1.00
N274   N     0.66116   0.25615   0.03970   0.00000  Uiso   1.00
N275   N     0.04092   0.60753   0.10100   0.00000  Uiso   1.00
N276   N     0.65944   0.53281   0.43998   0.00000  Uiso   1.00
C277   C     0.92762   0.20756   0.23533   0.00000  Uiso   1.00
C278   C     0.85694   0.22900   0.28051   0.00000  Uiso   1.00
C279   C     0.80671   0.19779   0.32921   0.00000  Uiso   1.00
C280   C     0.74548   0.22508   0.36524   0.00000  Uiso   1.00
C281   C     0.63735   0.24981   0.43727   0.00000  Uiso   1.00
C282   C     0.98754   0.27498   0.24455   0.00000  Uiso   1.00
C283   C     0.04713   0.28242   0.26301   0.00000  Uiso   1.00
C284   C     0.09585   0.34842   0.26877   0.00000  Uiso   1.00
C285   C     0.19051   0.44452   0.28494   0.00000  Uiso   1.00
C286   C     0.92509   0.18995   0.16545   0.00000  Uiso   1.00
C287   C     0.93218   0.12590   0.11738   0.00000  Uiso   1.00
C288   C     0.92833   0.12032   0.05653   0.00000  Uiso   1.00
C289   C     0.92602   0.08439   0.94987   0.00000  Uiso   1.00
C290   C     0.90821   0.31154   0.21272   0.00000  Uiso   1.00
C291   C     0.84640   0.28548   0.26823   0.00000  Uiso   1.00
C292   C     0.78523   0.31283   0.30419   0.00000  Uiso   1.00
C293   C     0.73491   0.28166   0.35293   0.00000  Uiso   1.00
C294   C     0.97700   0.33146   0.23228   0.00000  Uiso   1.00
C295   C     0.02564   0.39746   0.23800   0.00000  Uiso   1.00
C296   C     0.08528   0.40500   0.25647   0.00000  Uiso   1.00
C297   C     0.91454   0.24643   0.15316   0.00000  Uiso   1.00
C298   C     0.91069   0.24094   0.09237   0.00000  Uiso   1.00
C299   C     0.91777   0.17690   0.04422   0.00000  Uiso   1.00
H300   H     0.93584   0.16359   0.24489   0.00000  Uiso   1.00
H301   H     0.81490   0.15409   0.33870   0.00000  Uiso   1.00
H302   H     0.05528   0.23871   0.27251   0.00000  Uiso   1.00
H303   H     0.94034   0.08221   0.12690   0.00000  Uiso   1.00
H304   H     0.67617   0.16847   0.43730   0.00000  Uiso   1.00
H305   H     0.18304   0.34689   0.29771   0.00000  Uiso   1.00
H306   H     0.94068   0.01689   0.99067   0.00000  Uiso   1.00
H307   H     0.90000   0.35551   0.20316   0.00000  Uiso   1.00
H308   H     0.77708   0.35653   0.29468   0.00000  Uiso   1.00
H309   H     0.01747   0.44115   0.22849   0.00000  Uiso   1.00
H310   H     0.90253   0.28466   0.08288   0.00000  Uiso   1.00
H311   H     0.64548   0.33279   0.40157   0.00000  Uiso   1.00
H312   H     0.15236   0.51120   0.26199   0.00000  Uiso   1.00
H313   H     0.90999   0.18120   0.95495   0.00000  Uiso   1.00
O314   O     0.58062   0.24786   0.48041   0.00000  Uiso   1.00
O315   O     0.24563   0.48192   0.29726   0.00000  Uiso   1.00
O316   O     0.92765   0.04897   0.89443   0.00000  Uiso   1.00
N317   N     0.68581   0.20699   0.41632   0.00000  Uiso   1.00
N318   N     0.15970   0.37381   0.28583   0.00000  Uiso   1.00
N319   N     0.93313   0.06529   0.99876   0.00000  Uiso   1.00
N320   N     0.66929   0.29541   0.39710   0.00000  Uiso   1.00
N321   N     0.14318   0.46222   0.26661   0.00000  Uiso   1.00
N322   N     0.91661   0.15371   0.97954   0.00000  Uiso   1.00
C323   C     0.88660   0.03781   0.39644   0.00000  Uiso   1.00
C324   C     0.87574   0.11380   0.42438   0.00000  Uiso   1.00
C325   C     0.81147   0.13368   0.46508   0.00000  Uiso   1.00
C326   C     0.81268   0.20590   0.48538   0.00000  Uiso   1.00
C327   C     0.78621   0.31622   0.53179   0.00000  Uiso   1.00
C328   C     0.94847   0.03864   0.41799   0.00000  Uiso   1.00
C329   C     0.94535   0.99532   0.45331   0.00000  Uiso   1.00
C330   C     0.00778   0.00427   0.46822   0.00000  Uiso   1.00
C331   C     0.09424   0.99786   0.50466   0.00000  Uiso   1.00
C332   C     0.91537   0.02466   0.32207   0.00000  Uiso   1.00
C333   C     0.88442   0.96958   0.27674   0.00000  Uiso   1.00
C334   C     0.91899   0.96675   0.21090   0.00000  Uiso   1.00
C335   C     0.95405   0.93865   0.09842   0.00000  Uiso   1.00
C336   C     0.00302   0.13071   0.36011   0.00000  Uiso   1.00
C337   C     0.93898   0.16426   0.40465   0.00000  Uiso   1.00
C338   C     0.94028   0.23647   0.42489   0.00000  Uiso   1.00
C339   C     0.87602   0.25646   0.46561   0.00000  Uiso   1.00
C340   C     0.01171   0.08910   0.39826   0.00000  Uiso   1.00
C341   C     0.07416   0.09811   0.41312   0.00000  Uiso   1.00
C342   C     0.07113   0.05482   0.44845   0.00000  Uiso   1.00
C343   C     0.97860   0.07512   0.30234   0.00000  Uiso   1.00
C344   C     0.01323   0.07237   0.23655   0.00000  Uiso   1.00
C345   C     0.98234   0.01730   0.19113   0.00000  Uiso   1.00
H346   H     0.83737   0.99852   0.41181   0.00000  Uiso   1.00
H347   H     0.76255   0.09461   0.48034   0.00000  Uiso   1.00
H348   H     0.89641   0.95627   0.46857   0.00000  Uiso   1.00
H349   H     0.83549   0.93054   0.29203   0.00000  Uiso   1.00
H350   H     0.70749   0.22341   0.54765   0.00000  Uiso   1.00
H351   H     0.98975   0.93168   0.52280   0.00000  Uiso   1.00
H352   H     0.86129   0.87742   0.15054   0.00000  Uiso   1.00
H353   H     0.05226   0.17000   0.34475   0.00000  Uiso   1.00
H354   H     0.98922   0.27551   0.40961   0.00000  Uiso   1.00
H355   H     0.12308   0.13716   0.39783   0.00000  Uiso   1.00
H356   H     0.06216   0.11143   0.22130   0.00000  Uiso   1.00
H357   H     0.89147   0.37023   0.49024   0.00000  Uiso   1.00
H358   H     0.17373   0.07850   0.46539   0.00000  Uiso   1.00
H359   H     0.04527   0.02425   0.09313   0.00000  Uiso   1.00
O360   O     0.75415   0.36313   0.56284   0.00000  Uiso   1.00
O361   O     0.12446   0.98039   0.53022   0.00000  Uiso   1.00
O362   O     0.95592   0.90921   0.04183   0.00000  Uiso   1.00
N363   N     0.75944   0.24348   0.52523   0.00000  Uiso   1.00
N364   N     0.02333   0.97074   0.50200   0.00000  Uiso   1.00
N365   N     0.90324   0.92001   0.15397   0.00000  Uiso   1.00
N366   N     0.85843   0.32249   0.49434   0.00000  Uiso   1.00
N367   N     0.12232   0.04975   0.47111   0.00000  Uiso   1.00
N368   N     0.00223   0.99901   0.12308   0.00000  Uiso   1.00
C369   C     0.60025   0.02913   0.32788   0.00000  Uiso   1.00
C370   C     0.60088   0.96682   0.34769   0.00000  Uiso   1.00
C371   C     0.63949   0.97063   0.38738   0.00000  Uiso   1.00
C372   C     0.63287   0.90764   0.39975   0.00000  Uiso   1.00
C373   C     0.64046   0.82069   0.43455   0.00000  Uiso   1.00
C374   C     0.52103   0.03201   0.34963   0.00000  Uiso   1.00
C375   C     0.49250   0.09064   0.39096   0.00000  Uiso   1.00
C376   C     0.41866   0.08254   0.40495   0.00000  Uiso   1.00
C377   C     0.30229   0.09683   0.44273   0.00000  Uiso   1.00
C378   C     0.62373   0.00725   0.25300   0.00000  Uiso   1.00
C379   C     0.68155   0.04507   0.21307   0.00000  Uiso   1.00
C380   C     0.69416   0.01612   0.14571   0.00000  Uiso   1.00
C381   C     0.73726   0.99197   0.03346   0.00000  Uiso   1.00
C382   C     0.51983   0.91049   0.27925   0.00000  Uiso   1.00
C383   C     0.55720   0.90238   0.32127   0.00000  Uiso   1.00
C384   C     0.55052   0.83937   0.33358   0.00000  Uiso   1.00
C385   C     0.58912   0.84308   0.37329   0.00000  Uiso   1.00
C386   C     0.47735   0.96758   0.32322   0.00000  Uiso   1.00
C387   C     0.40353   0.95939   0.33715   0.00000  Uiso   1.00
C388   C     0.37490   0.01798   0.37849   0.00000  Uiso   1.00
C389   C     0.58005   0.94281   0.22659   0.00000  Uiso   1.00
C390   C     0.59258   0.91381   0.15927   0.00000  Uiso   1.00
C391   C     0.65041   0.95157   0.11925   0.00000  Uiso   1.00
H392   H     0.63425   0.07930   0.34844   0.00000  Uiso   1.00
H393   H     0.67328   0.02051   0.40782   0.00000  Uiso   1.00
H394   H     0.52632   0.14050   0.41138   0.00000  Uiso   1.00
H395   H     0.71533   0.09493   0.23353   0.00000  Uiso   1.00
H396   H     0.69727   0.92691   0.46202   0.00000  Uiso   1.00
H397   H     0.38740   0.17994   0.46952   0.00000  Uiso   1.00
H398   H     0.78597   0.08385   0.09448   0.00000  Uiso   1.00
H399   H     0.48583   0.86032   0.25869   0.00000  Uiso   1.00
H400   H     0.51671   0.78951   0.31313   0.00000  Uiso   1.00
H401   H     0.36975   0.90951   0.31670   0.00000  Uiso   1.00
H402   H     0.55877   0.86394   0.13885   0.00000  Uiso   1.00
H403   H     0.57019   0.73943   0.38517   0.00000  Uiso   1.00
H404   H     0.26032   0.99246   0.39267   0.00000  Uiso   1.00
H405   H     0.65890   0.89637   0.01763   0.00000  Uiso   1.00
O406   O     0.65671   0.79054   0.46105   0.00000  Uiso   1.00
O407   O     0.25017   0.12252   0.47088   0.00000  Uiso   1.00
O408   O     0.77310   0.99644   0.97884   0.00000  Uiso   1.00
N409   N     0.66314   0.89250   0.43645   0.00000  Uiso   1.00
N410   N     0.37342   0.12907   0.44347   0.00000  Uiso   1.00
N411   N     0.74604   0.03924   0.09284   0.00000  Uiso   1.00
N412   N     0.59476   0.79162   0.39510   0.00000  Uiso   1.00
N413   N     0.30504   0.02818   0.40212   0.00000  Uiso   1.00
N414   N     0.67767   0.93836   0.05149   0.00000  Uiso   1.00
C415   C     0.45362   0.48828   0.83497   0.00000  Uiso   1.00
C416   C     0.37987   0.44269   0.86277   0.00000  Uiso   1.00
C417   C     0.31804   0.46758   0.90289   0.00000  Uiso   1.00
C418   C     0.25593   0.41734   0.92316   0.00000  Uiso   1.00
C419   C     0.14146   0.35758   0.96928   0.00000  Uiso   1.00
C420   C     0.50715   0.47410   0.85730   0.00000  Uiso   1.00
C421   C     0.55233   0.52541   0.89280   0.00000  Uiso   1.00
C422   C     0.59737   0.50161   0.90846   0.00000  Uiso   1.00
C423   C     0.68054   0.49063   0.94602   0.00000  Uiso   1.00
C424   C     0.47359   0.45658   0.76064   0.00000  Uiso   1.00
C425   C     0.49058   0.49316   0.71487   0.00000  Uiso   1.00
C426   C     0.50738   0.45462   0.64915   0.00000  Uiso   1.00
C427   C     0.53844   0.41644   0.53665   0.00000  Uiso   1.00
C428   C     0.45327   0.35480   0.79964   0.00000  Uiso   1.00
C429   C     0.37969   0.37019   0.84358   0.00000  Uiso   1.00
C430   C     0.31765   0.31990   0.86380   0.00000  Uiso   1.00
C431   C     0.25574   0.34471   0.90394   0.00000  Uiso   1.00
C432   C     0.50696   0.40160   0.83811   0.00000  Uiso   1.00
C433   C     0.55195   0.37773   0.85371   0.00000  Uiso   1.00
C434   C     0.59718   0.42898   0.88923   0.00000  Uiso   1.00
C435   C     0.47340   0.38408   0.74145   0.00000  Uiso   1.00
C436   C     0.49019   0.34548   0.67579   0.00000  Uiso   1.00
C437   C     0.50719   0.38199   0.62993   0.00000  Uiso   1.00
H438   H     0.45377   0.54473   0.84991   0.00000  Uiso   1.00
H439   H     0.31821   0.52369   0.91773   0.00000  Uiso   1.00
H440   H     0.55247   0.58151   0.90764   0.00000  Uiso   1.00
H441   H     0.49072   0.54927   0.72974   0.00000  Uiso   1.00
H442   H     0.16784   0.46840   0.98448   0.00000  Uiso   1.00
H443   H     0.66181   0.59032   0.96317   0.00000  Uiso   1.00
H444   H     0.53160   0.52233   0.58805   0.00000  Uiso   1.00
H445   H     0.45312   0.29835   0.78470   0.00000  Uiso   1.00
H446   H     0.31753   0.26380   0.84894   0.00000  Uiso   1.00
H447   H     0.55179   0.32162   0.83885   0.00000  Uiso   1.00
H448   H     0.49004   0.28938   0.66095   0.00000  Uiso   1.00
H449   H     0.16729   0.25746   0.92865   0.00000  Uiso   1.00
H450   H     0.66126   0.37938   0.90734   0.00000  Uiso   1.00
H451   H     0.53105   0.31139   0.53222   0.00000  Uiso   1.00
O452   O     0.07838   0.34465   0.00002   0.00000  Uiso   1.00
O453   O     0.72646   0.50460   0.97205   0.00000  Uiso   1.00
O454   O     0.55562   0.41540   0.47990   0.00000  Uiso   1.00
N455   N     0.18632   0.42349   0.96251   0.00000  Uiso   1.00
N456   N     0.64814   0.53748   0.94260   0.00000  Uiso   1.00
N457   N     0.52642   0.47392   0.59189   0.00000  Uiso   1.00
N458   N     0.18602   0.30999   0.93247   0.00000  Uiso   1.00
N459   N     0.64784   0.42398   0.91256   0.00000  Uiso   1.00
N460   N     0.52612   0.36042   0.56185   0.00000  Uiso   1.00
C461   C     0.43307   0.80948   0.84980   0.00000  Uiso   1.00
C462   C     0.48854   0.79763   0.87147   0.00000  Uiso   1.00
C463   C     0.47461   0.75094   0.90756   0.00000  Uiso   1.00
C464   C     0.53266   0.74787   0.92247   0.00000  Uiso   1.00
C465   C     0.60822   0.72309   0.95926   0.00000  Uiso   1.00
C466   C     0.43559   0.88916   0.87679   0.00000  Uiso   1.00
C467   C     0.37712   0.91942   0.91733   0.00000  Uiso   1.00
C468   C     0.39060   0.99339   0.93671   0.00000  Uiso   1.00
C469   C     0.38393   0.11072   0.98172   0.00000  Uiso   1.00
C470   C     0.46272   0.79480   0.77532   0.00000  Uiso   1.00
C471   C     0.42706   0.74574   0.73054   0.00000  Uiso   1.00
C472   C     0.46337   0.74028   0.66448   0.00000  Uiso   1.00
C473   C     0.49883   0.71110   0.55194   0.00000  Uiso   1.00
C474   C     0.56095   0.88705   0.81211   0.00000  Uiso   1.00
C475   C     0.55800   0.83977   0.85100   0.00000  Uiso   1.00
C476   C     0.61609   0.83677   0.86586   0.00000  Uiso   1.00
C477   C     0.60224   0.79008   0.90196   0.00000  Uiso   1.00
C478   C     0.50504   0.93130   0.85632   0.00000  Uiso   1.00
C479   C     0.51860   0.00525   0.87563   0.00000  Uiso   1.00
C480   C     0.46018   0.03561   0.91620   0.00000  Uiso   1.00
C481   C     0.53217   0.83694   0.75484   0.00000  Uiso   1.00
C482   C     0.56854   0.83156   0.68884   0.00000  Uiso   1.00
C483   C     0.53295   0.78250   0.64397   0.00000  Uiso   1.00
H484   H     0.37900   0.77668   0.86574   0.00000  Uiso   1.00
H485   H     0.42085   0.71834   0.92340   0.00000  Uiso   1.00
H486   H     0.32338   0.88680   0.93316   0.00000  Uiso   1.00
H487   H     0.37331   0.71314   0.74640   0.00000  Uiso   1.00
H488   H     0.49788   0.67227   0.97831   0.00000  Uiso   1.00
H489   H     0.29235   0.02746   0.99889   0.00000  Uiso   1.00
H490   H     0.39764   0.66127   0.60506   0.00000  Uiso   1.00
H491   H     0.61502   0.91986   0.79617   0.00000  Uiso   1.00
H492   H     0.66983   0.86938   0.85001   0.00000  Uiso   1.00
H493   H     0.57235   0.03784   0.85978   0.00000  Uiso   1.00
H494   H     0.62229   0.86418   0.67302   0.00000  Uiso   1.00
H495   H     0.69996   0.79487   0.91875   0.00000  Uiso   1.00
H496   H     0.49443   0.15006   0.93933   0.00000  Uiso   1.00
H497   H     0.59972   0.78387   0.54550   0.00000  Uiso   1.00
O498   O     0.63071   0.69780   0.98522   0.00000  Uiso   1.00
O499   O     0.36106   0.16379   0.01220   0.00000  Uiso   1.00
O500   O     0.49920   0.68336   0.49551   0.00000  Uiso   1.00
N501   N     0.53792   0.70804   0.95689   0.00000  Uiso   1.00
N502   N     0.34576   0.04012   0.97614   0.00000  Uiso   1.00
N503   N     0.44419   0.69778   0.60794   0.00000  Uiso   1.00
N504   N     0.64666   0.77401   0.92484   0.00000  Uiso   1.00
N505   N     0.45450   0.10609   0.94409   0.00000  Uiso   1.00
N506   N     0.55293   0.76375   0.57589   0.00000  Uiso   1.00
C507   C     0.14575   0.53905   0.83785   0.00000  Uiso   1.00
C508   C     0.12577   0.61121   0.86577   0.00000  Uiso   1.00
C509   C     0.15851   0.67171   0.90602   0.00000  Uiso   1.00
C510   C     0.13239   0.73249   0.92639   0.00000  Uiso   1.00
C511   C     0.10997   0.84451   0.97269   0.00000  Uiso   1.00
C512   C     0.07635   0.48498   0.86000   0.00000  Uiso   1.00
C513   C     0.06756   0.43934   0.89540   0.00000  Uiso   1.00
C514   C     0.99983   0.39385   0.91090   0.00000  Uiso   1.00
C515   C     0.90072   0.30984   0.94821   0.00000  Uiso   1.00
C516   C     0.16344   0.52119   0.76353   0.00000  Uiso   1.00
C517   C     0.22786   0.50599   0.71780   0.00000  Uiso   1.00
C518   C     0.23345   0.49097   0.65207   0.00000  Uiso   1.00
C519   C     0.26955   0.46320   0.53958   0.00000  Uiso   1.00
C520   C     0.04112   0.53940   0.80244   0.00000  Uiso   1.00
C521   C     0.06893   0.61140   0.84654   0.00000  Uiso   1.00
C522   C     0.04275   0.67211   0.86684   0.00000  Uiso   1.00
C523   C     0.07546   0.73269   0.90712   0.00000  Uiso   1.00
C524   C     0.01952   0.48517   0.84077   0.00000  Uiso   1.00
C525   C     0.95179   0.43973   0.85622   0.00000  Uiso   1.00
C526   C     0.94290   0.39404   0.89163   0.00000  Uiso   1.00
C527   C     0.10661   0.52139   0.74429   0.00000  Uiso   1.00
C528   C     0.11210   0.50639   0.67862   0.00000  Uiso   1.00
C529   C     0.17652   0.49117   0.63280   0.00000  Uiso   1.00
H530   H     0.19000   0.53889   0.85283   0.00000  Uiso   1.00
H531   H     0.20249   0.67154   0.92090   0.00000  Uiso   1.00
H532   H     0.11155   0.43919   0.91027   0.00000  Uiso   1.00
H533   H     0.27183   0.50584   0.73270   0.00000  Uiso   1.00
H534   H     0.19126   0.81868   0.98791   0.00000  Uiso   1.00
H535   H     0.99951   0.32875   0.96548   0.00000  Uiso   1.00
H536   H     0.33749   0.46929   0.59103   0.00000  Uiso   1.00
H537   H     0.99687   0.53955   0.78747   0.00000  Uiso   1.00
H538   H     0.99877   0.67224   0.85195   0.00000  Uiso   1.00
H539   H     0.90783   0.43990   0.84133   0.00000  Uiso   1.00
H540   H     0.06811   0.50654   0.66376   0.00000  Uiso   1.00
H541   H     0.02591   0.81925   0.93195   0.00000  Uiso   1.00
H542   H     0.83416   0.32932   0.90952   0.00000  Uiso   1.00
H543   H     0.17214   0.46986   0.53508   0.00000  Uiso   1.00
O544   O     0.11330   0.90623   0.00355   0.00000  Uiso   1.00
O545   O     0.86174   0.26346   0.97411   0.00000  Uiso   1.00
O546   O     0.30516   0.44784   0.48285   0.00000  Uiso   1.00
N547   N     0.15209   0.80061   0.96588   0.00000  Uiso   1.00
N548   N     0.97282   0.34256   0.94492   0.00000  Uiso   1.00
N549   N     0.28879   0.47393   0.59484   0.00000  Uiso   1.00
N550   N     0.06312   0.80092   0.93577   0.00000  Uiso   1.00
N551   N     0.88385   0.34287   0.91480   0.00000  Uiso   1.00
N552   N     0.19982   0.47424   0.56473   0.00000  Uiso   1.00
