data_job_00886
_audit_creation_date              2018-12-19
_audit_creation_method            'Materials Studio'
_symmetry_space_group_name_H-M    'P1'
_symmetry_Int_Tables_number       1
_symmetry_cell_setting            triclinic
loop_
_symmetry_equiv_pos_as_xyz
  x,y,z
_cell_length_a                    11.0454
_cell_length_b                    11.3139
_cell_length_c                    21.5800
_cell_angle_alpha                 90.0000
_cell_angle_beta                  120.1030
_cell_angle_gamma                 90.0000
loop_
_atom_site_label
_atom_site_type_symbol
_atom_site_fract_x
_atom_site_fract_y
_atom_site_fract_z
_atom_site_U_iso_or_equiv
_atom_site_adp_type
_atom_site_occupancy
C1     C     0.35581   0.75831   0.36725   0.00000  Uiso   1.00
C2     C     0.25837   0.73726   0.39710   0.00000  Uiso   1.00
C3     C     0.29420   0.68114   0.46123   0.00000  Uiso   1.00
C4     C     0.19009   0.67060   0.47904   0.00000  Uiso   1.00
C5     C     0.05931   0.63117   0.53218   0.00000  Uiso   1.00
C6     C     0.28451   0.70201   0.29304   0.00000  Uiso   1.00
C7     C     0.34233   0.61626   0.26968   0.00000  Uiso   1.00
C8     C     0.26022   0.57607   0.19989   0.00000  Uiso   1.00
C9     C     0.17007   0.48196   0.09146   0.00000  Uiso   1.00
C10    C     0.35416   0.89122   0.35512   0.00000  Uiso   1.00
C11    C     0.47055   0.96456   0.38394   0.00000  Uiso   1.00
C12    C     0.44708   0.08366   0.36639   0.00000  Uiso   1.00
C13    C     0.46507   0.28333   0.35435   0.00000  Uiso   1.00
C14    C     0.10717   0.83940   0.28482   0.00000  Uiso   1.00
C15    C     0.12332   0.78131   0.35232   0.00000  Uiso   1.00
C16    C     0.01912   0.77086   0.37004   0.00000  Uiso   1.00
C17    C     0.05480   0.71473   0.43419   0.00000  Uiso   1.00
C18    C     0.14946   0.74605   0.24827   0.00000  Uiso   1.00
C19    C     0.06725   0.70598   0.17849   0.00000  Uiso   1.00
C20    C     0.12493   0.62019   0.15503   0.00000  Uiso   1.00
C21    C     0.21911   0.93527   0.31034   0.00000  Uiso   1.00
C22    C     0.19546   0.05428   0.29274   0.00000  Uiso   1.00
C23    C     0.31179   0.12779   0.32154   0.00000  Uiso   1.00
H24    H     0.46095   0.72402   0.40210   0.00000  Uiso   1.00
H25    H     0.39873   0.64706   0.49586   0.00000  Uiso   1.00
H26    H     0.44685   0.58220   0.30434   0.00000  Uiso   1.00
H27    H     0.57504   0.93044   0.41858   0.00000  Uiso   1.00
H28    H     0.27017   0.58112   0.58006   0.00000  Uiso   1.00
H29    H     0.37166   0.44440   0.17622   0.00000  Uiso   1.00
H30    H     0.64198   0.17873   0.41711   0.00000  Uiso   1.00
H31    H     0.00203   0.87370   0.24996   0.00000  Uiso   1.00
H32    H     0.91462   0.80495   0.33538   0.00000  Uiso   1.00
H33    H     0.96275   0.74009   0.14385   0.00000  Uiso   1.00
H34    H     0.09094   0.08833   0.25809   0.00000  Uiso   1.00
H35    H     0.87725   0.70926   0.44980   0.00000  Uiso   1.00
H36    H     0.97875   0.57255   0.04596   0.00000  Uiso   1.00
H37    H     0.24906   0.30688   0.28686   0.00000  Uiso   1.00
O38    O     0.02448   0.59723   0.57386   0.00000  Uiso   1.00
O39    O     0.15765   0.41788   0.04403   0.00000  Uiso   1.00
O40    O     0.51230   0.38131   0.36008   0.00000  Uiso   1.00
N41    N     0.18970   0.62073   0.53769   0.00000  Uiso   1.00
N42    N     0.28458   0.49289   0.16012   0.00000  Uiso   1.00
N43    N     0.53731   0.17943   0.38533   0.00000  Uiso   1.00
N44    N     0.97827   0.68969   0.46760   0.00000  Uiso   1.00
N45    N     0.07316   0.56185   0.09003   0.00000  Uiso   1.00
N46    N     0.32589   0.24839   0.31524   0.00000  Uiso   1.00
C47    C     0.64419   0.25831   0.13275   0.00000  Uiso   1.00
C48    C     0.74163   0.23726   0.10290   0.00000  Uiso   1.00
C49    C     0.70580   0.18114   0.03877   0.00000  Uiso   1.00
C50    C     0.80991   0.17060   0.02096   0.00000  Uiso   1.00
C51    C     0.94069   0.13117   0.96782   0.00000  Uiso   1.00
C52    C     0.71549   0.20201   0.20696   0.00000  Uiso   1.00
C53    C     0.65767   0.11626   0.23032   0.00000  Uiso   1.00
C54    C     0.73978   0.07607   0.30011   0.00000  Uiso   1.00
C55    C     0.82993   0.98196   0.40854   0.00000  Uiso   1.00
C56    C     0.64584   0.39122   0.14488   0.00000  Uiso   1.00
C57    C     0.52945   0.46456   0.11606   0.00000  Uiso   1.00
C58    C     0.55292   0.58366   0.13361   0.00000  Uiso   1.00
C59    C     0.53493   0.78333   0.14565   0.00000  Uiso   1.00
C60    C     0.89283   0.33940   0.21518   0.00000  Uiso   1.00
C61    C     0.87668   0.28131   0.14768   0.00000  Uiso   1.00
C62    C     0.98088   0.27086   0.12996   0.00000  Uiso   1.00
C63    C     0.94520   0.21473   0.06581   0.00000  Uiso   1.00
C64    C     0.85054   0.24605   0.25173   0.00000  Uiso   1.00
C65    C     0.93275   0.20598   0.32151   0.00000  Uiso   1.00
C66    C     0.87507   0.12019   0.34497   0.00000  Uiso   1.00
C67    C     0.78089   0.43527   0.18966   0.00000  Uiso   1.00
C68    C     0.80454   0.55428   0.20726   0.00000  Uiso   1.00
C69    C     0.68821   0.62779   0.17846   0.00000  Uiso   1.00
H70    H     0.53905   0.22402   0.09790   0.00000  Uiso   1.00
H71    H     0.60127   0.14706   0.00414   0.00000  Uiso   1.00
H72    H     0.55315   0.08220   0.19566   0.00000  Uiso   1.00
H73    H     0.42496   0.43044   0.08142   0.00000  Uiso   1.00
H74    H     0.72983   0.08112   0.91994   0.00000  Uiso   1.00
H75    H     0.62834   0.94440   0.32378   0.00000  Uiso   1.00
H76    H     0.35802   0.67873   0.08289   0.00000  Uiso   1.00
H77    H     0.99797   0.37370   0.25004   0.00000  Uiso   1.00
H78    H     0.08538   0.30495   0.16462   0.00000  Uiso   1.00
H79    H     0.03725   0.24009   0.35615   0.00000  Uiso   1.00
H80    H     0.90906   0.58833   0.24191   0.00000  Uiso   1.00
H81    H     0.12275   0.20926   0.05020   0.00000  Uiso   1.00
H82    H     0.02125   0.07255   0.45404   0.00000  Uiso   1.00
H83    H     0.75094   0.80688   0.21314   0.00000  Uiso   1.00
O84    O     0.97552   0.09723   0.92614   0.00000  Uiso   1.00
O85    O     0.84235   0.91788   0.45597   0.00000  Uiso   1.00
O86    O     0.48770   0.88131   0.13992   0.00000  Uiso   1.00
N87    N     0.81030   0.12073   0.96231   0.00000  Uiso   1.00
N88    N     0.71542   0.99289   0.33988   0.00000  Uiso   1.00
N89    N     0.46269   0.67943   0.11467   0.00000  Uiso   1.00
N90    N     0.02173   0.18969   0.03240   0.00000  Uiso   1.00
N91    N     0.92684   0.06185   0.40997   0.00000  Uiso   1.00
N92    N     0.67411   0.74839   0.18476   0.00000  Uiso   1.00
C93    C     0.64419   0.24169   0.63275   0.00000  Uiso   1.00
C94    C     0.74163   0.26274   0.60290   0.00000  Uiso   1.00
C95    C     0.70580   0.31886   0.53877   0.00000  Uiso   1.00
C96    C     0.80991   0.32940   0.52096   0.00000  Uiso   1.00
C97    C     0.94069   0.36883   0.46782   0.00000  Uiso   1.00
C98    C     0.71549   0.29799   0.70696   0.00000  Uiso   1.00
C99    C     0.65767   0.38374   0.73032   0.00000  Uiso   1.00
C100   C     0.73978   0.42393   0.80011   0.00000  Uiso   1.00
C101   C     0.82993   0.51804   0.90854   0.00000  Uiso   1.00
C102   C     0.64584   0.10878   0.64488   0.00000  Uiso   1.00
C103   C     0.52945   0.03544   0.61606   0.00000  Uiso   1.00
C104   C     0.55292   0.91634   0.63361   0.00000  Uiso   1.00
C105   C     0.53493   0.71667   0.64565   0.00000  Uiso   1.00
C106   C     0.89283   0.16060   0.71518   0.00000  Uiso   1.00
C107   C     0.87668   0.21869   0.64768   0.00000  Uiso   1.00
C108   C     0.98088   0.22914   0.62996   0.00000  Uiso   1.00
C109   C     0.94520   0.28527   0.56581   0.00000  Uiso   1.00
C110   C     0.85054   0.25395   0.75173   0.00000  Uiso   1.00
C111   C     0.93275   0.29402   0.82151   0.00000  Uiso   1.00
C112   C     0.87507   0.37981   0.84497   0.00000  Uiso   1.00
C113   C     0.78089   0.06473   0.68966   0.00000  Uiso   1.00
C114   C     0.80454   0.94572   0.70726   0.00000  Uiso   1.00
C115   C     0.68821   0.87221   0.67846   0.00000  Uiso   1.00
H116   H     0.53905   0.27598   0.59790   0.00000  Uiso   1.00
H117   H     0.60127   0.35294   0.50414   0.00000  Uiso   1.00
H118   H     0.55315   0.41780   0.69566   0.00000  Uiso   1.00
H119   H     0.42496   0.06956   0.58142   0.00000  Uiso   1.00
H120   H     0.72983   0.41888   0.41994   0.00000  Uiso   1.00
H121   H     0.62834   0.55560   0.82378   0.00000  Uiso   1.00
H122   H     0.35802   0.82127   0.58289   0.00000  Uiso   1.00
H123   H     0.99797   0.12630   0.75004   0.00000  Uiso   1.00
H124   H     0.08538   0.19505   0.66462   0.00000  Uiso   1.00
H125   H     0.03725   0.25991   0.85615   0.00000  Uiso   1.00
H126   H     0.90906   0.91167   0.74191   0.00000  Uiso   1.00
H127   H     0.12275   0.29074   0.55020   0.00000  Uiso   1.00
H128   H     0.02125   0.42745   0.95404   0.00000  Uiso   1.00
H129   H     0.75094   0.69312   0.71314   0.00000  Uiso   1.00
O130   O     0.97552   0.40277   0.42614   0.00000  Uiso   1.00
O131   O     0.84235   0.58212   0.95597   0.00000  Uiso   1.00
O132   O     0.48770   0.61869   0.63992   0.00000  Uiso   1.00
N133   N     0.81030   0.37927   0.46231   0.00000  Uiso   1.00
N134   N     0.71542   0.50711   0.83988   0.00000  Uiso   1.00
N135   N     0.46269   0.82057   0.61467   0.00000  Uiso   1.00
N136   N     0.02173   0.31031   0.53240   0.00000  Uiso   1.00
N137   N     0.92684   0.43815   0.90997   0.00000  Uiso   1.00
N138   N     0.67411   0.75161   0.68476   0.00000  Uiso   1.00
C139   C     0.35581   0.74169   0.86725   0.00000  Uiso   1.00
C140   C     0.25837   0.76274   0.89710   0.00000  Uiso   1.00
C141   C     0.29420   0.81886   0.96123   0.00000  Uiso   1.00
C142   C     0.19009   0.82940   0.97904   0.00000  Uiso   1.00
C143   C     0.05931   0.86883   0.03218   0.00000  Uiso   1.00
C144   C     0.28451   0.79799   0.79304   0.00000  Uiso   1.00
C145   C     0.34233   0.88374   0.76968   0.00000  Uiso   1.00
C146   C     0.26022   0.92393   0.69989   0.00000  Uiso   1.00
C147   C     0.17007   0.01804   0.59146   0.00000  Uiso   1.00
C148   C     0.35416   0.60878   0.85512   0.00000  Uiso   1.00
C149   C     0.47055   0.53544   0.88394   0.00000  Uiso   1.00
C150   C     0.44708   0.41634   0.86639   0.00000  Uiso   1.00
C151   C     0.46507   0.21667   0.85435   0.00000  Uiso   1.00
C152   C     0.10717   0.66060   0.78482   0.00000  Uiso   1.00
C153   C     0.12332   0.71869   0.85232   0.00000  Uiso   1.00
C154   C     0.01912   0.72914   0.87004   0.00000  Uiso   1.00
C155   C     0.05480   0.78527   0.93419   0.00000  Uiso   1.00
C156   C     0.14946   0.75395   0.74827   0.00000  Uiso   1.00
C157   C     0.06725   0.79402   0.67849   0.00000  Uiso   1.00
C158   C     0.12493   0.87981   0.65503   0.00000  Uiso   1.00
C159   C     0.21911   0.56473   0.81034   0.00000  Uiso   1.00
C160   C     0.19546   0.44572   0.79274   0.00000  Uiso   1.00
C161   C     0.31179   0.37221   0.82154   0.00000  Uiso   1.00
H162   H     0.46095   0.77598   0.90210   0.00000  Uiso   1.00
H163   H     0.39873   0.85294   0.99586   0.00000  Uiso   1.00
H164   H     0.44685   0.91780   0.80434   0.00000  Uiso   1.00
H165   H     0.57504   0.56956   0.91858   0.00000  Uiso   1.00
H166   H     0.27017   0.91888   0.08006   0.00000  Uiso   1.00
H167   H     0.37166   0.05560   0.67622   0.00000  Uiso   1.00
H168   H     0.64198   0.32127   0.91711   0.00000  Uiso   1.00
H169   H     0.00203   0.62630   0.74996   0.00000  Uiso   1.00
H170   H     0.91462   0.69505   0.83538   0.00000  Uiso   1.00
H171   H     0.96275   0.75991   0.64385   0.00000  Uiso   1.00
H172   H     0.09094   0.41167   0.75809   0.00000  Uiso   1.00
H173   H     0.87725   0.79074   0.94980   0.00000  Uiso   1.00
H174   H     0.97875   0.92745   0.54596   0.00000  Uiso   1.00
H175   H     0.24906   0.19312   0.78686   0.00000  Uiso   1.00
O176   O     0.02448   0.90277   0.07386   0.00000  Uiso   1.00
O177   O     0.15765   0.08212   0.54403   0.00000  Uiso   1.00
O178   O     0.51230   0.11869   0.86008   0.00000  Uiso   1.00
N179   N     0.18970   0.87927   0.03769   0.00000  Uiso   1.00
N180   N     0.28458   0.00711   0.66012   0.00000  Uiso   1.00
N181   N     0.53731   0.32057   0.88533   0.00000  Uiso   1.00
N182   N     0.97827   0.81031   0.96760   0.00000  Uiso   1.00
N183   N     0.07316   0.93815   0.59003   0.00000  Uiso   1.00
N184   N     0.32589   0.25161   0.81524   0.00000  Uiso   1.00
