data_job_05943
_audit_creation_date              2018-12-19
_audit_creation_method            'Materials Studio'
_symmetry_space_group_name_H-M    'P1'
_symmetry_Int_Tables_number       1
_symmetry_cell_setting            triclinic
loop_
_symmetry_equiv_pos_as_xyz
  x,y,z
_cell_length_a                    9.4784
_cell_length_b                    19.8428
_cell_length_c                    19.8513
_cell_angle_alpha                 62.5140
_cell_angle_beta                  80.8829
_cell_angle_gamma                 99.1163
loop_
_atom_site_label
_atom_site_type_symbol
_atom_site_fract_x
_atom_site_fract_y
_atom_site_fract_z
_atom_site_U_iso_or_equiv
_atom_site_adp_type
_atom_site_occupancy
C1     C     0.95457   0.92612   0.29041   0.00000  Uiso   1.00
C2     C     0.93737   0.84693   0.36296   0.00000  Uiso   1.00
C3     C     0.00558   0.78936   0.36490   0.00000  Uiso   1.00
C4     C     0.97558   0.72099   0.43704   0.00000  Uiso   1.00
C5     C     0.96324   0.59958   0.53938   0.00000  Uiso   1.00
C6     C     0.79835   0.92975   0.28211   0.00000  Uiso   1.00
C7     C     0.74968   0.94183   0.21606   0.00000  Uiso   1.00
C8     C     0.60264   0.94319   0.22014   0.00000  Uiso   1.00
C9     C     0.37449   0.95043   0.19693   0.00000  Uiso   1.00
C10    C     0.00835   0.98864   0.31162   0.00000  Uiso   1.00
C11    C     0.13624   0.05024   0.27037   0.00000  Uiso   1.00
C12    C     0.16601   0.10119   0.29928   0.00000  Uiso   1.00
C13    C     0.26393   0.19985   0.32188   0.00000  Uiso   1.00
C14    C     0.78000   0.90709   0.41509   0.00000  Uiso   1.00
C15    C     0.84255   0.83659   0.43068   0.00000  Uiso   1.00
C16    C     0.81244   0.76829   0.50284   0.00000  Uiso   1.00
C17    C     0.88060   0.71063   0.50489   0.00000  Uiso   1.00
C18    C     0.70352   0.91941   0.34983   0.00000  Uiso   1.00
C19    C     0.55653   0.92077   0.35400   0.00000  Uiso   1.00
C20    C     0.50765   0.93284   0.28798   0.00000  Uiso   1.00
C21    C     0.91354   0.97830   0.37934   0.00000  Uiso   1.00
C22    C     0.94310   0.02917   0.40832   0.00000  Uiso   1.00
C23    C     0.07101   0.09083   0.36712   0.00000  Uiso   1.00
H24    H     0.02839   0.93417   0.23769   0.00000  Uiso   1.00
H25    H     0.07895   0.79738   0.31247   0.00000  Uiso   1.00
H26    H     0.82308   0.94984   0.16366   0.00000  Uiso   1.00
H27    H     0.20959   0.05822   0.21796   0.00000  Uiso   1.00
H28    H     0.09314   0.64114   0.42525   0.00000  Uiso   1.00
H29    H     0.55365   0.96264   0.11145   0.00000  Uiso   1.00
H30    H     0.36869   0.19119   0.22596   0.00000  Uiso   1.00
H31    H     0.70617   0.89904   0.46782   0.00000  Uiso   1.00
H32    H     0.73906   0.76031   0.55524   0.00000  Uiso   1.00
H33    H     0.48319   0.91277   0.40642   0.00000  Uiso   1.00
H34    H     0.86970   0.02115   0.46072   0.00000  Uiso   1.00
H35    H     0.81727   0.61105   0.62229   0.00000  Uiso   1.00
H36    H     0.27778   0.93255   0.30848   0.00000  Uiso   1.00
H37    H     0.09281   0.16110   0.42299   0.00000  Uiso   1.00
O38    O     0.98261   0.53546   0.57712   0.00000  Uiso   1.00
O39    O     0.27484   0.95726   0.16541   0.00000  Uiso   1.00
O40    O     0.34414   0.25711   0.31565   0.00000  Uiso   1.00
N41    N     0.02372   0.65311   0.45963   0.00000  Uiso   1.00
N42    N     0.51933   0.95367   0.16625   0.00000  Uiso   1.00
N43    N     0.28130   0.16736   0.27329   0.00000  Uiso   1.00
N44    N     0.87528   0.63692   0.56565   0.00000  Uiso   1.00
N45    N     0.37089   0.93748   0.27227   0.00000  Uiso   1.00
N46    N     0.13285   0.15117   0.37931   0.00000  Uiso   1.00
C47    C     0.02844   0.78323   0.92680   0.00000  Uiso   1.00
C48    C     0.09021   0.78978   0.84763   0.00000  Uiso   1.00
C49    C     0.21578   0.84532   0.79017   0.00000  Uiso   1.00
C50    C     0.25397   0.84147   0.72181   0.00000  Uiso   1.00
C51    C     0.36269   0.86040   0.60044   0.00000  Uiso   1.00
C52    C     0.86864   0.78797   0.93032   0.00000  Uiso   1.00
C53    C     0.80793   0.84198   0.94240   0.00000  Uiso   1.00
C54    C     0.65959   0.83659   0.94366   0.00000  Uiso   1.00
C55    C     0.42430   0.85267   0.95074   0.00000  Uiso   1.00
C56    C     0.01989   0.69957   0.98926   0.00000  Uiso   1.00
C57    C     0.08632   0.67925   0.05091   0.00000  Uiso   1.00
C58    C     0.06529   0.59943   0.10180   0.00000  Uiso   1.00
C59    C     0.06484   0.47825   0.20039   0.00000  Uiso   1.00
C60    C     0.87295   0.67763   0.90755   0.00000  Uiso   1.00
C61    C     0.00575   0.73243   0.83717   0.00000  Uiso   1.00
C62    C     0.04376   0.72849   0.76888   0.00000  Uiso   1.00
C63    C     0.16937   0.78401   0.71133   0.00000  Uiso   1.00
C64    C     0.78419   0.73062   0.91987   0.00000  Uiso   1.00
C65    C     0.63591   0.72514   0.92111   0.00000  Uiso   1.00
C66    C     0.57498   0.77913   0.93319   0.00000  Uiso   1.00
C67    C     0.93545   0.64221   0.97880   0.00000  Uiso   1.00
C68    C     0.91430   0.56241   0.02961   0.00000  Uiso   1.00
C69    C     0.98069   0.54197   0.09133   0.00000  Uiso   1.00
H70    H     0.09417   0.82789   0.93494   0.00000  Uiso   1.00
H71    H     0.28110   0.88971   0.79828   0.00000  Uiso   1.00
H72    H     0.87330   0.88635   0.95050   0.00000  Uiso   1.00
H73    H     0.15166   0.72365   0.05898   0.00000  Uiso   1.00
H74    H     0.45107   0.93297   0.64215   0.00000  Uiso   1.00
H75    H     0.59119   0.92588   0.96313   0.00000  Uiso   1.00
H76    H     0.17816   0.58279   0.19190   0.00000  Uiso   1.00
H77    H     0.80720   0.63297   0.89941   0.00000  Uiso   1.00
H78    H     0.97839   0.68410   0.76080   0.00000  Uiso   1.00
H79    H     0.57059   0.68075   0.91302   0.00000  Uiso   1.00
H80    H     0.84894   0.51804   0.02150   0.00000  Uiso   1.00
H81    H     0.20537   0.76609   0.61173   0.00000  Uiso   1.00
H82    H     0.34549   0.75901   0.93272   0.00000  Uiso   1.00
H83    H     0.93246   0.41591   0.16147   0.00000  Uiso   1.00
O84    O     0.44598   0.88669   0.53639   0.00000  Uiso   1.00
O85    O     0.31786   0.87739   0.95752   0.00000  Uiso   1.00
O86    O     0.08794   0.42726   0.25765   0.00000  Uiso   1.00
N87    N     0.36977   0.88667   0.65402   0.00000  Uiso   1.00
N88    N     0.56584   0.88005   0.95411   0.00000  Uiso   1.00
N89    N     0.11457   0.55929   0.16800   0.00000  Uiso   1.00
N90    N     0.23756   0.79687   0.63765   0.00000  Uiso   1.00
N91    N     0.43364   0.79026   0.93774   0.00000  Uiso   1.00
N92    N     0.98236   0.46949   0.15162   0.00000  Uiso   1.00
C93    C     0.24435   0.28951   0.78389   0.00000  Uiso   1.00
C94    C     0.29953   0.36211   0.79055   0.00000  Uiso   1.00
C95    C     0.36968   0.36405   0.84616   0.00000  Uiso   1.00
C96    C     0.41166   0.43625   0.84240   0.00000  Uiso   1.00
C97    C     0.50142   0.53866   0.86149   0.00000  Uiso   1.00
C98    C     0.07989   0.28132   0.78851   0.00000  Uiso   1.00
C99    C     0.96537   0.21532   0.84240   0.00000  Uiso   1.00
C100   C     0.82245   0.21950   0.83691   0.00000  Uiso   1.00
C101   C     0.57123   0.19646   0.85279   0.00000  Uiso   1.00
C102   C     0.31922   0.31061   0.70027   0.00000  Uiso   1.00
C103   C     0.40591   0.26923   0.67997   0.00000  Uiso   1.00
C104   C     0.46447   0.29807   0.60019   0.00000  Uiso   1.00
C105   C     0.58485   0.32051   0.47908   0.00000  Uiso   1.00
C106   C     0.19418   0.41429   0.67832   0.00000  Uiso   1.00
C107   C     0.27227   0.42989   0.73321   0.00000  Uiso   1.00
C108   C     0.31417   0.50210   0.72936   0.00000  Uiso   1.00
C109   C     0.38437   0.50415   0.78496   0.00000  Uiso   1.00
C110   C     0.05263   0.34909   0.73117   0.00000  Uiso   1.00
C111   C     0.90986   0.35337   0.72560   0.00000  Uiso   1.00
C112   C     0.79515   0.28740   0.77947   0.00000  Uiso   1.00
C113   C     0.29198   0.37839   0.64293   0.00000  Uiso   1.00
C114   C     0.35040   0.40729   0.56317   0.00000  Uiso   1.00
C115   C     0.43716   0.36596   0.54275   0.00000  Uiso   1.00
H116   H     0.26555   0.23675   0.82853   0.00000  Uiso   1.00
H117   H     0.39073   0.31159   0.89053   0.00000  Uiso   1.00
H118   H     0.98649   0.16288   0.88676   0.00000  Uiso   1.00
H119   H     0.42697   0.21679   0.72436   0.00000  Uiso   1.00
H120   H     0.51745   0.42444   0.93400   0.00000  Uiso   1.00
H121   H     0.66509   0.11087   0.92603   0.00000  Uiso   1.00
H122   H     0.59392   0.22455   0.58357   0.00000  Uiso   1.00
H123   H     0.17295   0.46706   0.63368   0.00000  Uiso   1.00
H124   H     0.29306   0.55454   0.68499   0.00000  Uiso   1.00
H125   H     0.88881   0.40583   0.68122   0.00000  Uiso   1.00
H126   H     0.32929   0.45974   0.51881   0.00000  Uiso   1.00
H127   H     0.43817   0.62163   0.76717   0.00000  Uiso   1.00
H128   H     0.58580   0.30805   0.75920   0.00000  Uiso   1.00
H129   H     0.51464   0.42174   0.41675   0.00000  Uiso   1.00
O130   O     0.55845   0.57643   0.88787   0.00000  Uiso   1.00
O131   O     0.44018   0.16502   0.87740   0.00000  Uiso   1.00
O132   O     0.65879   0.31417   0.42811   0.00000  Uiso   1.00
N133   N     0.48234   0.45885   0.88769   0.00000  Uiso   1.00
N134   N     0.68542   0.16568   0.88024   0.00000  Uiso   1.00
N135   N     0.55377   0.27195   0.56007   0.00000  Uiso   1.00
N136   N     0.43968   0.56496   0.79792   0.00000  Uiso   1.00
N137   N     0.64277   0.27179   0.79047   0.00000  Uiso   1.00
N138   N     0.51111   0.37806   0.47031   0.00000  Uiso   1.00
C139   C     0.04543   0.07388   0.70959   0.00000  Uiso   1.00
C140   C     0.06263   0.15307   0.63704   0.00000  Uiso   1.00
C141   C     0.99442   0.21064   0.63510   0.00000  Uiso   1.00
C142   C     0.02442   0.27901   0.56296   0.00000  Uiso   1.00
C143   C     0.03676   0.40042   0.46062   0.00000  Uiso   1.00
C144   C     0.20165   0.07025   0.71789   0.00000  Uiso   1.00
C145   C     0.25032   0.05817   0.78394   0.00000  Uiso   1.00
C146   C     0.39736   0.05681   0.77986   0.00000  Uiso   1.00
C147   C     0.62551   0.04957   0.80307   0.00000  Uiso   1.00
C148   C     0.99165   0.01136   0.68838   0.00000  Uiso   1.00
C149   C     0.86376   0.94976   0.72963   0.00000  Uiso   1.00
C150   C     0.83399   0.89881   0.70072   0.00000  Uiso   1.00
C151   C     0.73607   0.80015   0.67812   0.00000  Uiso   1.00
C152   C     0.22000   0.09291   0.58491   0.00000  Uiso   1.00
C153   C     0.15745   0.16341   0.56932   0.00000  Uiso   1.00
C154   C     0.18756   0.23171   0.49716   0.00000  Uiso   1.00
C155   C     0.11940   0.28937   0.49511   0.00000  Uiso   1.00
C156   C     0.29648   0.08059   0.65017   0.00000  Uiso   1.00
C157   C     0.44347   0.07923   0.64600   0.00000  Uiso   1.00
C158   C     0.49235   0.06716   0.71202   0.00000  Uiso   1.00
C159   C     0.08646   0.02170   0.62066   0.00000  Uiso   1.00
C160   C     0.05690   0.97083   0.59169   0.00000  Uiso   1.00
C161   C     0.92899   0.90917   0.63288   0.00000  Uiso   1.00
H162   H     0.97161   0.06583   0.76231   0.00000  Uiso   1.00
H163   H     0.92105   0.20262   0.68753   0.00000  Uiso   1.00
H164   H     0.17692   0.05016   0.83634   0.00000  Uiso   1.00
H165   H     0.79041   0.94178   0.78204   0.00000  Uiso   1.00
H166   H     0.90686   0.35886   0.57475   0.00000  Uiso   1.00
H167   H     0.44635   0.03736   0.88855   0.00000  Uiso   1.00
H168   H     0.63131   0.80881   0.77404   0.00000  Uiso   1.00
H169   H     0.29383   0.10097   0.53218   0.00000  Uiso   1.00
H170   H     0.26094   0.23969   0.44476   0.00000  Uiso   1.00
H171   H     0.51681   0.08723   0.59358   0.00000  Uiso   1.00
H172   H     0.13030   0.97885   0.53928   0.00000  Uiso   1.00
H173   H     0.18273   0.38895   0.37771   0.00000  Uiso   1.00
H174   H     0.72222   0.06745   0.69152   0.00000  Uiso   1.00
H175   H     0.90719   0.83890   0.57701   0.00000  Uiso   1.00
O176   O     0.01739   0.46454   0.42288   0.00000  Uiso   1.00
O177   O     0.72516   0.04274   0.83459   0.00000  Uiso   1.00
O178   O     0.65586   0.74289   0.68435   0.00000  Uiso   1.00
N179   N     0.97628   0.34689   0.54037   0.00000  Uiso   1.00
N180   N     0.48067   0.04633   0.83375   0.00000  Uiso   1.00
N181   N     0.71870   0.83264   0.72671   0.00000  Uiso   1.00
N182   N     0.12472   0.36308   0.43435   0.00000  Uiso   1.00
N183   N     0.62911   0.06252   0.72773   0.00000  Uiso   1.00
N184   N     0.86715   0.84883   0.62069   0.00000  Uiso   1.00
C185   C     0.97157   0.21677   0.07320   0.00000  Uiso   1.00
C186   C     0.90979   0.21022   0.15237   0.00000  Uiso   1.00
C187   C     0.78422   0.15468   0.20983   0.00000  Uiso   1.00
C188   C     0.74603   0.15853   0.27819   0.00000  Uiso   1.00
C189   C     0.63731   0.13960   0.39956   0.00000  Uiso   1.00
C190   C     0.13136   0.21203   0.06968   0.00000  Uiso   1.00
C191   C     0.19207   0.15802   0.05760   0.00000  Uiso   1.00
C192   C     0.34041   0.16341   0.05634   0.00000  Uiso   1.00
C193   C     0.57570   0.14733   0.04926   0.00000  Uiso   1.00
C194   C     0.98011   0.30043   0.01074   0.00000  Uiso   1.00
C195   C     0.91369   0.32075   0.94909   0.00000  Uiso   1.00
C196   C     0.93471   0.40057   0.89820   0.00000  Uiso   1.00
C197   C     0.93516   0.52175   0.79961   0.00000  Uiso   1.00
C198   C     0.12705   0.32237   0.09245   0.00000  Uiso   1.00
C199   C     0.99425   0.26757   0.16283   0.00000  Uiso   1.00
C200   C     0.95624   0.27151   0.23112   0.00000  Uiso   1.00
C201   C     0.83063   0.21599   0.28867   0.00000  Uiso   1.00
C202   C     0.21581   0.26938   0.08013   0.00000  Uiso   1.00
C203   C     0.36409   0.27486   0.07889   0.00000  Uiso   1.00
C204   C     0.42502   0.22087   0.06681   0.00000  Uiso   1.00
C205   C     0.06455   0.35779   0.02120   0.00000  Uiso   1.00
C206   C     0.08570   0.43759   0.97039   0.00000  Uiso   1.00
C207   C     0.01931   0.45803   0.90867   0.00000  Uiso   1.00
H208   H     0.90583   0.17211   0.06506   0.00000  Uiso   1.00
H209   H     0.71890   0.11029   0.20172   0.00000  Uiso   1.00
H210   H     0.12670   0.11365   0.04950   0.00000  Uiso   1.00
H211   H     0.84834   0.27635   0.94102   0.00000  Uiso   1.00
H212   H     0.54893   0.06703   0.35785   0.00000  Uiso   1.00
H213   H     0.40880   0.07412   0.03687   0.00000  Uiso   1.00
H214   H     0.82184   0.41721   0.80810   0.00000  Uiso   1.00
H215   H     0.19280   0.36703   0.10059   0.00000  Uiso   1.00
H216   H     0.02161   0.31590   0.23920   0.00000  Uiso   1.00
H217   H     0.42941   0.31925   0.08698   0.00000  Uiso   1.00
H218   H     0.15106   0.48196   0.97850   0.00000  Uiso   1.00
H219   H     0.79463   0.23391   0.38827   0.00000  Uiso   1.00
H220   H     0.65451   0.24099   0.06728   0.00000  Uiso   1.00
H221   H     0.06754   0.58409   0.83853   0.00000  Uiso   1.00
O222   O     0.55402   0.11331   0.46361   0.00000  Uiso   1.00
O223   O     0.68214   0.12261   0.04248   0.00000  Uiso   1.00
O224   O     0.91206   0.57274   0.74235   0.00000  Uiso   1.00
N225   N     0.63023   0.11333   0.34598   0.00000  Uiso   1.00
N226   N     0.43416   0.11995   0.04589   0.00000  Uiso   1.00
N227   N     0.88543   0.44071   0.83200   0.00000  Uiso   1.00
N228   N     0.76244   0.20313   0.36235   0.00000  Uiso   1.00
N229   N     0.56636   0.20974   0.06226   0.00000  Uiso   1.00
N230   N     0.01764   0.53051   0.84838   0.00000  Uiso   1.00
C231   C     0.75565   0.71049   0.21611   0.00000  Uiso   1.00
C232   C     0.70047   0.63789   0.20945   0.00000  Uiso   1.00
C233   C     0.63033   0.63595   0.15384   0.00000  Uiso   1.00
C234   C     0.58834   0.56375   0.15760   0.00000  Uiso   1.00
C235   C     0.49858   0.46134   0.13851   0.00000  Uiso   1.00
C236   C     0.92011   0.71868   0.21149   0.00000  Uiso   1.00
C237   C     0.03463   0.78468   0.15760   0.00000  Uiso   1.00
C238   C     0.17755   0.78050   0.16309   0.00000  Uiso   1.00
C239   C     0.42877   0.80354   0.14721   0.00000  Uiso   1.00
C240   C     0.68078   0.68939   0.29973   0.00000  Uiso   1.00
C241   C     0.59409   0.73077   0.32003   0.00000  Uiso   1.00
C242   C     0.53553   0.70193   0.39981   0.00000  Uiso   1.00
C243   C     0.41515   0.67949   0.52093   0.00000  Uiso   1.00
C244   C     0.80582   0.58571   0.32168   0.00000  Uiso   1.00
C245   C     0.72773   0.57011   0.26679   0.00000  Uiso   1.00
C246   C     0.68583   0.49790   0.27064   0.00000  Uiso   1.00
C247   C     0.61564   0.49585   0.21504   0.00000  Uiso   1.00
C248   C     0.94737   0.65091   0.26883   0.00000  Uiso   1.00
C249   C     0.09014   0.64663   0.27440   0.00000  Uiso   1.00
C250   C     0.20485   0.71260   0.22053   0.00000  Uiso   1.00
C251   C     0.70802   0.62161   0.35707   0.00000  Uiso   1.00
C252   C     0.64960   0.59271   0.43683   0.00000  Uiso   1.00
C253   C     0.56284   0.63404   0.45725   0.00000  Uiso   1.00
H254   H     0.73445   0.76325   0.17147   0.00000  Uiso   1.00
H255   H     0.60927   0.68841   0.10947   0.00000  Uiso   1.00
H256   H     0.01351   0.83712   0.11324   0.00000  Uiso   1.00
H257   H     0.57303   0.78321   0.27564   0.00000  Uiso   1.00
H258   H     0.48255   0.57556   0.06600   0.00000  Uiso   1.00
H259   H     0.33491   0.88913   0.07397   0.00000  Uiso   1.00
H260   H     0.40608   0.77545   0.41643   0.00000  Uiso   1.00
H261   H     0.82705   0.53294   0.36632   0.00000  Uiso   1.00
H262   H     0.70694   0.44546   0.31501   0.00000  Uiso   1.00
H263   H     0.11119   0.59417   0.31878   0.00000  Uiso   1.00
H264   H     0.67071   0.54026   0.48119   0.00000  Uiso   1.00
H265   H     0.56183   0.37837   0.23283   0.00000  Uiso   1.00
H266   H     0.41420   0.69195   0.24080   0.00000  Uiso   1.00
H267   H     0.48536   0.57826   0.58325   0.00000  Uiso   1.00
O268   O     0.44156   0.42357   0.11213   0.00000  Uiso   1.00
O269   O     0.55982   0.83498   0.12260   0.00000  Uiso   1.00
O270   O     0.34121   0.68583   0.57189   0.00000  Uiso   1.00
N271   N     0.51766   0.54115   0.11231   0.00000  Uiso   1.00
N272   N     0.31458   0.83432   0.11976   0.00000  Uiso   1.00
N273   N     0.44623   0.72805   0.43993   0.00000  Uiso   1.00
N274   N     0.56032   0.43504   0.20208   0.00000  Uiso   1.00
N275   N     0.35723   0.72821   0.20953   0.00000  Uiso   1.00
N276   N     0.48889   0.62194   0.52969   0.00000  Uiso   1.00
