data_job_02108
_audit_creation_date              2018-12-19
_audit_creation_method            'Materials Studio'
_symmetry_space_group_name_H-M    'P1'
_symmetry_Int_Tables_number       1
_symmetry_cell_setting            triclinic
loop_
_symmetry_equiv_pos_as_xyz
  x,y,z
_cell_length_a                    21.2708
_cell_length_b                    21.2708
_cell_length_c                    12.4044
_cell_angle_alpha                 90.0000
_cell_angle_beta                  90.0000
_cell_angle_gamma                 90.0000
loop_
_atom_site_label
_atom_site_type_symbol
_atom_site_fract_x
_atom_site_fract_y
_atom_site_fract_z
_atom_site_U_iso_or_equiv
_atom_site_adp_type
_atom_site_occupancy
C1     C     0.82168   0.79115   0.39001   0.00000  Uiso   1.00
C2     C     0.86066   0.82441   0.47598   0.00000  Uiso   1.00
C3     C     0.83893   0.84423   0.57584   0.00000  Uiso   1.00
C4     C     0.88197   0.87377   0.64303   0.00000  Uiso   1.00
C5     C     0.93298   0.92403   0.78131   0.00000  Uiso   1.00
C6     C     0.82738   0.83109   0.28840   0.00000  Uiso   1.00
C7     C     0.77766   0.85653   0.23054   0.00000  Uiso   1.00
C8     C     0.79269   0.89169   0.13982   0.00000  Uiso   1.00
C9     C     0.79203   0.95228   0.98683   0.00000  Uiso   1.00
C10    C     0.85585   0.72974   0.36573   0.00000  Uiso   1.00
C11    C     0.83006   0.66995   0.37287   0.00000  Uiso   1.00
C12    C     0.86905   0.61977   0.34724   0.00000  Uiso   1.00
C13    C     0.91259   0.52299   0.31433   0.00000  Uiso   1.00
C14    C     0.93675   0.80836   0.33177   0.00000  Uiso   1.00
C15    C     0.92317   0.83376   0.44434   0.00000  Uiso   1.00
C16    C     0.96625   0.86327   0.51140   0.00000  Uiso   1.00
C17    C     0.94458   0.88314   0.61135   0.00000  Uiso   1.00
C18    C     0.88988   0.84044   0.25676   0.00000  Uiso   1.00
C19    C     0.90498   0.87557   0.16610   0.00000  Uiso   1.00
C20    C     0.85530   0.90105   0.10813   0.00000  Uiso   1.00
C21    C     0.91835   0.73908   0.33410   0.00000  Uiso   1.00
C22    C     0.95738   0.68899   0.30844   0.00000  Uiso   1.00
C23    C     0.93166   0.62914   0.31555   0.00000  Uiso   1.00
H24    H     0.77301   0.78387   0.41463   0.00000  Uiso   1.00
H25    H     0.79055   0.83700   0.60028   0.00000  Uiso   1.00
H26    H     0.72930   0.84928   0.25503   0.00000  Uiso   1.00
H27    H     0.78169   0.66273   0.39735   0.00000  Uiso   1.00
H28    H     0.83756   0.90004   0.79215   0.00000  Uiso   1.00
H29    H     0.70840   0.92593   0.06415   0.00000  Uiso   1.00
H30    H     0.81887   0.53255   0.36425   0.00000  Uiso   1.00
H31    H     0.98542   0.81563   0.30713   0.00000  Uiso   1.00
H32    H     0.01462   0.87050   0.48690   0.00000  Uiso   1.00
H33    H     0.95336   0.88279   0.14164   0.00000  Uiso   1.00
H34    H     0.00575   0.69624   0.28397   0.00000  Uiso   1.00
H35    H     0.01941   0.92723   0.70012   0.00000  Uiso   1.00
H36    H     0.89025   0.95312   0.97211   0.00000  Uiso   1.00
H37    H     0.00073   0.55974   0.27223   0.00000  Uiso   1.00
O38    O     0.94385   0.94917   0.86631   0.00000  Uiso   1.00
O39    O     0.77440   0.98313   0.91119   0.00000  Uiso   1.00
O40    O     0.91934   0.46703   0.30493   0.00000  Uiso   1.00
N41    N     0.87635   0.89890   0.74583   0.00000  Uiso   1.00
N42    N     0.75560   0.92311   0.06520   0.00000  Uiso   1.00
N43    N     0.85888   0.55533   0.34575   0.00000  Uiso   1.00
N44    N     0.97421   0.91353   0.69631   0.00000  Uiso   1.00
N45    N     0.85345   0.93774   0.01568   0.00000  Uiso   1.00
N46    N     0.95673   0.56997   0.29623   0.00000  Uiso   1.00
C47    C     0.17832   0.20885   0.39001   0.00000  Uiso   1.00
C48    C     0.13934   0.17559   0.47598   0.00000  Uiso   1.00
C49    C     0.16107   0.15577   0.57584   0.00000  Uiso   1.00
C50    C     0.11803   0.12623   0.64303   0.00000  Uiso   1.00
C51    C     0.06702   0.07597   0.78131   0.00000  Uiso   1.00
C52    C     0.17262   0.16891   0.28840   0.00000  Uiso   1.00
C53    C     0.22234   0.14347   0.23054   0.00000  Uiso   1.00
C54    C     0.20731   0.10831   0.13982   0.00000  Uiso   1.00
C55    C     0.20797   0.04772   0.98683   0.00000  Uiso   1.00
C56    C     0.14415   0.27026   0.36573   0.00000  Uiso   1.00
C57    C     0.16994   0.33005   0.37287   0.00000  Uiso   1.00
C58    C     0.13095   0.38023   0.34724   0.00000  Uiso   1.00
C59    C     0.08741   0.47701   0.31433   0.00000  Uiso   1.00
C60    C     0.06325   0.19164   0.33177   0.00000  Uiso   1.00
C61    C     0.07683   0.16624   0.44434   0.00000  Uiso   1.00
C62    C     0.03375   0.13673   0.51140   0.00000  Uiso   1.00
C63    C     0.05542   0.11686   0.61135   0.00000  Uiso   1.00
C64    C     0.11012   0.15956   0.25676   0.00000  Uiso   1.00
C65    C     0.09502   0.12443   0.16610   0.00000  Uiso   1.00
C66    C     0.14470   0.09895   0.10813   0.00000  Uiso   1.00
C67    C     0.08165   0.26092   0.33410   0.00000  Uiso   1.00
C68    C     0.04262   0.31101   0.30844   0.00000  Uiso   1.00
C69    C     0.06834   0.37086   0.31555   0.00000  Uiso   1.00
H70    H     0.22699   0.21613   0.41463   0.00000  Uiso   1.00
H71    H     0.20945   0.16300   0.60028   0.00000  Uiso   1.00
H72    H     0.27070   0.15072   0.25503   0.00000  Uiso   1.00
H73    H     0.21831   0.33727   0.39735   0.00000  Uiso   1.00
H74    H     0.16244   0.09996   0.79215   0.00000  Uiso   1.00
H75    H     0.29160   0.07407   0.06415   0.00000  Uiso   1.00
H76    H     0.18113   0.46745   0.36425   0.00000  Uiso   1.00
H77    H     0.01458   0.18437   0.30713   0.00000  Uiso   1.00
H78    H     0.98538   0.12950   0.48690   0.00000  Uiso   1.00
H79    H     0.04664   0.11721   0.14164   0.00000  Uiso   1.00
H80    H     0.99425   0.30376   0.28397   0.00000  Uiso   1.00
H81    H     0.98059   0.07277   0.70012   0.00000  Uiso   1.00
H82    H     0.10975   0.04688   0.97211   0.00000  Uiso   1.00
H83    H     0.99927   0.44026   0.27223   0.00000  Uiso   1.00
O84    O     0.05615   0.05083   0.86631   0.00000  Uiso   1.00
O85    O     0.22560   0.01687   0.91119   0.00000  Uiso   1.00
O86    O     0.08066   0.53297   0.30493   0.00000  Uiso   1.00
N87    N     0.12365   0.10110   0.74583   0.00000  Uiso   1.00
N88    N     0.24440   0.07689   0.06520   0.00000  Uiso   1.00
N89    N     0.14112   0.44467   0.34575   0.00000  Uiso   1.00
N90    N     0.02579   0.08647   0.69631   0.00000  Uiso   1.00
N91    N     0.14655   0.06226   0.01568   0.00000  Uiso   1.00
N92    N     0.04327   0.43003   0.29623   0.00000  Uiso   1.00
C93    C     0.79115   0.17832   0.60999   0.00000  Uiso   1.00
C94    C     0.82441   0.13934   0.52402   0.00000  Uiso   1.00
C95    C     0.84423   0.16107   0.42416   0.00000  Uiso   1.00
C96    C     0.87377   0.11803   0.35697   0.00000  Uiso   1.00
C97    C     0.92403   0.06702   0.21869   0.00000  Uiso   1.00
C98    C     0.83109   0.17262   0.71160   0.00000  Uiso   1.00
C99    C     0.85653   0.22234   0.76946   0.00000  Uiso   1.00
C100   C     0.89169   0.20731   0.86018   0.00000  Uiso   1.00
C101   C     0.95228   0.20797   0.01317   0.00000  Uiso   1.00
C102   C     0.72974   0.14415   0.63427   0.00000  Uiso   1.00
C103   C     0.66995   0.16994   0.62713   0.00000  Uiso   1.00
C104   C     0.61977   0.13095   0.65276   0.00000  Uiso   1.00
C105   C     0.52299   0.08741   0.68567   0.00000  Uiso   1.00
C106   C     0.80836   0.06325   0.66823   0.00000  Uiso   1.00
C107   C     0.83376   0.07683   0.55566   0.00000  Uiso   1.00
C108   C     0.86327   0.03375   0.48860   0.00000  Uiso   1.00
C109   C     0.88314   0.05542   0.38865   0.00000  Uiso   1.00
C110   C     0.84044   0.11012   0.74324   0.00000  Uiso   1.00
C111   C     0.87557   0.09502   0.83390   0.00000  Uiso   1.00
C112   C     0.90105   0.14470   0.89187   0.00000  Uiso   1.00
C113   C     0.73908   0.08165   0.66590   0.00000  Uiso   1.00
C114   C     0.68899   0.04262   0.69156   0.00000  Uiso   1.00
C115   C     0.62914   0.06834   0.68445   0.00000  Uiso   1.00
H116   H     0.78387   0.22699   0.58537   0.00000  Uiso   1.00
H117   H     0.83700   0.20945   0.39972   0.00000  Uiso   1.00
H118   H     0.84928   0.27070   0.74497   0.00000  Uiso   1.00
H119   H     0.66273   0.21831   0.60265   0.00000  Uiso   1.00
H120   H     0.90004   0.16244   0.20785   0.00000  Uiso   1.00
H121   H     0.92593   0.29160   0.93585   0.00000  Uiso   1.00
H122   H     0.53255   0.18113   0.63575   0.00000  Uiso   1.00
H123   H     0.81563   0.01458   0.69287   0.00000  Uiso   1.00
H124   H     0.87050   0.98538   0.51310   0.00000  Uiso   1.00
H125   H     0.88279   0.04664   0.85836   0.00000  Uiso   1.00
H126   H     0.69624   0.99425   0.71603   0.00000  Uiso   1.00
H127   H     0.92723   0.98059   0.29988   0.00000  Uiso   1.00
H128   H     0.95312   0.10975   0.02789   0.00000  Uiso   1.00
H129   H     0.55974   0.99927   0.72777   0.00000  Uiso   1.00
O130   O     0.94917   0.05615   0.13369   0.00000  Uiso   1.00
O131   O     0.98313   0.22560   0.08881   0.00000  Uiso   1.00
O132   O     0.46703   0.08066   0.69507   0.00000  Uiso   1.00
N133   N     0.89890   0.12365   0.25417   0.00000  Uiso   1.00
N134   N     0.92311   0.24440   0.93480   0.00000  Uiso   1.00
N135   N     0.55533   0.14112   0.65425   0.00000  Uiso   1.00
N136   N     0.91353   0.02579   0.30369   0.00000  Uiso   1.00
N137   N     0.93774   0.14655   0.98432   0.00000  Uiso   1.00
N138   N     0.56997   0.04327   0.70377   0.00000  Uiso   1.00
C139   C     0.20885   0.82168   0.60999   0.00000  Uiso   1.00
C140   C     0.17559   0.86066   0.52402   0.00000  Uiso   1.00
C141   C     0.15577   0.83893   0.42416   0.00000  Uiso   1.00
C142   C     0.12623   0.88197   0.35697   0.00000  Uiso   1.00
C143   C     0.07597   0.93298   0.21869   0.00000  Uiso   1.00
C144   C     0.16891   0.82738   0.71160   0.00000  Uiso   1.00
C145   C     0.14347   0.77766   0.76946   0.00000  Uiso   1.00
C146   C     0.10831   0.79269   0.86018   0.00000  Uiso   1.00
C147   C     0.04772   0.79203   0.01317   0.00000  Uiso   1.00
C148   C     0.27026   0.85585   0.63427   0.00000  Uiso   1.00
C149   C     0.33005   0.83006   0.62713   0.00000  Uiso   1.00
C150   C     0.38023   0.86905   0.65276   0.00000  Uiso   1.00
C151   C     0.47701   0.91259   0.68567   0.00000  Uiso   1.00
C152   C     0.19164   0.93675   0.66823   0.00000  Uiso   1.00
C153   C     0.16624   0.92317   0.55566   0.00000  Uiso   1.00
C154   C     0.13673   0.96625   0.48860   0.00000  Uiso   1.00
C155   C     0.11686   0.94458   0.38865   0.00000  Uiso   1.00
C156   C     0.15956   0.88988   0.74324   0.00000  Uiso   1.00
C157   C     0.12443   0.90498   0.83390   0.00000  Uiso   1.00
C158   C     0.09895   0.85530   0.89187   0.00000  Uiso   1.00
C159   C     0.26092   0.91835   0.66590   0.00000  Uiso   1.00
C160   C     0.31101   0.95738   0.69156   0.00000  Uiso   1.00
C161   C     0.37086   0.93166   0.68445   0.00000  Uiso   1.00
H162   H     0.21613   0.77301   0.58537   0.00000  Uiso   1.00
H163   H     0.16300   0.79055   0.39972   0.00000  Uiso   1.00
H164   H     0.15072   0.72930   0.74497   0.00000  Uiso   1.00
H165   H     0.33727   0.78169   0.60265   0.00000  Uiso   1.00
H166   H     0.09996   0.83756   0.20785   0.00000  Uiso   1.00
H167   H     0.07407   0.70840   0.93585   0.00000  Uiso   1.00
H168   H     0.46745   0.81887   0.63575   0.00000  Uiso   1.00
H169   H     0.18437   0.98542   0.69287   0.00000  Uiso   1.00
H170   H     0.12950   0.01462   0.51310   0.00000  Uiso   1.00
H171   H     0.11721   0.95336   0.85836   0.00000  Uiso   1.00
H172   H     0.30376   0.00575   0.71603   0.00000  Uiso   1.00
H173   H     0.07277   0.01941   0.29988   0.00000  Uiso   1.00
H174   H     0.04688   0.89025   0.02789   0.00000  Uiso   1.00
H175   H     0.44026   0.00073   0.72777   0.00000  Uiso   1.00
O176   O     0.05083   0.94385   0.13369   0.00000  Uiso   1.00
O177   O     0.01687   0.77440   0.08881   0.00000  Uiso   1.00
O178   O     0.53297   0.91934   0.69507   0.00000  Uiso   1.00
N179   N     0.10110   0.87635   0.25417   0.00000  Uiso   1.00
N180   N     0.07689   0.75560   0.93480   0.00000  Uiso   1.00
N181   N     0.44467   0.85888   0.65425   0.00000  Uiso   1.00
N182   N     0.08647   0.97421   0.30369   0.00000  Uiso   1.00
N183   N     0.06226   0.85345   0.98432   0.00000  Uiso   1.00
N184   N     0.43003   0.95673   0.70377   0.00000  Uiso   1.00
C185   C     0.32168   0.70885   0.39001   0.00000  Uiso   1.00
C186   C     0.36066   0.67559   0.47598   0.00000  Uiso   1.00
C187   C     0.33893   0.65577   0.57584   0.00000  Uiso   1.00
C188   C     0.38197   0.62623   0.64303   0.00000  Uiso   1.00
C189   C     0.43298   0.57597   0.78131   0.00000  Uiso   1.00
C190   C     0.32738   0.66891   0.28840   0.00000  Uiso   1.00
C191   C     0.27766   0.64347   0.23054   0.00000  Uiso   1.00
C192   C     0.29269   0.60831   0.13982   0.00000  Uiso   1.00
C193   C     0.29203   0.54772   0.98683   0.00000  Uiso   1.00
C194   C     0.35585   0.77026   0.36573   0.00000  Uiso   1.00
C195   C     0.33006   0.83005   0.37287   0.00000  Uiso   1.00
C196   C     0.36905   0.88023   0.34724   0.00000  Uiso   1.00
C197   C     0.41259   0.97701   0.31433   0.00000  Uiso   1.00
C198   C     0.43675   0.69164   0.33177   0.00000  Uiso   1.00
C199   C     0.42317   0.66624   0.44434   0.00000  Uiso   1.00
C200   C     0.46625   0.63673   0.51140   0.00000  Uiso   1.00
C201   C     0.44458   0.61686   0.61135   0.00000  Uiso   1.00
C202   C     0.38988   0.65956   0.25676   0.00000  Uiso   1.00
C203   C     0.40498   0.62443   0.16610   0.00000  Uiso   1.00
C204   C     0.35530   0.59895   0.10813   0.00000  Uiso   1.00
C205   C     0.41835   0.76092   0.33410   0.00000  Uiso   1.00
C206   C     0.45738   0.81101   0.30844   0.00000  Uiso   1.00
C207   C     0.43166   0.87086   0.31555   0.00000  Uiso   1.00
H208   H     0.27301   0.71613   0.41463   0.00000  Uiso   1.00
H209   H     0.29055   0.66300   0.60028   0.00000  Uiso   1.00
H210   H     0.22930   0.65072   0.25503   0.00000  Uiso   1.00
H211   H     0.28169   0.83727   0.39735   0.00000  Uiso   1.00
H212   H     0.33756   0.59996   0.79215   0.00000  Uiso   1.00
H213   H     0.20840   0.57407   0.06415   0.00000  Uiso   1.00
H214   H     0.31887   0.96745   0.36425   0.00000  Uiso   1.00
H215   H     0.48542   0.68437   0.30713   0.00000  Uiso   1.00
H216   H     0.51462   0.62950   0.48690   0.00000  Uiso   1.00
H217   H     0.45336   0.61721   0.14164   0.00000  Uiso   1.00
H218   H     0.50575   0.80376   0.28397   0.00000  Uiso   1.00
H219   H     0.51941   0.57277   0.70012   0.00000  Uiso   1.00
H220   H     0.39025   0.54688   0.97211   0.00000  Uiso   1.00
H221   H     0.50073   0.94026   0.27223   0.00000  Uiso   1.00
O222   O     0.44385   0.55083   0.86631   0.00000  Uiso   1.00
O223   O     0.27440   0.51687   0.91119   0.00000  Uiso   1.00
O224   O     0.41934   0.03297   0.30493   0.00000  Uiso   1.00
N225   N     0.37635   0.60110   0.74583   0.00000  Uiso   1.00
N226   N     0.25560   0.57689   0.06520   0.00000  Uiso   1.00
N227   N     0.35888   0.94467   0.34575   0.00000  Uiso   1.00
N228   N     0.47421   0.58647   0.69631   0.00000  Uiso   1.00
N229   N     0.35345   0.56226   0.01568   0.00000  Uiso   1.00
N230   N     0.45673   0.93003   0.29623   0.00000  Uiso   1.00
C231   C     0.67832   0.29115   0.39001   0.00000  Uiso   1.00
C232   C     0.63934   0.32441   0.47598   0.00000  Uiso   1.00
C233   C     0.66107   0.34423   0.57584   0.00000  Uiso   1.00
C234   C     0.61803   0.37377   0.64303   0.00000  Uiso   1.00
C235   C     0.56702   0.42403   0.78131   0.00000  Uiso   1.00
C236   C     0.67262   0.33109   0.28840   0.00000  Uiso   1.00
C237   C     0.72234   0.35653   0.23054   0.00000  Uiso   1.00
C238   C     0.70731   0.39169   0.13982   0.00000  Uiso   1.00
C239   C     0.70797   0.45228   0.98683   0.00000  Uiso   1.00
C240   C     0.64415   0.22974   0.36573   0.00000  Uiso   1.00
C241   C     0.66994   0.16995   0.37287   0.00000  Uiso   1.00
C242   C     0.63095   0.11977   0.34724   0.00000  Uiso   1.00
C243   C     0.58741   0.02299   0.31433   0.00000  Uiso   1.00
C244   C     0.56325   0.30836   0.33177   0.00000  Uiso   1.00
C245   C     0.57683   0.33376   0.44434   0.00000  Uiso   1.00
C246   C     0.53375   0.36327   0.51140   0.00000  Uiso   1.00
C247   C     0.55542   0.38314   0.61135   0.00000  Uiso   1.00
C248   C     0.61012   0.34044   0.25676   0.00000  Uiso   1.00
C249   C     0.59502   0.37557   0.16610   0.00000  Uiso   1.00
C250   C     0.64470   0.40105   0.10813   0.00000  Uiso   1.00
C251   C     0.58165   0.23908   0.33410   0.00000  Uiso   1.00
C252   C     0.54262   0.18899   0.30844   0.00000  Uiso   1.00
C253   C     0.56834   0.12914   0.31555   0.00000  Uiso   1.00
H254   H     0.72699   0.28387   0.41463   0.00000  Uiso   1.00
H255   H     0.70945   0.33700   0.60028   0.00000  Uiso   1.00
H256   H     0.77070   0.34928   0.25503   0.00000  Uiso   1.00
H257   H     0.71831   0.16273   0.39735   0.00000  Uiso   1.00
H258   H     0.66244   0.40004   0.79215   0.00000  Uiso   1.00
H259   H     0.79160   0.42593   0.06415   0.00000  Uiso   1.00
H260   H     0.68113   0.03255   0.36425   0.00000  Uiso   1.00
H261   H     0.51458   0.31563   0.30713   0.00000  Uiso   1.00
H262   H     0.48538   0.37050   0.48690   0.00000  Uiso   1.00
H263   H     0.54664   0.38279   0.14164   0.00000  Uiso   1.00
H264   H     0.49425   0.19624   0.28397   0.00000  Uiso   1.00
H265   H     0.48059   0.42723   0.70012   0.00000  Uiso   1.00
H266   H     0.60975   0.45312   0.97211   0.00000  Uiso   1.00
H267   H     0.49927   0.05974   0.27223   0.00000  Uiso   1.00
O268   O     0.55615   0.44917   0.86631   0.00000  Uiso   1.00
O269   O     0.72560   0.48313   0.91119   0.00000  Uiso   1.00
O270   O     0.58066   0.96703   0.30493   0.00000  Uiso   1.00
N271   N     0.62365   0.39890   0.74583   0.00000  Uiso   1.00
N272   N     0.74440   0.42311   0.06520   0.00000  Uiso   1.00
N273   N     0.64112   0.05533   0.34575   0.00000  Uiso   1.00
N274   N     0.52579   0.41353   0.69631   0.00000  Uiso   1.00
N275   N     0.64655   0.43774   0.01568   0.00000  Uiso   1.00
N276   N     0.54327   0.06997   0.29623   0.00000  Uiso   1.00
C277   C     0.29115   0.32168   0.60999   0.00000  Uiso   1.00
C278   C     0.32441   0.36066   0.52402   0.00000  Uiso   1.00
C279   C     0.34423   0.33893   0.42416   0.00000  Uiso   1.00
C280   C     0.37377   0.38197   0.35697   0.00000  Uiso   1.00
C281   C     0.42403   0.43298   0.21869   0.00000  Uiso   1.00
C282   C     0.33109   0.32738   0.71160   0.00000  Uiso   1.00
C283   C     0.35653   0.27766   0.76946   0.00000  Uiso   1.00
C284   C     0.39169   0.29269   0.86018   0.00000  Uiso   1.00
C285   C     0.45228   0.29203   0.01317   0.00000  Uiso   1.00
C286   C     0.22974   0.35585   0.63427   0.00000  Uiso   1.00
C287   C     0.16995   0.33006   0.62713   0.00000  Uiso   1.00
C288   C     0.11977   0.36905   0.65276   0.00000  Uiso   1.00
C289   C     0.02299   0.41259   0.68567   0.00000  Uiso   1.00
C290   C     0.30836   0.43675   0.66823   0.00000  Uiso   1.00
C291   C     0.33376   0.42317   0.55566   0.00000  Uiso   1.00
C292   C     0.36327   0.46625   0.48860   0.00000  Uiso   1.00
C293   C     0.38314   0.44458   0.38865   0.00000  Uiso   1.00
C294   C     0.34044   0.38988   0.74324   0.00000  Uiso   1.00
C295   C     0.37557   0.40498   0.83390   0.00000  Uiso   1.00
C296   C     0.40105   0.35530   0.89187   0.00000  Uiso   1.00
C297   C     0.23908   0.41835   0.66590   0.00000  Uiso   1.00
C298   C     0.18899   0.45738   0.69156   0.00000  Uiso   1.00
C299   C     0.12914   0.43166   0.68445   0.00000  Uiso   1.00
H300   H     0.28387   0.27301   0.58537   0.00000  Uiso   1.00
H301   H     0.33700   0.29055   0.39972   0.00000  Uiso   1.00
H302   H     0.34928   0.22930   0.74497   0.00000  Uiso   1.00
H303   H     0.16273   0.28169   0.60265   0.00000  Uiso   1.00
H304   H     0.40004   0.33756   0.20785   0.00000  Uiso   1.00
H305   H     0.42593   0.20840   0.93585   0.00000  Uiso   1.00
H306   H     0.03255   0.31887   0.63575   0.00000  Uiso   1.00
H307   H     0.31563   0.48542   0.69287   0.00000  Uiso   1.00
H308   H     0.37050   0.51462   0.51310   0.00000  Uiso   1.00
H309   H     0.38279   0.45336   0.85836   0.00000  Uiso   1.00
H310   H     0.19624   0.50575   0.71603   0.00000  Uiso   1.00
H311   H     0.42723   0.51941   0.29988   0.00000  Uiso   1.00
H312   H     0.45312   0.39025   0.02789   0.00000  Uiso   1.00
H313   H     0.05974   0.50073   0.72777   0.00000  Uiso   1.00
O314   O     0.44917   0.44385   0.13369   0.00000  Uiso   1.00
O315   O     0.48313   0.27440   0.08881   0.00000  Uiso   1.00
O316   O     0.96703   0.41934   0.69507   0.00000  Uiso   1.00
N317   N     0.39890   0.37635   0.25417   0.00000  Uiso   1.00
N318   N     0.42311   0.25560   0.93480   0.00000  Uiso   1.00
N319   N     0.05533   0.35888   0.65425   0.00000  Uiso   1.00
N320   N     0.41353   0.47421   0.30369   0.00000  Uiso   1.00
N321   N     0.43774   0.35345   0.98432   0.00000  Uiso   1.00
N322   N     0.06997   0.45673   0.70377   0.00000  Uiso   1.00
C323   C     0.70885   0.67832   0.60999   0.00000  Uiso   1.00
C324   C     0.67559   0.63934   0.52402   0.00000  Uiso   1.00
C325   C     0.65577   0.66107   0.42416   0.00000  Uiso   1.00
C326   C     0.62623   0.61803   0.35697   0.00000  Uiso   1.00
C327   C     0.57597   0.56702   0.21869   0.00000  Uiso   1.00
C328   C     0.66891   0.67262   0.71160   0.00000  Uiso   1.00
C329   C     0.64347   0.72234   0.76946   0.00000  Uiso   1.00
C330   C     0.60831   0.70731   0.86018   0.00000  Uiso   1.00
C331   C     0.54772   0.70797   0.01317   0.00000  Uiso   1.00
C332   C     0.77026   0.64415   0.63427   0.00000  Uiso   1.00
C333   C     0.83005   0.66994   0.62713   0.00000  Uiso   1.00
C334   C     0.88023   0.63095   0.65276   0.00000  Uiso   1.00
C335   C     0.97701   0.58741   0.68567   0.00000  Uiso   1.00
C336   C     0.69164   0.56325   0.66823   0.00000  Uiso   1.00
C337   C     0.66624   0.57683   0.55566   0.00000  Uiso   1.00
C338   C     0.63673   0.53375   0.48860   0.00000  Uiso   1.00
C339   C     0.61686   0.55542   0.38865   0.00000  Uiso   1.00
C340   C     0.65956   0.61012   0.74324   0.00000  Uiso   1.00
C341   C     0.62443   0.59502   0.83390   0.00000  Uiso   1.00
C342   C     0.59895   0.64470   0.89187   0.00000  Uiso   1.00
C343   C     0.76092   0.58165   0.66590   0.00000  Uiso   1.00
C344   C     0.81101   0.54262   0.69156   0.00000  Uiso   1.00
C345   C     0.87086   0.56834   0.68445   0.00000  Uiso   1.00
H346   H     0.71613   0.72699   0.58537   0.00000  Uiso   1.00
H347   H     0.66300   0.70945   0.39972   0.00000  Uiso   1.00
H348   H     0.65072   0.77070   0.74497   0.00000  Uiso   1.00
H349   H     0.83727   0.71831   0.60265   0.00000  Uiso   1.00
H350   H     0.59996   0.66244   0.20785   0.00000  Uiso   1.00
H351   H     0.57407   0.79160   0.93585   0.00000  Uiso   1.00
H352   H     0.96745   0.68113   0.63575   0.00000  Uiso   1.00
H353   H     0.68437   0.51458   0.69287   0.00000  Uiso   1.00
H354   H     0.62950   0.48538   0.51310   0.00000  Uiso   1.00
H355   H     0.61721   0.54664   0.85836   0.00000  Uiso   1.00
H356   H     0.80376   0.49425   0.71603   0.00000  Uiso   1.00
H357   H     0.57277   0.48059   0.29988   0.00000  Uiso   1.00
H358   H     0.54688   0.60975   0.02789   0.00000  Uiso   1.00
H359   H     0.94026   0.49927   0.72777   0.00000  Uiso   1.00
O360   O     0.55083   0.55615   0.13369   0.00000  Uiso   1.00
O361   O     0.51687   0.72560   0.08881   0.00000  Uiso   1.00
O362   O     0.03297   0.58066   0.69507   0.00000  Uiso   1.00
N363   N     0.60110   0.62365   0.25417   0.00000  Uiso   1.00
N364   N     0.57689   0.74440   0.93480   0.00000  Uiso   1.00
N365   N     0.94467   0.64112   0.65425   0.00000  Uiso   1.00
N366   N     0.58647   0.52579   0.30369   0.00000  Uiso   1.00
N367   N     0.56226   0.64655   0.98432   0.00000  Uiso   1.00
N368   N     0.93003   0.54327   0.70377   0.00000  Uiso   1.00
