data_job_05663
_audit_creation_date              2018-12-19
_audit_creation_method            'Materials Studio'
_symmetry_space_group_name_H-M    'P1'
_symmetry_Int_Tables_number       1
_symmetry_cell_setting            triclinic
loop_
_symmetry_equiv_pos_as_xyz
  x,y,z
_cell_length_a                    12.1501
_cell_length_b                    12.1501
_cell_length_c                    33.8021
_cell_angle_alpha                 90.0000
_cell_angle_beta                  90.0000
_cell_angle_gamma                 120.0000
loop_
_atom_site_label
_atom_site_type_symbol
_atom_site_fract_x
_atom_site_fract_y
_atom_site_fract_z
_atom_site_U_iso_or_equiv
_atom_site_adp_type
_atom_site_occupancy
C1     C     0.07971   0.65265   0.27517   0.00000  Uiso   1.00
C2     C     0.22306   0.71132   0.27989   0.00000  Uiso   1.00
C3     C     0.28470   0.70080   0.31300   0.00000  Uiso   1.00
C4     C     0.41642   0.76144   0.31151   0.00000  Uiso   1.00
C5     C     0.62873   0.84216   0.32391   0.00000  Uiso   1.00
C6     C     0.05716   0.76238   0.26548   0.00000  Uiso   1.00
C7     C     0.97930   0.79478   0.28648   0.00000  Uiso   1.00
C8     C     0.97136   0.89840   0.27286   0.00000  Uiso   1.00
C9     C     0.92605   0.05833   0.26288   0.00000  Uiso   1.00
C10    C     0.04410   0.57086   0.23798   0.00000  Uiso   1.00
C11    C     0.95524   0.44223   0.23586   0.00000  Uiso   1.00
C12    C     0.93628   0.38460   0.19908   0.00000  Uiso   1.00
C13    C     0.87069   0.24716   0.14641   0.00000  Uiso   1.00
C14    C     0.20402   0.77903   0.21363   0.00000  Uiso   1.00
C15    C     0.29058   0.77997   0.24646   0.00000  Uiso   1.00
C16    C     0.42224   0.84064   0.24491   0.00000  Uiso   1.00
C17    C     0.48407   0.83021   0.27802   0.00000  Uiso   1.00
C18    C     0.12468   0.83103   0.23205   0.00000  Uiso   1.00
C19    C     0.11684   0.93462   0.21839   0.00000  Uiso   1.00
C20    C     0.03901   0.96717   0.23937   0.00000  Uiso   1.00
C21    C     0.11163   0.63951   0.20455   0.00000  Uiso   1.00
C22    C     0.09279   0.58206   0.16777   0.00000  Uiso   1.00
C23    C     0.00393   0.45337   0.16559   0.00000  Uiso   1.00
H24    H     0.02713   0.59921   0.30120   0.00000  Uiso   1.00
H25    H     0.23241   0.64768   0.33887   0.00000  Uiso   1.00
H26    H     0.92705   0.74163   0.31235   0.00000  Uiso   1.00
H27    H     0.90301   0.38914   0.26173   0.00000  Uiso   1.00
H28    H     0.48977   0.73173   0.36589   0.00000  Uiso   1.00
H29    H     0.84588   0.92982   0.30997   0.00000  Uiso   1.00
H30    H     0.79516   0.18650   0.20323   0.00000  Uiso   1.00
H31    H     0.25659   0.83248   0.18760   0.00000  Uiso   1.00
H32    H     0.47447   0.89375   0.21904   0.00000  Uiso   1.00
H33    H     0.16911   0.98771   0.19252   0.00000  Uiso   1.00
H34    H     0.14506   0.63522   0.14191   0.00000  Uiso   1.00
H35    H     0.68624   0.93146   0.26864   0.00000  Uiso   1.00
H36    H     0.04234   0.12954   0.21271   0.00000  Uiso   1.00
H37    H     0.99163   0.38623   0.10598   0.00000  Uiso   1.00
O38    O     0.72719   0.86773   0.34000   0.00000  Uiso   1.00
O39    O     0.88240   0.12759   0.26662   0.00000  Uiso   1.00
O40    O     0.81587   0.15239   0.12659   0.00000  Uiso   1.00
N41    N     0.50611   0.77031   0.33868   0.00000  Uiso   1.00
N42    N     0.90412   0.95552   0.28640   0.00000  Uiso   1.00
N43    N     0.85668   0.26059   0.18661   0.00000  Uiso   1.00
N44    N     0.61182   0.87778   0.28635   0.00000  Uiso   1.00
N45    N     0.00984   0.06299   0.23407   0.00000  Uiso   1.00
N46    N     0.96240   0.36806   0.13428   0.00000  Uiso   1.00
C47    C     0.54760   0.02767   0.72509   0.00000  Uiso   1.00
C48    C     0.60539   0.17097   0.72056   0.00000  Uiso   1.00
C49    C     0.59492   0.23272   0.68746   0.00000  Uiso   1.00
C50    C     0.65466   0.36437   0.68913   0.00000  Uiso   1.00
C51    C     0.73413   0.57664   0.67697   0.00000  Uiso   1.00
C52    C     0.65781   0.00602   0.73494   0.00000  Uiso   1.00
C53    C     0.69141   0.92907   0.71394   0.00000  Uiso   1.00
C54    C     0.79527   0.92186   0.72772   0.00000  Uiso   1.00
C55    C     0.95608   0.87796   0.73791   0.00000  Uiso   1.00
C56    C     0.46507   0.99100   0.76214   0.00000  Uiso   1.00
C57    C     0.33662   0.90139   0.76401   0.00000  Uiso   1.00
C58    C     0.27821   0.88150   0.80070   0.00000  Uiso   1.00
C59    C     0.13976   0.81428   0.85311   0.00000  Uiso   1.00
C60    C     0.67230   0.15166   0.78690   0.00000  Uiso   1.00
C61    C     0.67312   0.23832   0.75413   0.00000  Uiso   1.00
C62    C     0.73289   0.36991   0.75585   0.00000  Uiso   1.00
C63    C     0.72251   0.43185   0.72276   0.00000  Uiso   1.00
C64    C     0.72555   0.07337   0.76851   0.00000  Uiso   1.00
C65    C     0.82938   0.06626   0.78233   0.00000  Uiso   1.00
C66    C     0.86313   0.98933   0.76136   0.00000  Uiso   1.00
C67    C     0.53280   0.05835   0.79571   0.00000  Uiso   1.00
C68    C     0.47459   0.03858   0.83240   0.00000  Uiso   1.00
C69    C     0.34607   0.94897   0.83433   0.00000  Uiso   1.00
H70    H     0.49487   0.97524   0.69896   0.00000  Uiso   1.00
H71    H     0.54250   0.18057   0.66149   0.00000  Uiso   1.00
H72    H     0.63897   0.87696   0.68797   0.00000  Uiso   1.00
H73    H     0.28424   0.84929   0.73803   0.00000  Uiso   1.00
H74    H     0.62522   0.43793   0.63474   0.00000  Uiso   1.00
H75    H     0.82860   0.79771   0.69059   0.00000  Uiso   1.00
H76    H     0.08057   0.73936   0.79615   0.00000  Uiso   1.00
H77    H     0.72504   0.20410   0.81304   0.00000  Uiso   1.00
H78    H     0.78530   0.42200   0.78183   0.00000  Uiso   1.00
H79    H     0.88176   0.11838   0.80831   0.00000  Uiso   1.00
H80    H     0.52703   0.09072   0.85837   0.00000  Uiso   1.00
H81    H     0.82228   0.63388   0.73242   0.00000  Uiso   1.00
H82    H     0.02566   0.99365   0.78826   0.00000  Uiso   1.00
H83    H     0.27763   0.93531   0.89383   0.00000  Uiso   1.00
O84    O     0.75927   0.67512   0.66099   0.00000  Uiso   1.00
O85    O     0.02608   0.83515   0.73426   0.00000  Uiso   1.00
O86    O     0.04468   0.75861   0.87275   0.00000  Uiso   1.00
N87    N     0.66331   0.45414   0.66202   0.00000  Uiso   1.00
N88    N     0.85347   0.85559   0.71422   0.00000  Uiso   1.00
N89    N     0.15413   0.80101   0.81292   0.00000  Uiso   1.00
N90    N     0.76934   0.55958   0.71458   0.00000  Uiso   1.00
N91    N     0.95950   0.96103   0.76678   0.00000  Uiso   1.00
N92    N     0.26017   0.90645   0.86548   0.00000  Uiso   1.00
C93    C     0.34735   0.42706   0.94184   0.00000  Uiso   1.00
C94    C     0.28868   0.51173   0.94655   0.00000  Uiso   1.00
C95    C     0.29920   0.58389   0.97967   0.00000  Uiso   1.00
C96    C     0.23856   0.65498   0.97817   0.00000  Uiso   1.00
C97    C     0.15784   0.78657   0.99058   0.00000  Uiso   1.00
C98    C     0.23762   0.29478   0.93215   0.00000  Uiso   1.00
C99    C     0.20522   0.18452   0.95315   0.00000  Uiso   1.00
C100   C     0.10160   0.07297   0.93952   0.00000  Uiso   1.00
C101   C     0.94167   0.86772   0.92955   0.00000  Uiso   1.00
C102   C     0.42914   0.47324   0.90465   0.00000  Uiso   1.00
C103   C     0.55777   0.51301   0.90252   0.00000  Uiso   1.00
C104   C     0.61540   0.55169   0.86574   0.00000  Uiso   1.00
C105   C     0.75284   0.62353   0.81307   0.00000  Uiso   1.00
C106   C     0.22097   0.42499   0.88030   0.00000  Uiso   1.00
C107   C     0.22003   0.51060   0.91312   0.00000  Uiso   1.00
C108   C     0.15936   0.58160   0.91158   0.00000  Uiso   1.00
C109   C     0.16979   0.65386   0.94468   0.00000  Uiso   1.00
C110   C     0.16897   0.29365   0.89872   0.00000  Uiso   1.00
C111   C     0.06538   0.18223   0.88506   0.00000  Uiso   1.00
C112   C     0.03283   0.07184   0.90603   0.00000  Uiso   1.00
C113   C     0.36049   0.47212   0.87122   0.00000  Uiso   1.00
C114   C     0.41794   0.51073   0.83443   0.00000  Uiso   1.00
C115   C     0.54663   0.55056   0.83225   0.00000  Uiso   1.00
H116   H     0.40079   0.42793   0.96786   0.00000  Uiso   1.00
H117   H     0.35232   0.58473   0.00553   0.00000  Uiso   1.00
H118   H     0.25837   0.18542   0.97901   0.00000  Uiso   1.00
H119   H     0.61086   0.51387   0.92840   0.00000  Uiso   1.00
H120   H     0.26827   0.75804   0.03256   0.00000  Uiso   1.00
H121   H     0.07018   0.91606   0.97663   0.00000  Uiso   1.00
H122   H     0.81350   0.60866   0.86990   0.00000  Uiso   1.00
H123   H     0.16752   0.42411   0.85427   0.00000  Uiso   1.00
H124   H     0.10625   0.58071   0.88571   0.00000  Uiso   1.00
H125   H     0.01229   0.18140   0.85919   0.00000  Uiso   1.00
H126   H     0.36478   0.50985   0.80857   0.00000  Uiso   1.00
H127   H     0.06854   0.75477   0.93530   0.00000  Uiso   1.00
H128   H     0.87046   0.91279   0.87938   0.00000  Uiso   1.00
H129   H     0.61377   0.60539   0.77264   0.00000  Uiso   1.00
O130   O     0.13227   0.85946   0.00666   0.00000  Uiso   1.00
O131   O     0.87241   0.75482   0.93329   0.00000  Uiso   1.00
O132   O     0.84761   0.66349   0.79326   0.00000  Uiso   1.00
N133   N     0.22969   0.73580   0.00535   0.00000  Uiso   1.00
N134   N     0.04448   0.94860   0.95307   0.00000  Uiso   1.00
N135   N     0.73941   0.59609   0.85328   0.00000  Uiso   1.00
N136   N     0.12222   0.73405   0.95302   0.00000  Uiso   1.00
N137   N     0.93701   0.94685   0.90074   0.00000  Uiso   1.00
N138   N     0.63194   0.59434   0.80095   0.00000  Uiso   1.00
C139   C     0.97233   0.51993   0.39176   0.00000  Uiso   1.00
C140   C     0.82903   0.43441   0.38722   0.00000  Uiso   1.00
C141   C     0.76728   0.36219   0.35413   0.00000  Uiso   1.00
C142   C     0.63563   0.29028   0.35580   0.00000  Uiso   1.00
C143   C     0.42336   0.15749   0.34364   0.00000  Uiso   1.00
C144   C     0.99398   0.65179   0.40161   0.00000  Uiso   1.00
C145   C     0.07093   0.76234   0.38061   0.00000  Uiso   1.00
C146   C     0.07814   0.87341   0.39439   0.00000  Uiso   1.00
C147   C     0.12204   0.07812   0.40458   0.00000  Uiso   1.00
C148   C     0.00900   0.47407   0.42881   0.00000  Uiso   1.00
C149   C     0.09861   0.43523   0.43068   0.00000  Uiso   1.00
C150   C     0.11850   0.39671   0.46736   0.00000  Uiso   1.00
C151   C     0.18572   0.32548   0.51978   0.00000  Uiso   1.00
C152   C     0.84834   0.52064   0.45357   0.00000  Uiso   1.00
C153   C     0.76168   0.43481   0.42080   0.00000  Uiso   1.00
C154   C     0.63009   0.36298   0.42251   0.00000  Uiso   1.00
C155   C     0.56815   0.29066   0.38943   0.00000  Uiso   1.00
C156   C     0.92663   0.65218   0.43518   0.00000  Uiso   1.00
C157   C     0.93374   0.76312   0.44899   0.00000  Uiso   1.00
C158   C     0.01067   0.87380   0.42802   0.00000  Uiso   1.00
C159   C     0.94165   0.47446   0.46238   0.00000  Uiso   1.00
C160   C     0.96142   0.43600   0.49906   0.00000  Uiso   1.00
C161   C     0.05103   0.39710   0.50100   0.00000  Uiso   1.00
H162   H     0.02476   0.51964   0.36562   0.00000  Uiso   1.00
H163   H     0.81943   0.36193   0.32815   0.00000  Uiso   1.00
H164   H     0.12304   0.76201   0.35463   0.00000  Uiso   1.00
H165   H     0.15071   0.43494   0.40470   0.00000  Uiso   1.00
H166   H     0.56207   0.18729   0.30141   0.00000  Uiso   1.00
H167   H     0.20229   0.03089   0.35725   0.00000  Uiso   1.00
H168   H     0.26064   0.34121   0.46282   0.00000  Uiso   1.00
H169   H     0.79590   0.52094   0.47971   0.00000  Uiso   1.00
H170   H     0.57800   0.36330   0.44850   0.00000  Uiso   1.00
H171   H     0.88162   0.76338   0.47498   0.00000  Uiso   1.00
H172   H     0.90928   0.43631   0.52504   0.00000  Uiso   1.00
H173   H     0.36612   0.18841   0.39908   0.00000  Uiso   1.00
H174   H     0.00635   0.03201   0.45493   0.00000  Uiso   1.00
H175   H     0.06469   0.34232   0.56049   0.00000  Uiso   1.00
O176   O     0.32488   0.08416   0.32765   0.00000  Uiso   1.00
O177   O     0.16485   0.19093   0.40092   0.00000  Uiso   1.00
O178   O     0.24139   0.28608   0.53942   0.00000  Uiso   1.00
N179   N     0.54586   0.20917   0.32868   0.00000  Uiso   1.00
N180   N     0.14441   0.99788   0.38089   0.00000  Uiso   1.00
N181   N     0.19899   0.35312   0.47959   0.00000  Uiso   1.00
N182   N     0.44042   0.20977   0.38124   0.00000  Uiso   1.00
N183   N     0.03897   0.99848   0.43345   0.00000  Uiso   1.00
N184   N     0.09355   0.35371   0.53215   0.00000  Uiso   1.00
C185   C     0.57294   0.92029   0.60851   0.00000  Uiso   1.00
C186   C     0.48827   0.77694   0.61322   0.00000  Uiso   1.00
C187   C     0.41611   0.71530   0.64633   0.00000  Uiso   1.00
C188   C     0.34502   0.58358   0.64484   0.00000  Uiso   1.00
C189   C     0.21343   0.37127   0.65725   0.00000  Uiso   1.00
C190   C     0.70522   0.94284   0.59881   0.00000  Uiso   1.00
C191   C     0.81548   0.02070   0.61981   0.00000  Uiso   1.00
C192   C     0.92703   0.02864   0.60619   0.00000  Uiso   1.00
C193   C     0.13228   0.07395   0.59622   0.00000  Uiso   1.00
C194   C     0.52676   0.95590   0.57131   0.00000  Uiso   1.00
C195   C     0.48699   0.04476   0.56919   0.00000  Uiso   1.00
C196   C     0.44831   0.06372   0.53241   0.00000  Uiso   1.00
C197   C     0.37647   0.12931   0.47974   0.00000  Uiso   1.00
C198   C     0.57501   0.79598   0.54696   0.00000  Uiso   1.00
C199   C     0.48940   0.70942   0.57979   0.00000  Uiso   1.00
C200   C     0.41840   0.57776   0.57824   0.00000  Uiso   1.00
C201   C     0.34614   0.51593   0.61135   0.00000  Uiso   1.00
C202   C     0.70635   0.87532   0.56539   0.00000  Uiso   1.00
C203   C     0.81777   0.88316   0.55173   0.00000  Uiso   1.00
C204   C     0.92816   0.96099   0.57270   0.00000  Uiso   1.00
C205   C     0.52788   0.88837   0.53789   0.00000  Uiso   1.00
C206   C     0.48927   0.90721   0.50110   0.00000  Uiso   1.00
C207   C     0.44944   0.99607   0.49892   0.00000  Uiso   1.00
H208   H     0.57207   0.97287   0.63453   0.00000  Uiso   1.00
H209   H     0.41527   0.76759   0.67220   0.00000  Uiso   1.00
H210   H     0.81458   0.07295   0.64568   0.00000  Uiso   1.00
H211   H     0.48613   0.09699   0.59506   0.00000  Uiso   1.00
H212   H     0.24196   0.51023   0.69922   0.00000  Uiso   1.00
H213   H     0.08394   0.15412   0.64330   0.00000  Uiso   1.00
H214   H     0.39134   0.20484   0.53657   0.00000  Uiso   1.00
H215   H     0.57589   0.74341   0.52094   0.00000  Uiso   1.00
H216   H     0.41929   0.52553   0.55237   0.00000  Uiso   1.00
H217   H     0.81860   0.83089   0.52585   0.00000  Uiso   1.00
H218   H     0.49015   0.85494   0.47524   0.00000  Uiso   1.00
H219   H     0.24523   0.31376   0.60197   0.00000  Uiso   1.00
H220   H     0.08721   0.95766   0.54604   0.00000  Uiso   1.00
H221   H     0.39461   0.00837   0.43931   0.00000  Uiso   1.00
O222   O     0.14054   0.27281   0.67333   0.00000  Uiso   1.00
O223   O     0.24518   0.11760   0.59996   0.00000  Uiso   1.00
O224   O     0.33651   0.18413   0.45992   0.00000  Uiso   1.00
N225   N     0.26420   0.49389   0.67202   0.00000  Uiso   1.00
N226   N     0.05140   0.09588   0.61974   0.00000  Uiso   1.00
N227   N     0.40391   0.14332   0.51995   0.00000  Uiso   1.00
N228   N     0.26595   0.38818   0.61969   0.00000  Uiso   1.00
N229   N     0.05315   0.99016   0.56740   0.00000  Uiso   1.00
N230   N     0.40566   0.03760   0.46762   0.00000  Uiso   1.00
C231   C     0.48007   0.45240   0.05843   0.00000  Uiso   1.00
C232   C     0.56559   0.39461   0.05389   0.00000  Uiso   1.00
C233   C     0.63781   0.40508   0.02080   0.00000  Uiso   1.00
C234   C     0.70972   0.34534   0.02246   0.00000  Uiso   1.00
C235   C     0.84251   0.26587   0.01030   0.00000  Uiso   1.00
C236   C     0.34821   0.34219   0.06827   0.00000  Uiso   1.00
C237   C     0.23766   0.30859   0.04728   0.00000  Uiso   1.00
C238   C     0.12659   0.20473   0.06106   0.00000  Uiso   1.00
C239   C     0.92188   0.04392   0.07125   0.00000  Uiso   1.00
C240   C     0.52593   0.53493   0.09547   0.00000  Uiso   1.00
C241   C     0.56477   0.66338   0.09735   0.00000  Uiso   1.00
C242   C     0.60329   0.72179   0.13403   0.00000  Uiso   1.00
C243   C     0.67452   0.86024   0.18645   0.00000  Uiso   1.00
C244   C     0.47936   0.32770   0.12024   0.00000  Uiso   1.00
C245   C     0.56519   0.32688   0.08746   0.00000  Uiso   1.00
C246   C     0.63702   0.26711   0.08918   0.00000  Uiso   1.00
C247   C     0.70934   0.27749   0.05609   0.00000  Uiso   1.00
C248   C     0.34782   0.27445   0.10185   0.00000  Uiso   1.00
C249   C     0.23688   0.17062   0.11566   0.00000  Uiso   1.00
C250   C     0.12620   0.13687   0.09469   0.00000  Uiso   1.00
C251   C     0.52554   0.46720   0.12905   0.00000  Uiso   1.00
C252   C     0.56400   0.52541   0.16573   0.00000  Uiso   1.00
C253   C     0.60290   0.65393   0.16766   0.00000  Uiso   1.00
H254   H     0.48036   0.50513   0.03229   0.00000  Uiso   1.00
H255   H     0.63807   0.45750   0.99482   0.00000  Uiso   1.00
H256   H     0.23799   0.36103   0.02130   0.00000  Uiso   1.00
H257   H     0.56506   0.71576   0.07136   0.00000  Uiso   1.00
H258   H     0.81271   0.37478   0.96808   0.00000  Uiso   1.00
H259   H     0.96911   0.17140   0.02392   0.00000  Uiso   1.00
H260   H     0.65879   0.91943   0.12949   0.00000  Uiso   1.00
H261   H     0.47906   0.27496   0.14637   0.00000  Uiso   1.00
H262   H     0.63670   0.21470   0.11516   0.00000  Uiso   1.00
H263   H     0.23662   0.11824   0.14164   0.00000  Uiso   1.00
H264   H     0.56369   0.47297   0.19170   0.00000  Uiso   1.00
H265   H     0.81159   0.17772   0.06575   0.00000  Uiso   1.00
H266   H     0.96799   0.97434   0.12160   0.00000  Uiso   1.00
H267   H     0.65768   0.72237   0.22716   0.00000  Uiso   1.00
O268   O     0.91584   0.24073   0.99432   0.00000  Uiso   1.00
O269   O     0.80907   0.97392   0.06759   0.00000  Uiso   1.00
O270   O     0.71392   0.95532   0.20609   0.00000  Uiso   1.00
N271   N     0.79083   0.33669   0.99535   0.00000  Uiso   1.00
N272   N     0.00212   0.14653   0.04756   0.00000  Uiso   1.00
N273   N     0.64688   0.84587   0.14625   0.00000  Uiso   1.00
N274   N     0.79023   0.23066   0.04791   0.00000  Uiso   1.00
N275   N     0.00152   0.04050   0.10012   0.00000  Uiso   1.00
N276   N     0.64629   0.73983   0.19881   0.00000  Uiso   1.00
