data_job_05740
_audit_creation_date              2018-12-19
_audit_creation_method            'Materials Studio'
_symmetry_space_group_name_H-M    'P1'
_symmetry_Int_Tables_number       1
_symmetry_cell_setting            triclinic
loop_
_symmetry_equiv_pos_as_xyz
  x,y,z
_cell_length_a                    20.1121
_cell_length_b                    28.7755
_cell_length_c                    11.1302
_cell_angle_alpha                 90.0000
_cell_angle_beta                  99.3904
_cell_angle_gamma                 90.0000
loop_
_atom_site_label
_atom_site_type_symbol
_atom_site_fract_x
_atom_site_fract_y
_atom_site_fract_z
_atom_site_U_iso_or_equiv
_atom_site_adp_type
_atom_site_occupancy
C1     C     0.18760   0.63810   0.82546   0.00000  Uiso   1.00
C2     C     0.14955   0.61642   0.70922   0.00000  Uiso   1.00
C3     C     0.08316   0.60127   0.69199   0.00000  Uiso   1.00
C4     C     0.05758   0.58244   0.57905   0.00000  Uiso   1.00
C5     C     0.99251   0.54930   0.41262   0.00000  Uiso   1.00
C6     C     0.25028   0.60827   0.86227   0.00000  Uiso   1.00
C7     C     0.26860   0.58628   0.97373   0.00000  Uiso   1.00
C8     C     0.32782   0.56059   0.98962   0.00000  Uiso   1.00
C9     C     0.41917   0.51482   0.06084   0.00000  Uiso   1.00
C10    C     0.21273   0.68513   0.78843   0.00000  Uiso   1.00
C11    C     0.19948   0.72777   0.83783   0.00000  Uiso   1.00
C12    C     0.22710   0.76679   0.79158   0.00000  Uiso   1.00
C13    C     0.26014   0.84036   0.74815   0.00000  Uiso   1.00
C14    C     0.26022   0.63159   0.65551   0.00000  Uiso   1.00
C15    C     0.18899   0.61289   0.61691   0.00000  Uiso   1.00
C16    C     0.16351   0.59407   0.50396   0.00000  Uiso   1.00
C17    C     0.09709   0.57890   0.48657   0.00000  Uiso   1.00
C18    C     0.28973   0.60474   0.76997   0.00000  Uiso   1.00
C19    C     0.34894   0.57908   0.78570   0.00000  Uiso   1.00
C20    C     0.36734   0.55705   0.89715   0.00000  Uiso   1.00
C21    C     0.25217   0.68160   0.69612   0.00000  Uiso   1.00
C22    C     0.27982   0.72056   0.64979   0.00000  Uiso   1.00
C23    C     0.26662   0.76325   0.69910   0.00000  Uiso   1.00
H24    H     0.15689   0.64085   0.89733   0.00000  Uiso   1.00
H25    H     0.05265   0.60401   0.76345   0.00000  Uiso   1.00
H26    H     0.23807   0.58902   0.04515   0.00000  Uiso   1.00
H27    H     0.16896   0.73049   0.90926   0.00000  Uiso   1.00
H28    H     0.95449   0.56160   0.57433   0.00000  Uiso   1.00
H29    H     0.34545   0.53001   0.16832   0.00000  Uiso   1.00
H30    H     0.19972   0.82831   0.88178   0.00000  Uiso   1.00
H31    H     0.29093   0.62884   0.58365   0.00000  Uiso   1.00
H32    H     0.19404   0.59134   0.43255   0.00000  Uiso   1.00
H33    H     0.37945   0.57635   0.71425   0.00000  Uiso   1.00
H34    H     0.31035   0.71782   0.57836   0.00000  Uiso   1.00
H35    H     0.06925   0.55131   0.30576   0.00000  Uiso   1.00
H36    H     0.46021   0.51972   0.89976   0.00000  Uiso   1.00
H37    H     0.31448   0.81803   0.61321   0.00000  Uiso   1.00
O38    O     0.94572   0.53199   0.34633   0.00000  Uiso   1.00
O39    O     0.45866   0.49055   0.12563   0.00000  Uiso   1.00
O40    O     0.26746   0.88192   0.74968   0.00000  Uiso   1.00
N41    N     0.99479   0.56433   0.53185   0.00000  Uiso   1.00
N42    N     0.36031   0.53479   0.08719   0.00000  Uiso   1.00
N43    N     0.22408   0.81368   0.81932   0.00000  Uiso   1.00
N44    N     0.05654   0.55880   0.38734   0.00000  Uiso   1.00
N45    N     0.42206   0.52925   0.94267   0.00000  Uiso   1.00
N46    N     0.28583   0.80814   0.67480   0.00000  Uiso   1.00
C47    C     0.68760   0.13810   0.82546   0.00000  Uiso   1.00
C48    C     0.64955   0.11642   0.70922   0.00000  Uiso   1.00
C49    C     0.58316   0.10127   0.69199   0.00000  Uiso   1.00
C50    C     0.55758   0.08244   0.57905   0.00000  Uiso   1.00
C51    C     0.49251   0.04930   0.41262   0.00000  Uiso   1.00
C52    C     0.75028   0.10827   0.86227   0.00000  Uiso   1.00
C53    C     0.76860   0.08628   0.97373   0.00000  Uiso   1.00
C54    C     0.82782   0.06059   0.98962   0.00000  Uiso   1.00
C55    C     0.91917   0.01482   0.06084   0.00000  Uiso   1.00
C56    C     0.71273   0.18513   0.78843   0.00000  Uiso   1.00
C57    C     0.69948   0.22777   0.83783   0.00000  Uiso   1.00
C58    C     0.72710   0.26679   0.79158   0.00000  Uiso   1.00
C59    C     0.76014   0.34036   0.74815   0.00000  Uiso   1.00
C60    C     0.76022   0.13159   0.65551   0.00000  Uiso   1.00
C61    C     0.68899   0.11289   0.61691   0.00000  Uiso   1.00
C62    C     0.66351   0.09407   0.50396   0.00000  Uiso   1.00
C63    C     0.59709   0.07890   0.48657   0.00000  Uiso   1.00
C64    C     0.78973   0.10474   0.76997   0.00000  Uiso   1.00
C65    C     0.84894   0.07908   0.78570   0.00000  Uiso   1.00
C66    C     0.86734   0.05705   0.89715   0.00000  Uiso   1.00
C67    C     0.75217   0.18160   0.69612   0.00000  Uiso   1.00
C68    C     0.77982   0.22056   0.64979   0.00000  Uiso   1.00
C69    C     0.76662   0.26325   0.69910   0.00000  Uiso   1.00
H70    H     0.65689   0.14085   0.89733   0.00000  Uiso   1.00
H71    H     0.55265   0.10401   0.76345   0.00000  Uiso   1.00
H72    H     0.73807   0.08902   0.04515   0.00000  Uiso   1.00
H73    H     0.66896   0.23049   0.90926   0.00000  Uiso   1.00
H74    H     0.45449   0.06160   0.57433   0.00000  Uiso   1.00
H75    H     0.84545   0.03001   0.16832   0.00000  Uiso   1.00
H76    H     0.69972   0.32831   0.88178   0.00000  Uiso   1.00
H77    H     0.79093   0.12884   0.58365   0.00000  Uiso   1.00
H78    H     0.69404   0.09134   0.43255   0.00000  Uiso   1.00
H79    H     0.87945   0.07635   0.71425   0.00000  Uiso   1.00
H80    H     0.81035   0.21782   0.57836   0.00000  Uiso   1.00
H81    H     0.56925   0.05131   0.30576   0.00000  Uiso   1.00
H82    H     0.96021   0.01972   0.89976   0.00000  Uiso   1.00
H83    H     0.81448   0.31803   0.61321   0.00000  Uiso   1.00
O84    O     0.44572   0.03199   0.34633   0.00000  Uiso   1.00
O85    O     0.95866   0.99055   0.12563   0.00000  Uiso   1.00
O86    O     0.76746   0.38192   0.74968   0.00000  Uiso   1.00
N87    N     0.49479   0.06433   0.53185   0.00000  Uiso   1.00
N88    N     0.86031   0.03479   0.08719   0.00000  Uiso   1.00
N89    N     0.72408   0.31368   0.81932   0.00000  Uiso   1.00
N90    N     0.55654   0.05880   0.38734   0.00000  Uiso   1.00
N91    N     0.92206   0.02925   0.94267   0.00000  Uiso   1.00
N92    N     0.78583   0.30814   0.67480   0.00000  Uiso   1.00
C93    C     0.81240   0.63810   0.67454   0.00000  Uiso   1.00
C94    C     0.85045   0.61642   0.79078   0.00000  Uiso   1.00
C95    C     0.91684   0.60127   0.80801   0.00000  Uiso   1.00
C96    C     0.94242   0.58244   0.92095   0.00000  Uiso   1.00
C97    C     0.00749   0.54930   0.08738   0.00000  Uiso   1.00
C98    C     0.74972   0.60827   0.63773   0.00000  Uiso   1.00
C99    C     0.73140   0.58628   0.52627   0.00000  Uiso   1.00
C100   C     0.67218   0.56059   0.51038   0.00000  Uiso   1.00
C101   C     0.58083   0.51482   0.43916   0.00000  Uiso   1.00
C102   C     0.78727   0.68513   0.71157   0.00000  Uiso   1.00
C103   C     0.80052   0.72777   0.66217   0.00000  Uiso   1.00
C104   C     0.77290   0.76679   0.70842   0.00000  Uiso   1.00
C105   C     0.73986   0.84036   0.75185   0.00000  Uiso   1.00
C106   C     0.73978   0.63159   0.84449   0.00000  Uiso   1.00
C107   C     0.81101   0.61289   0.88309   0.00000  Uiso   1.00
C108   C     0.83649   0.59407   0.99604   0.00000  Uiso   1.00
C109   C     0.90291   0.57890   0.01343   0.00000  Uiso   1.00
C110   C     0.71027   0.60474   0.73003   0.00000  Uiso   1.00
C111   C     0.65106   0.57908   0.71430   0.00000  Uiso   1.00
C112   C     0.63266   0.55705   0.60285   0.00000  Uiso   1.00
C113   C     0.74783   0.68160   0.80388   0.00000  Uiso   1.00
C114   C     0.72018   0.72056   0.85021   0.00000  Uiso   1.00
C115   C     0.73338   0.76325   0.80090   0.00000  Uiso   1.00
H116   H     0.84311   0.64085   0.60267   0.00000  Uiso   1.00
H117   H     0.94735   0.60401   0.73655   0.00000  Uiso   1.00
H118   H     0.76193   0.58902   0.45485   0.00000  Uiso   1.00
H119   H     0.83104   0.73049   0.59074   0.00000  Uiso   1.00
H120   H     0.04551   0.56160   0.92567   0.00000  Uiso   1.00
H121   H     0.65455   0.53001   0.33168   0.00000  Uiso   1.00
H122   H     0.80028   0.82831   0.61822   0.00000  Uiso   1.00
H123   H     0.70907   0.62884   0.91635   0.00000  Uiso   1.00
H124   H     0.80596   0.59134   0.06745   0.00000  Uiso   1.00
H125   H     0.62055   0.57635   0.78575   0.00000  Uiso   1.00
H126   H     0.68965   0.71782   0.92164   0.00000  Uiso   1.00
H127   H     0.93075   0.55131   0.19424   0.00000  Uiso   1.00
H128   H     0.53979   0.51972   0.60024   0.00000  Uiso   1.00
H129   H     0.68552   0.81803   0.88679   0.00000  Uiso   1.00
O130   O     0.05428   0.53199   0.15367   0.00000  Uiso   1.00
O131   O     0.54134   0.49055   0.37437   0.00000  Uiso   1.00
O132   O     0.73254   0.88192   0.75032   0.00000  Uiso   1.00
N133   N     0.00521   0.56433   0.96815   0.00000  Uiso   1.00
N134   N     0.63969   0.53479   0.41281   0.00000  Uiso   1.00
N135   N     0.77592   0.81368   0.68068   0.00000  Uiso   1.00
N136   N     0.94346   0.55880   0.11266   0.00000  Uiso   1.00
N137   N     0.57794   0.52925   0.55733   0.00000  Uiso   1.00
N138   N     0.71417   0.80814   0.82520   0.00000  Uiso   1.00
C139   C     0.31240   0.13810   0.67454   0.00000  Uiso   1.00
C140   C     0.35045   0.11642   0.79078   0.00000  Uiso   1.00
C141   C     0.41684   0.10127   0.80801   0.00000  Uiso   1.00
C142   C     0.44242   0.08244   0.92095   0.00000  Uiso   1.00
C143   C     0.50749   0.04930   0.08738   0.00000  Uiso   1.00
C144   C     0.24972   0.10827   0.63773   0.00000  Uiso   1.00
C145   C     0.23140   0.08628   0.52627   0.00000  Uiso   1.00
C146   C     0.17218   0.06059   0.51038   0.00000  Uiso   1.00
C147   C     0.08083   0.01482   0.43916   0.00000  Uiso   1.00
C148   C     0.28727   0.18513   0.71157   0.00000  Uiso   1.00
C149   C     0.30052   0.22777   0.66217   0.00000  Uiso   1.00
C150   C     0.27290   0.26679   0.70842   0.00000  Uiso   1.00
C151   C     0.23986   0.34036   0.75185   0.00000  Uiso   1.00
C152   C     0.23978   0.13159   0.84449   0.00000  Uiso   1.00
C153   C     0.31101   0.11289   0.88309   0.00000  Uiso   1.00
C154   C     0.33649   0.09407   0.99604   0.00000  Uiso   1.00
C155   C     0.40291   0.07890   0.01343   0.00000  Uiso   1.00
C156   C     0.21027   0.10474   0.73003   0.00000  Uiso   1.00
C157   C     0.15106   0.07908   0.71430   0.00000  Uiso   1.00
C158   C     0.13266   0.05705   0.60285   0.00000  Uiso   1.00
C159   C     0.24783   0.18160   0.80388   0.00000  Uiso   1.00
C160   C     0.22018   0.22056   0.85021   0.00000  Uiso   1.00
C161   C     0.23338   0.26325   0.80090   0.00000  Uiso   1.00
H162   H     0.34311   0.14085   0.60267   0.00000  Uiso   1.00
H163   H     0.44735   0.10401   0.73655   0.00000  Uiso   1.00
H164   H     0.26193   0.08902   0.45485   0.00000  Uiso   1.00
H165   H     0.33104   0.23049   0.59074   0.00000  Uiso   1.00
H166   H     0.54551   0.06160   0.92567   0.00000  Uiso   1.00
H167   H     0.15455   0.03001   0.33168   0.00000  Uiso   1.00
H168   H     0.30028   0.32831   0.61822   0.00000  Uiso   1.00
H169   H     0.20907   0.12884   0.91635   0.00000  Uiso   1.00
H170   H     0.30596   0.09134   0.06745   0.00000  Uiso   1.00
H171   H     0.12055   0.07635   0.78575   0.00000  Uiso   1.00
H172   H     0.18965   0.21782   0.92164   0.00000  Uiso   1.00
H173   H     0.43075   0.05131   0.19424   0.00000  Uiso   1.00
H174   H     0.03979   0.01972   0.60024   0.00000  Uiso   1.00
H175   H     0.18552   0.31803   0.88679   0.00000  Uiso   1.00
O176   O     0.55428   0.03199   0.15367   0.00000  Uiso   1.00
O177   O     0.04134   0.99055   0.37437   0.00000  Uiso   1.00
O178   O     0.23254   0.38192   0.75032   0.00000  Uiso   1.00
N179   N     0.50521   0.06433   0.96815   0.00000  Uiso   1.00
N180   N     0.13969   0.03479   0.41281   0.00000  Uiso   1.00
N181   N     0.27592   0.31368   0.68068   0.00000  Uiso   1.00
N182   N     0.44346   0.05880   0.11266   0.00000  Uiso   1.00
N183   N     0.07794   0.02925   0.55733   0.00000  Uiso   1.00
N184   N     0.21417   0.30814   0.82520   0.00000  Uiso   1.00
C185   C     0.81240   0.36190   0.17454   0.00000  Uiso   1.00
C186   C     0.85045   0.38358   0.29078   0.00000  Uiso   1.00
C187   C     0.91684   0.39873   0.30801   0.00000  Uiso   1.00
C188   C     0.94242   0.41756   0.42095   0.00000  Uiso   1.00
C189   C     0.00749   0.45070   0.58738   0.00000  Uiso   1.00
C190   C     0.74972   0.39173   0.13773   0.00000  Uiso   1.00
C191   C     0.73140   0.41372   0.02627   0.00000  Uiso   1.00
C192   C     0.67218   0.43941   0.01038   0.00000  Uiso   1.00
C193   C     0.58083   0.48518   0.93916   0.00000  Uiso   1.00
C194   C     0.78727   0.31487   0.21157   0.00000  Uiso   1.00
C195   C     0.80052   0.27223   0.16217   0.00000  Uiso   1.00
C196   C     0.77290   0.23321   0.20842   0.00000  Uiso   1.00
C197   C     0.73986   0.15964   0.25185   0.00000  Uiso   1.00
C198   C     0.73978   0.36841   0.34449   0.00000  Uiso   1.00
C199   C     0.81101   0.38711   0.38309   0.00000  Uiso   1.00
C200   C     0.83649   0.40593   0.49604   0.00000  Uiso   1.00
C201   C     0.90291   0.42110   0.51343   0.00000  Uiso   1.00
C202   C     0.71027   0.39526   0.23003   0.00000  Uiso   1.00
C203   C     0.65106   0.42092   0.21430   0.00000  Uiso   1.00
C204   C     0.63266   0.44295   0.10285   0.00000  Uiso   1.00
C205   C     0.74783   0.31840   0.30388   0.00000  Uiso   1.00
C206   C     0.72018   0.27944   0.35021   0.00000  Uiso   1.00
C207   C     0.73338   0.23675   0.30090   0.00000  Uiso   1.00
H208   H     0.84311   0.35915   0.10267   0.00000  Uiso   1.00
H209   H     0.94735   0.39599   0.23655   0.00000  Uiso   1.00
H210   H     0.76193   0.41098   0.95485   0.00000  Uiso   1.00
H211   H     0.83104   0.26951   0.09074   0.00000  Uiso   1.00
H212   H     0.04551   0.43840   0.42567   0.00000  Uiso   1.00
H213   H     0.65455   0.46999   0.83168   0.00000  Uiso   1.00
H214   H     0.80028   0.17169   0.11822   0.00000  Uiso   1.00
H215   H     0.70907   0.37116   0.41635   0.00000  Uiso   1.00
H216   H     0.80596   0.40866   0.56745   0.00000  Uiso   1.00
H217   H     0.62055   0.42365   0.28575   0.00000  Uiso   1.00
H218   H     0.68965   0.28218   0.42164   0.00000  Uiso   1.00
H219   H     0.93075   0.44869   0.69424   0.00000  Uiso   1.00
H220   H     0.53979   0.48028   0.10024   0.00000  Uiso   1.00
H221   H     0.68552   0.18197   0.38679   0.00000  Uiso   1.00
O222   O     0.05428   0.46801   0.65367   0.00000  Uiso   1.00
O223   O     0.54134   0.50945   0.87437   0.00000  Uiso   1.00
O224   O     0.73254   0.11808   0.25032   0.00000  Uiso   1.00
N225   N     0.00521   0.43567   0.46815   0.00000  Uiso   1.00
N226   N     0.63969   0.46521   0.91281   0.00000  Uiso   1.00
N227   N     0.77592   0.18632   0.18068   0.00000  Uiso   1.00
N228   N     0.94346   0.44120   0.61266   0.00000  Uiso   1.00
N229   N     0.57794   0.47075   0.05733   0.00000  Uiso   1.00
N230   N     0.71417   0.19186   0.32520   0.00000  Uiso   1.00
C231   C     0.31240   0.86190   0.17454   0.00000  Uiso   1.00
C232   C     0.35045   0.88358   0.29078   0.00000  Uiso   1.00
C233   C     0.41684   0.89873   0.30801   0.00000  Uiso   1.00
C234   C     0.44242   0.91756   0.42095   0.00000  Uiso   1.00
C235   C     0.50749   0.95070   0.58738   0.00000  Uiso   1.00
C236   C     0.24972   0.89173   0.13773   0.00000  Uiso   1.00
C237   C     0.23140   0.91372   0.02627   0.00000  Uiso   1.00
C238   C     0.17218   0.93941   0.01038   0.00000  Uiso   1.00
C239   C     0.08083   0.98518   0.93916   0.00000  Uiso   1.00
C240   C     0.28727   0.81487   0.21157   0.00000  Uiso   1.00
C241   C     0.30052   0.77223   0.16217   0.00000  Uiso   1.00
C242   C     0.27290   0.73321   0.20842   0.00000  Uiso   1.00
C243   C     0.23986   0.65964   0.25185   0.00000  Uiso   1.00
C244   C     0.23978   0.86841   0.34449   0.00000  Uiso   1.00
C245   C     0.31101   0.88711   0.38309   0.00000  Uiso   1.00
C246   C     0.33649   0.90593   0.49604   0.00000  Uiso   1.00
C247   C     0.40291   0.92110   0.51343   0.00000  Uiso   1.00
C248   C     0.21027   0.89526   0.23003   0.00000  Uiso   1.00
C249   C     0.15106   0.92092   0.21430   0.00000  Uiso   1.00
C250   C     0.13266   0.94295   0.10285   0.00000  Uiso   1.00
C251   C     0.24783   0.81840   0.30388   0.00000  Uiso   1.00
C252   C     0.22018   0.77944   0.35021   0.00000  Uiso   1.00
C253   C     0.23338   0.73675   0.30090   0.00000  Uiso   1.00
H254   H     0.34311   0.85915   0.10267   0.00000  Uiso   1.00
H255   H     0.44735   0.89599   0.23655   0.00000  Uiso   1.00
H256   H     0.26193   0.91098   0.95485   0.00000  Uiso   1.00
H257   H     0.33104   0.76951   0.09074   0.00000  Uiso   1.00
H258   H     0.54551   0.93840   0.42567   0.00000  Uiso   1.00
H259   H     0.15455   0.96999   0.83168   0.00000  Uiso   1.00
H260   H     0.30028   0.67169   0.11822   0.00000  Uiso   1.00
H261   H     0.20907   0.87116   0.41635   0.00000  Uiso   1.00
H262   H     0.30596   0.90866   0.56745   0.00000  Uiso   1.00
H263   H     0.12055   0.92365   0.28575   0.00000  Uiso   1.00
H264   H     0.18965   0.78218   0.42164   0.00000  Uiso   1.00
H265   H     0.43075   0.94869   0.69424   0.00000  Uiso   1.00
H266   H     0.03979   0.98028   0.10024   0.00000  Uiso   1.00
H267   H     0.18552   0.68197   0.38679   0.00000  Uiso   1.00
O268   O     0.55428   0.96801   0.65367   0.00000  Uiso   1.00
O269   O     0.04134   0.00945   0.87437   0.00000  Uiso   1.00
O270   O     0.23254   0.61808   0.25032   0.00000  Uiso   1.00
N271   N     0.50521   0.93567   0.46815   0.00000  Uiso   1.00
N272   N     0.13969   0.96521   0.91281   0.00000  Uiso   1.00
N273   N     0.27592   0.68632   0.18068   0.00000  Uiso   1.00
N274   N     0.44346   0.94120   0.61266   0.00000  Uiso   1.00
N275   N     0.07794   0.97075   0.05733   0.00000  Uiso   1.00
N276   N     0.21417   0.69186   0.32520   0.00000  Uiso   1.00
C277   C     0.18760   0.36190   0.32546   0.00000  Uiso   1.00
C278   C     0.14955   0.38358   0.20922   0.00000  Uiso   1.00
C279   C     0.08316   0.39873   0.19199   0.00000  Uiso   1.00
C280   C     0.05758   0.41756   0.07905   0.00000  Uiso   1.00
C281   C     0.99251   0.45070   0.91262   0.00000  Uiso   1.00
C282   C     0.25028   0.39173   0.36227   0.00000  Uiso   1.00
C283   C     0.26860   0.41372   0.47373   0.00000  Uiso   1.00
C284   C     0.32782   0.43941   0.48962   0.00000  Uiso   1.00
C285   C     0.41917   0.48518   0.56084   0.00000  Uiso   1.00
C286   C     0.21273   0.31487   0.28843   0.00000  Uiso   1.00
C287   C     0.19948   0.27223   0.33783   0.00000  Uiso   1.00
C288   C     0.22710   0.23321   0.29158   0.00000  Uiso   1.00
C289   C     0.26014   0.15964   0.24815   0.00000  Uiso   1.00
C290   C     0.26022   0.36841   0.15551   0.00000  Uiso   1.00
C291   C     0.18899   0.38711   0.11691   0.00000  Uiso   1.00
C292   C     0.16351   0.40593   0.00396   0.00000  Uiso   1.00
C293   C     0.09709   0.42110   0.98657   0.00000  Uiso   1.00
C294   C     0.28973   0.39526   0.26997   0.00000  Uiso   1.00
C295   C     0.34894   0.42092   0.28570   0.00000  Uiso   1.00
C296   C     0.36734   0.44295   0.39715   0.00000  Uiso   1.00
C297   C     0.25217   0.31840   0.19612   0.00000  Uiso   1.00
C298   C     0.27982   0.27944   0.14979   0.00000  Uiso   1.00
C299   C     0.26662   0.23675   0.19910   0.00000  Uiso   1.00
H300   H     0.15689   0.35915   0.39733   0.00000  Uiso   1.00
H301   H     0.05265   0.39599   0.26345   0.00000  Uiso   1.00
H302   H     0.23807   0.41098   0.54515   0.00000  Uiso   1.00
H303   H     0.16896   0.26951   0.40926   0.00000  Uiso   1.00
H304   H     0.95449   0.43840   0.07433   0.00000  Uiso   1.00
H305   H     0.34545   0.46999   0.66832   0.00000  Uiso   1.00
H306   H     0.19972   0.17169   0.38178   0.00000  Uiso   1.00
H307   H     0.29093   0.37116   0.08365   0.00000  Uiso   1.00
H308   H     0.19404   0.40866   0.93255   0.00000  Uiso   1.00
H309   H     0.37945   0.42365   0.21425   0.00000  Uiso   1.00
H310   H     0.31035   0.28218   0.07836   0.00000  Uiso   1.00
H311   H     0.06925   0.44869   0.80576   0.00000  Uiso   1.00
H312   H     0.46021   0.48028   0.39976   0.00000  Uiso   1.00
H313   H     0.31448   0.18197   0.11321   0.00000  Uiso   1.00
O314   O     0.94572   0.46801   0.84633   0.00000  Uiso   1.00
O315   O     0.45866   0.50945   0.62563   0.00000  Uiso   1.00
O316   O     0.26746   0.11808   0.24968   0.00000  Uiso   1.00
N317   N     0.99479   0.43567   0.03185   0.00000  Uiso   1.00
N318   N     0.36031   0.46521   0.58719   0.00000  Uiso   1.00
N319   N     0.22408   0.18632   0.31932   0.00000  Uiso   1.00
N320   N     0.05654   0.44120   0.88734   0.00000  Uiso   1.00
N321   N     0.42206   0.47075   0.44267   0.00000  Uiso   1.00
N322   N     0.28583   0.19186   0.17480   0.00000  Uiso   1.00
C323   C     0.68760   0.86190   0.32546   0.00000  Uiso   1.00
C324   C     0.64955   0.88358   0.20922   0.00000  Uiso   1.00
C325   C     0.58316   0.89873   0.19199   0.00000  Uiso   1.00
C326   C     0.55758   0.91756   0.07905   0.00000  Uiso   1.00
C327   C     0.49251   0.95070   0.91262   0.00000  Uiso   1.00
C328   C     0.75028   0.89173   0.36227   0.00000  Uiso   1.00
C329   C     0.76860   0.91372   0.47373   0.00000  Uiso   1.00
C330   C     0.82782   0.93941   0.48962   0.00000  Uiso   1.00
C331   C     0.91917   0.98518   0.56084   0.00000  Uiso   1.00
C332   C     0.71273   0.81487   0.28843   0.00000  Uiso   1.00
C333   C     0.69948   0.77223   0.33783   0.00000  Uiso   1.00
C334   C     0.72710   0.73321   0.29158   0.00000  Uiso   1.00
C335   C     0.76014   0.65964   0.24815   0.00000  Uiso   1.00
C336   C     0.76022   0.86841   0.15551   0.00000  Uiso   1.00
C337   C     0.68899   0.88711   0.11691   0.00000  Uiso   1.00
C338   C     0.66351   0.90593   0.00396   0.00000  Uiso   1.00
C339   C     0.59709   0.92110   0.98657   0.00000  Uiso   1.00
C340   C     0.78973   0.89526   0.26997   0.00000  Uiso   1.00
C341   C     0.84894   0.92092   0.28570   0.00000  Uiso   1.00
C342   C     0.86734   0.94295   0.39715   0.00000  Uiso   1.00
C343   C     0.75217   0.81840   0.19612   0.00000  Uiso   1.00
C344   C     0.77982   0.77944   0.14979   0.00000  Uiso   1.00
C345   C     0.76662   0.73675   0.19910   0.00000  Uiso   1.00
H346   H     0.65689   0.85915   0.39733   0.00000  Uiso   1.00
H347   H     0.55265   0.89599   0.26345   0.00000  Uiso   1.00
H348   H     0.73807   0.91098   0.54515   0.00000  Uiso   1.00
H349   H     0.66896   0.76951   0.40926   0.00000  Uiso   1.00
H350   H     0.45449   0.93840   0.07433   0.00000  Uiso   1.00
H351   H     0.84545   0.96999   0.66832   0.00000  Uiso   1.00
H352   H     0.69972   0.67169   0.38178   0.00000  Uiso   1.00
H353   H     0.79093   0.87116   0.08365   0.00000  Uiso   1.00
H354   H     0.69404   0.90866   0.93255   0.00000  Uiso   1.00
H355   H     0.87945   0.92365   0.21425   0.00000  Uiso   1.00
H356   H     0.81035   0.78218   0.07836   0.00000  Uiso   1.00
H357   H     0.56925   0.94869   0.80576   0.00000  Uiso   1.00
H358   H     0.96021   0.98028   0.39976   0.00000  Uiso   1.00
H359   H     0.81448   0.68197   0.11321   0.00000  Uiso   1.00
O360   O     0.44572   0.96801   0.84633   0.00000  Uiso   1.00
O361   O     0.95866   0.00945   0.62563   0.00000  Uiso   1.00
O362   O     0.76746   0.61808   0.24968   0.00000  Uiso   1.00
N363   N     0.49479   0.93567   0.03185   0.00000  Uiso   1.00
N364   N     0.86031   0.96521   0.58719   0.00000  Uiso   1.00
N365   N     0.72408   0.68632   0.31932   0.00000  Uiso   1.00
N366   N     0.55654   0.94120   0.88734   0.00000  Uiso   1.00
N367   N     0.92206   0.97075   0.44267   0.00000  Uiso   1.00
N368   N     0.78583   0.69186   0.17480   0.00000  Uiso   1.00
