data_job_05451
_audit_creation_date              2018-12-19
_audit_creation_method            'Materials Studio'
_symmetry_space_group_name_H-M    'P1'
_symmetry_Int_Tables_number       1
_symmetry_cell_setting            triclinic
loop_
_symmetry_equiv_pos_as_xyz
  x,y,z
_cell_length_a                    22.3064
_cell_length_b                    11.0895
_cell_length_c                    23.8462
_cell_angle_alpha                 90.0000
_cell_angle_beta                  90.0000
_cell_angle_gamma                 90.0000
loop_
_atom_site_label
_atom_site_type_symbol
_atom_site_fract_x
_atom_site_fract_y
_atom_site_fract_z
_atom_site_U_iso_or_equiv
_atom_site_adp_type
_atom_site_occupancy
C1     C     0.38222   0.32578   0.41374   0.00000  Uiso   1.00
C2     C     0.34048   0.29062   0.36581   0.00000  Uiso   1.00
C3     C     0.29641   0.36336   0.34251   0.00000  Uiso   1.00
C4     C     0.26294   0.31458   0.29898   0.00000  Uiso   1.00
C5     C     0.19654   0.27780   0.22753   0.00000  Uiso   1.00
C6     C     0.37338   0.23060   0.45915   0.00000  Uiso   1.00
C7     C     0.35697   0.25289   0.51432   0.00000  Uiso   1.00
C8     C     0.35121   0.15357   0.54937   0.00000  Uiso   1.00
C9     C     0.33592   0.02363   0.62284   0.00000  Uiso   1.00
C10    C     0.44578   0.30810   0.39169   0.00000  Uiso   1.00
C11    C     0.49027   0.39553   0.39015   0.00000  Uiso   1.00
C12    C     0.54547   0.36145   0.36841   0.00000  Uiso   1.00
C13    C     0.64261   0.35183   0.33714   0.00000  Uiso   1.00
C14    C     0.40116   0.10978   0.37787   0.00000  Uiso   1.00
C15    C     0.35077   0.17330   0.34633   0.00000  Uiso   1.00
C16    C     0.31736   0.12439   0.30282   0.00000  Uiso   1.00
C17    C     0.27325   0.19704   0.27945   0.00000  Uiso   1.00
C18    C     0.38366   0.11328   0.43966   0.00000  Uiso   1.00
C19    C     0.37792   0.01391   0.47463   0.00000  Uiso   1.00
C20    C     0.36151   0.03604   0.52985   0.00000  Uiso   1.00
C21    C     0.45607   0.19078   0.37220   0.00000  Uiso   1.00
C22    C     0.51121   0.15655   0.35046   0.00000  Uiso   1.00
C23    C     0.55577   0.24392   0.34889   0.00000  Uiso   1.00
H24    H     0.37422   0.41712   0.42891   0.00000  Uiso   1.00
H25    H     0.28846   0.45415   0.35760   0.00000  Uiso   1.00
H26    H     0.34902   0.34369   0.52939   0.00000  Uiso   1.00
H27    H     0.48229   0.48631   0.40523   0.00000  Uiso   1.00
H28    H     0.19791   0.44345   0.26996   0.00000  Uiso   1.00
H29    H     0.32562   0.21054   0.63219   0.00000  Uiso   1.00
H30    H     0.60665   0.51129   0.37039   0.00000  Uiso   1.00
H31    H     0.40917   0.01844   0.36270   0.00000  Uiso   1.00
H32    H     0.32533   0.03359   0.28775   0.00000  Uiso   1.00
H33    H     0.38589   0.92314   0.45954   0.00000  Uiso   1.00
H34    H     0.51916   0.06575   0.33538   0.00000  Uiso   1.00
H35    H     0.22782   0.10211   0.21327   0.00000  Uiso   1.00
H36    H     0.35555   0.86921   0.57550   0.00000  Uiso   1.00
H37    H     0.63657   0.16994   0.31369   0.00000  Uiso   1.00
O38    O     0.15707   0.28992   0.19352   0.00000  Uiso   1.00
O39    O     0.32464   0.98437   0.66875   0.00000  Uiso   1.00
O40    O     0.69334   0.37894   0.32527   0.00000  Uiso   1.00
N41    N     0.21646   0.36104   0.26689   0.00000  Uiso   1.00
N42    N     0.33586   0.14329   0.60556   0.00000  Uiso   1.00
N43    N     0.59860   0.42445   0.36081   0.00000  Uiso   1.00
N44    N     0.23256   0.17737   0.23639   0.00000  Uiso   1.00
N45    N     0.35196   0.95962   0.57505   0.00000  Uiso   1.00
N46    N     0.61470   0.24078   0.33030   0.00000  Uiso   1.00
C47    C     0.11778   0.67422   0.41374   0.00000  Uiso   1.00
C48    C     0.15952   0.70938   0.36581   0.00000  Uiso   1.00
C49    C     0.20359   0.63664   0.34251   0.00000  Uiso   1.00
C50    C     0.23706   0.68542   0.29898   0.00000  Uiso   1.00
C51    C     0.30346   0.72220   0.22753   0.00000  Uiso   1.00
C52    C     0.12662   0.76940   0.45915   0.00000  Uiso   1.00
C53    C     0.14303   0.74711   0.51432   0.00000  Uiso   1.00
C54    C     0.14879   0.84643   0.54937   0.00000  Uiso   1.00
C55    C     0.16408   0.97637   0.62284   0.00000  Uiso   1.00
C56    C     0.05422   0.69190   0.39169   0.00000  Uiso   1.00
C57    C     0.00973   0.60447   0.39015   0.00000  Uiso   1.00
C58    C     0.95453   0.63855   0.36841   0.00000  Uiso   1.00
C59    C     0.85739   0.64817   0.33714   0.00000  Uiso   1.00
C60    C     0.09884   0.89022   0.37787   0.00000  Uiso   1.00
C61    C     0.14923   0.82670   0.34633   0.00000  Uiso   1.00
C62    C     0.18264   0.87561   0.30282   0.00000  Uiso   1.00
C63    C     0.22675   0.80296   0.27945   0.00000  Uiso   1.00
C64    C     0.11634   0.88672   0.43966   0.00000  Uiso   1.00
C65    C     0.12208   0.98609   0.47463   0.00000  Uiso   1.00
C66    C     0.13849   0.96396   0.52985   0.00000  Uiso   1.00
C67    C     0.04393   0.80922   0.37220   0.00000  Uiso   1.00
C68    C     0.98879   0.84345   0.35046   0.00000  Uiso   1.00
C69    C     0.94423   0.75608   0.34889   0.00000  Uiso   1.00
H70    H     0.12578   0.58288   0.42891   0.00000  Uiso   1.00
H71    H     0.21154   0.54585   0.35760   0.00000  Uiso   1.00
H72    H     0.15098   0.65631   0.52939   0.00000  Uiso   1.00
H73    H     0.01771   0.51369   0.40523   0.00000  Uiso   1.00
H74    H     0.30209   0.55655   0.26996   0.00000  Uiso   1.00
H75    H     0.17438   0.78946   0.63219   0.00000  Uiso   1.00
H76    H     0.89335   0.48871   0.37039   0.00000  Uiso   1.00
H77    H     0.09083   0.98156   0.36270   0.00000  Uiso   1.00
H78    H     0.17467   0.96641   0.28775   0.00000  Uiso   1.00
H79    H     0.11411   0.07686   0.45954   0.00000  Uiso   1.00
H80    H     0.98084   0.93425   0.33538   0.00000  Uiso   1.00
H81    H     0.27218   0.89789   0.21327   0.00000  Uiso   1.00
H82    H     0.14445   0.13079   0.57550   0.00000  Uiso   1.00
H83    H     0.86343   0.83006   0.31369   0.00000  Uiso   1.00
O84    O     0.34293   0.71008   0.19352   0.00000  Uiso   1.00
O85    O     0.17536   0.01563   0.66875   0.00000  Uiso   1.00
O86    O     0.80666   0.62106   0.32527   0.00000  Uiso   1.00
N87    N     0.28354   0.63896   0.26689   0.00000  Uiso   1.00
N88    N     0.16414   0.85671   0.60556   0.00000  Uiso   1.00
N89    N     0.90140   0.57555   0.36081   0.00000  Uiso   1.00
N90    N     0.26744   0.82263   0.23639   0.00000  Uiso   1.00
N91    N     0.14804   0.04038   0.57505   0.00000  Uiso   1.00
N92    N     0.88530   0.75922   0.33030   0.00000  Uiso   1.00
C93    C     0.61778   0.32578   0.08626   0.00000  Uiso   1.00
C94    C     0.65952   0.29062   0.13419   0.00000  Uiso   1.00
C95    C     0.70359   0.36336   0.15749   0.00000  Uiso   1.00
C96    C     0.73706   0.31458   0.20102   0.00000  Uiso   1.00
C97    C     0.80346   0.27780   0.27247   0.00000  Uiso   1.00
C98    C     0.62662   0.23060   0.04085   0.00000  Uiso   1.00
C99    C     0.64303   0.25289   0.98568   0.00000  Uiso   1.00
C100   C     0.64879   0.15357   0.95063   0.00000  Uiso   1.00
C101   C     0.66408   0.02363   0.87716   0.00000  Uiso   1.00
C102   C     0.55422   0.30810   0.10831   0.00000  Uiso   1.00
C103   C     0.50973   0.39553   0.10985   0.00000  Uiso   1.00
C104   C     0.45453   0.36145   0.13159   0.00000  Uiso   1.00
C105   C     0.35739   0.35183   0.16286   0.00000  Uiso   1.00
C106   C     0.59884   0.10978   0.12213   0.00000  Uiso   1.00
C107   C     0.64923   0.17330   0.15367   0.00000  Uiso   1.00
C108   C     0.68264   0.12439   0.19718   0.00000  Uiso   1.00
C109   C     0.72675   0.19704   0.22055   0.00000  Uiso   1.00
C110   C     0.61634   0.11328   0.06034   0.00000  Uiso   1.00
C111   C     0.62208   0.01391   0.02537   0.00000  Uiso   1.00
C112   C     0.63849   0.03604   0.97015   0.00000  Uiso   1.00
C113   C     0.54393   0.19078   0.12780   0.00000  Uiso   1.00
C114   C     0.48879   0.15655   0.14954   0.00000  Uiso   1.00
C115   C     0.44423   0.24392   0.15111   0.00000  Uiso   1.00
H116   H     0.62578   0.41712   0.07109   0.00000  Uiso   1.00
H117   H     0.71154   0.45415   0.14240   0.00000  Uiso   1.00
H118   H     0.65098   0.34369   0.97061   0.00000  Uiso   1.00
H119   H     0.51771   0.48631   0.09477   0.00000  Uiso   1.00
H120   H     0.80209   0.44345   0.23004   0.00000  Uiso   1.00
H121   H     0.67438   0.21054   0.86781   0.00000  Uiso   1.00
H122   H     0.39335   0.51129   0.12961   0.00000  Uiso   1.00
H123   H     0.59083   0.01844   0.13730   0.00000  Uiso   1.00
H124   H     0.67467   0.03359   0.21225   0.00000  Uiso   1.00
H125   H     0.61411   0.92314   0.04046   0.00000  Uiso   1.00
H126   H     0.48084   0.06575   0.16462   0.00000  Uiso   1.00
H127   H     0.77218   0.10211   0.28673   0.00000  Uiso   1.00
H128   H     0.64445   0.86921   0.92450   0.00000  Uiso   1.00
H129   H     0.36343   0.16994   0.18631   0.00000  Uiso   1.00
O130   O     0.84293   0.28992   0.30648   0.00000  Uiso   1.00
O131   O     0.67536   0.98437   0.83125   0.00000  Uiso   1.00
O132   O     0.30666   0.37894   0.17473   0.00000  Uiso   1.00
N133   N     0.78354   0.36104   0.23311   0.00000  Uiso   1.00
N134   N     0.66414   0.14329   0.89444   0.00000  Uiso   1.00
N135   N     0.40140   0.42445   0.13919   0.00000  Uiso   1.00
N136   N     0.76744   0.17737   0.26361   0.00000  Uiso   1.00
N137   N     0.64804   0.95962   0.92495   0.00000  Uiso   1.00
N138   N     0.38530   0.24078   0.16970   0.00000  Uiso   1.00
C139   C     0.88222   0.67422   0.08626   0.00000  Uiso   1.00
C140   C     0.84048   0.70938   0.13419   0.00000  Uiso   1.00
C141   C     0.79641   0.63664   0.15749   0.00000  Uiso   1.00
C142   C     0.76294   0.68542   0.20102   0.00000  Uiso   1.00
C143   C     0.69654   0.72220   0.27247   0.00000  Uiso   1.00
C144   C     0.87338   0.76940   0.04085   0.00000  Uiso   1.00
C145   C     0.85697   0.74711   0.98568   0.00000  Uiso   1.00
C146   C     0.85121   0.84643   0.95063   0.00000  Uiso   1.00
C147   C     0.83592   0.97637   0.87716   0.00000  Uiso   1.00
C148   C     0.94578   0.69190   0.10831   0.00000  Uiso   1.00
C149   C     0.99027   0.60447   0.10985   0.00000  Uiso   1.00
C150   C     0.04547   0.63855   0.13159   0.00000  Uiso   1.00
C151   C     0.14261   0.64817   0.16286   0.00000  Uiso   1.00
C152   C     0.90116   0.89022   0.12213   0.00000  Uiso   1.00
C153   C     0.85077   0.82670   0.15367   0.00000  Uiso   1.00
C154   C     0.81736   0.87561   0.19718   0.00000  Uiso   1.00
C155   C     0.77325   0.80296   0.22055   0.00000  Uiso   1.00
C156   C     0.88366   0.88672   0.06034   0.00000  Uiso   1.00
C157   C     0.87792   0.98609   0.02537   0.00000  Uiso   1.00
C158   C     0.86151   0.96396   0.97015   0.00000  Uiso   1.00
C159   C     0.95607   0.80922   0.12780   0.00000  Uiso   1.00
C160   C     0.01121   0.84345   0.14954   0.00000  Uiso   1.00
C161   C     0.05577   0.75608   0.15111   0.00000  Uiso   1.00
H162   H     0.87422   0.58288   0.07109   0.00000  Uiso   1.00
H163   H     0.78846   0.54585   0.14240   0.00000  Uiso   1.00
H164   H     0.84902   0.65631   0.97061   0.00000  Uiso   1.00
H165   H     0.98229   0.51369   0.09477   0.00000  Uiso   1.00
H166   H     0.69791   0.55655   0.23004   0.00000  Uiso   1.00
H167   H     0.82562   0.78946   0.86781   0.00000  Uiso   1.00
H168   H     0.10665   0.48871   0.12961   0.00000  Uiso   1.00
H169   H     0.90917   0.98156   0.13730   0.00000  Uiso   1.00
H170   H     0.82533   0.96641   0.21225   0.00000  Uiso   1.00
H171   H     0.88589   0.07686   0.04046   0.00000  Uiso   1.00
H172   H     0.01916   0.93425   0.16462   0.00000  Uiso   1.00
H173   H     0.72782   0.89789   0.28673   0.00000  Uiso   1.00
H174   H     0.85555   0.13079   0.92450   0.00000  Uiso   1.00
H175   H     0.13657   0.83006   0.18631   0.00000  Uiso   1.00
O176   O     0.65707   0.71008   0.30648   0.00000  Uiso   1.00
O177   O     0.82464   0.01563   0.83125   0.00000  Uiso   1.00
O178   O     0.19334   0.62106   0.17473   0.00000  Uiso   1.00
N179   N     0.71646   0.63896   0.23311   0.00000  Uiso   1.00
N180   N     0.83586   0.85671   0.89444   0.00000  Uiso   1.00
N181   N     0.09860   0.57555   0.13919   0.00000  Uiso   1.00
N182   N     0.73256   0.82263   0.26361   0.00000  Uiso   1.00
N183   N     0.85196   0.04038   0.92495   0.00000  Uiso   1.00
N184   N     0.11470   0.75922   0.16970   0.00000  Uiso   1.00
C185   C     0.61778   0.67422   0.58626   0.00000  Uiso   1.00
C186   C     0.65952   0.70938   0.63419   0.00000  Uiso   1.00
C187   C     0.70359   0.63664   0.65749   0.00000  Uiso   1.00
C188   C     0.73706   0.68542   0.70102   0.00000  Uiso   1.00
C189   C     0.80346   0.72220   0.77247   0.00000  Uiso   1.00
C190   C     0.62662   0.76940   0.54085   0.00000  Uiso   1.00
C191   C     0.64303   0.74711   0.48568   0.00000  Uiso   1.00
C192   C     0.64879   0.84643   0.45063   0.00000  Uiso   1.00
C193   C     0.66408   0.97637   0.37716   0.00000  Uiso   1.00
C194   C     0.55422   0.69190   0.60831   0.00000  Uiso   1.00
C195   C     0.50973   0.60447   0.60985   0.00000  Uiso   1.00
C196   C     0.45453   0.63855   0.63159   0.00000  Uiso   1.00
C197   C     0.35739   0.64817   0.66286   0.00000  Uiso   1.00
C198   C     0.59884   0.89022   0.62213   0.00000  Uiso   1.00
C199   C     0.64923   0.82670   0.65367   0.00000  Uiso   1.00
C200   C     0.68264   0.87561   0.69718   0.00000  Uiso   1.00
C201   C     0.72675   0.80296   0.72055   0.00000  Uiso   1.00
C202   C     0.61634   0.88672   0.56034   0.00000  Uiso   1.00
C203   C     0.62208   0.98609   0.52537   0.00000  Uiso   1.00
C204   C     0.63849   0.96396   0.47015   0.00000  Uiso   1.00
C205   C     0.54393   0.80922   0.62780   0.00000  Uiso   1.00
C206   C     0.48879   0.84345   0.64954   0.00000  Uiso   1.00
C207   C     0.44423   0.75608   0.65111   0.00000  Uiso   1.00
H208   H     0.62578   0.58288   0.57109   0.00000  Uiso   1.00
H209   H     0.71154   0.54585   0.64240   0.00000  Uiso   1.00
H210   H     0.65098   0.65631   0.47061   0.00000  Uiso   1.00
H211   H     0.51771   0.51369   0.59477   0.00000  Uiso   1.00
H212   H     0.80209   0.55655   0.73004   0.00000  Uiso   1.00
H213   H     0.67438   0.78946   0.36781   0.00000  Uiso   1.00
H214   H     0.39335   0.48871   0.62961   0.00000  Uiso   1.00
H215   H     0.59083   0.98156   0.63730   0.00000  Uiso   1.00
H216   H     0.67467   0.96641   0.71225   0.00000  Uiso   1.00
H217   H     0.61411   0.07686   0.54046   0.00000  Uiso   1.00
H218   H     0.48084   0.93425   0.66462   0.00000  Uiso   1.00
H219   H     0.77218   0.89789   0.78673   0.00000  Uiso   1.00
H220   H     0.64445   0.13079   0.42450   0.00000  Uiso   1.00
H221   H     0.36343   0.83006   0.68631   0.00000  Uiso   1.00
O222   O     0.84293   0.71008   0.80648   0.00000  Uiso   1.00
O223   O     0.67536   0.01563   0.33125   0.00000  Uiso   1.00
O224   O     0.30666   0.62106   0.67473   0.00000  Uiso   1.00
N225   N     0.78354   0.63896   0.73311   0.00000  Uiso   1.00
N226   N     0.66414   0.85671   0.39444   0.00000  Uiso   1.00
N227   N     0.40140   0.57555   0.63919   0.00000  Uiso   1.00
N228   N     0.76744   0.82263   0.76361   0.00000  Uiso   1.00
N229   N     0.64804   0.04038   0.42495   0.00000  Uiso   1.00
N230   N     0.38530   0.75922   0.66970   0.00000  Uiso   1.00
C231   C     0.88222   0.32578   0.58626   0.00000  Uiso   1.00
C232   C     0.84048   0.29062   0.63419   0.00000  Uiso   1.00
C233   C     0.79641   0.36336   0.65749   0.00000  Uiso   1.00
C234   C     0.76294   0.31458   0.70102   0.00000  Uiso   1.00
C235   C     0.69654   0.27780   0.77247   0.00000  Uiso   1.00
C236   C     0.87338   0.23060   0.54085   0.00000  Uiso   1.00
C237   C     0.85697   0.25289   0.48568   0.00000  Uiso   1.00
C238   C     0.85121   0.15357   0.45063   0.00000  Uiso   1.00
C239   C     0.83592   0.02363   0.37716   0.00000  Uiso   1.00
C240   C     0.94578   0.30810   0.60831   0.00000  Uiso   1.00
C241   C     0.99027   0.39553   0.60985   0.00000  Uiso   1.00
C242   C     0.04547   0.36145   0.63159   0.00000  Uiso   1.00
C243   C     0.14261   0.35183   0.66286   0.00000  Uiso   1.00
C244   C     0.90116   0.10978   0.62213   0.00000  Uiso   1.00
C245   C     0.85077   0.17330   0.65367   0.00000  Uiso   1.00
C246   C     0.81736   0.12439   0.69718   0.00000  Uiso   1.00
C247   C     0.77325   0.19704   0.72055   0.00000  Uiso   1.00
C248   C     0.88366   0.11328   0.56034   0.00000  Uiso   1.00
C249   C     0.87792   0.01391   0.52537   0.00000  Uiso   1.00
C250   C     0.86151   0.03604   0.47015   0.00000  Uiso   1.00
C251   C     0.95607   0.19078   0.62780   0.00000  Uiso   1.00
C252   C     0.01121   0.15655   0.64954   0.00000  Uiso   1.00
C253   C     0.05577   0.24392   0.65111   0.00000  Uiso   1.00
H254   H     0.87422   0.41712   0.57109   0.00000  Uiso   1.00
H255   H     0.78846   0.45415   0.64240   0.00000  Uiso   1.00
H256   H     0.84902   0.34369   0.47061   0.00000  Uiso   1.00
H257   H     0.98229   0.48631   0.59477   0.00000  Uiso   1.00
H258   H     0.69791   0.44345   0.73004   0.00000  Uiso   1.00
H259   H     0.82562   0.21054   0.36781   0.00000  Uiso   1.00
H260   H     0.10665   0.51129   0.62961   0.00000  Uiso   1.00
H261   H     0.90917   0.01844   0.63730   0.00000  Uiso   1.00
H262   H     0.82533   0.03359   0.71225   0.00000  Uiso   1.00
H263   H     0.88589   0.92314   0.54046   0.00000  Uiso   1.00
H264   H     0.01916   0.06575   0.66462   0.00000  Uiso   1.00
H265   H     0.72782   0.10211   0.78673   0.00000  Uiso   1.00
H266   H     0.85555   0.86921   0.42450   0.00000  Uiso   1.00
H267   H     0.13657   0.16994   0.68631   0.00000  Uiso   1.00
O268   O     0.65707   0.28992   0.80648   0.00000  Uiso   1.00
O269   O     0.82464   0.98437   0.33125   0.00000  Uiso   1.00
O270   O     0.19334   0.37894   0.67473   0.00000  Uiso   1.00
N271   N     0.71646   0.36104   0.73311   0.00000  Uiso   1.00
N272   N     0.83586   0.14329   0.39444   0.00000  Uiso   1.00
N273   N     0.09860   0.42445   0.63919   0.00000  Uiso   1.00
N274   N     0.73256   0.17737   0.76361   0.00000  Uiso   1.00
N275   N     0.85196   0.95962   0.42495   0.00000  Uiso   1.00
N276   N     0.11470   0.24078   0.66970   0.00000  Uiso   1.00
C277   C     0.38222   0.67422   0.91374   0.00000  Uiso   1.00
C278   C     0.34048   0.70938   0.86581   0.00000  Uiso   1.00
C279   C     0.29641   0.63664   0.84251   0.00000  Uiso   1.00
C280   C     0.26294   0.68542   0.79898   0.00000  Uiso   1.00
C281   C     0.19654   0.72220   0.72753   0.00000  Uiso   1.00
C282   C     0.37338   0.76940   0.95915   0.00000  Uiso   1.00
C283   C     0.35697   0.74711   0.01432   0.00000  Uiso   1.00
C284   C     0.35121   0.84643   0.04937   0.00000  Uiso   1.00
C285   C     0.33592   0.97637   0.12284   0.00000  Uiso   1.00
C286   C     0.44578   0.69190   0.89169   0.00000  Uiso   1.00
C287   C     0.49027   0.60447   0.89015   0.00000  Uiso   1.00
C288   C     0.54547   0.63855   0.86841   0.00000  Uiso   1.00
C289   C     0.64261   0.64817   0.83714   0.00000  Uiso   1.00
C290   C     0.40116   0.89022   0.87787   0.00000  Uiso   1.00
C291   C     0.35077   0.82670   0.84633   0.00000  Uiso   1.00
C292   C     0.31736   0.87561   0.80282   0.00000  Uiso   1.00
C293   C     0.27325   0.80296   0.77945   0.00000  Uiso   1.00
C294   C     0.38366   0.88672   0.93966   0.00000  Uiso   1.00
C295   C     0.37792   0.98609   0.97463   0.00000  Uiso   1.00
C296   C     0.36151   0.96396   0.02985   0.00000  Uiso   1.00
C297   C     0.45607   0.80922   0.87220   0.00000  Uiso   1.00
C298   C     0.51121   0.84345   0.85046   0.00000  Uiso   1.00
C299   C     0.55577   0.75608   0.84889   0.00000  Uiso   1.00
H300   H     0.37422   0.58288   0.92891   0.00000  Uiso   1.00
H301   H     0.28846   0.54585   0.85760   0.00000  Uiso   1.00
H302   H     0.34902   0.65631   0.02939   0.00000  Uiso   1.00
H303   H     0.48229   0.51369   0.90523   0.00000  Uiso   1.00
H304   H     0.19791   0.55655   0.76996   0.00000  Uiso   1.00
H305   H     0.32562   0.78946   0.13219   0.00000  Uiso   1.00
H306   H     0.60665   0.48871   0.87039   0.00000  Uiso   1.00
H307   H     0.40917   0.98156   0.86270   0.00000  Uiso   1.00
H308   H     0.32533   0.96641   0.78775   0.00000  Uiso   1.00
H309   H     0.38589   0.07686   0.95954   0.00000  Uiso   1.00
H310   H     0.51916   0.93425   0.83538   0.00000  Uiso   1.00
H311   H     0.22782   0.89789   0.71327   0.00000  Uiso   1.00
H312   H     0.35555   0.13079   0.07550   0.00000  Uiso   1.00
H313   H     0.63657   0.83006   0.81369   0.00000  Uiso   1.00
O314   O     0.15707   0.71008   0.69352   0.00000  Uiso   1.00
O315   O     0.32464   0.01563   0.16875   0.00000  Uiso   1.00
O316   O     0.69334   0.62106   0.82527   0.00000  Uiso   1.00
N317   N     0.21646   0.63896   0.76689   0.00000  Uiso   1.00
N318   N     0.33586   0.85671   0.10556   0.00000  Uiso   1.00
N319   N     0.59860   0.57555   0.86081   0.00000  Uiso   1.00
N320   N     0.23256   0.82263   0.73639   0.00000  Uiso   1.00
N321   N     0.35196   0.04038   0.07505   0.00000  Uiso   1.00
N322   N     0.61470   0.75922   0.83030   0.00000  Uiso   1.00
C323   C     0.11778   0.32578   0.91374   0.00000  Uiso   1.00
C324   C     0.15952   0.29062   0.86581   0.00000  Uiso   1.00
C325   C     0.20359   0.36336   0.84251   0.00000  Uiso   1.00
C326   C     0.23706   0.31458   0.79898   0.00000  Uiso   1.00
C327   C     0.30346   0.27780   0.72753   0.00000  Uiso   1.00
C328   C     0.12662   0.23060   0.95915   0.00000  Uiso   1.00
C329   C     0.14303   0.25289   0.01432   0.00000  Uiso   1.00
C330   C     0.14879   0.15357   0.04937   0.00000  Uiso   1.00
C331   C     0.16408   0.02363   0.12284   0.00000  Uiso   1.00
C332   C     0.05422   0.30810   0.89169   0.00000  Uiso   1.00
C333   C     0.00973   0.39553   0.89015   0.00000  Uiso   1.00
C334   C     0.95453   0.36145   0.86841   0.00000  Uiso   1.00
C335   C     0.85739   0.35183   0.83714   0.00000  Uiso   1.00
C336   C     0.09884   0.10978   0.87787   0.00000  Uiso   1.00
C337   C     0.14923   0.17330   0.84633   0.00000  Uiso   1.00
C338   C     0.18264   0.12439   0.80282   0.00000  Uiso   1.00
C339   C     0.22675   0.19704   0.77945   0.00000  Uiso   1.00
C340   C     0.11634   0.11328   0.93966   0.00000  Uiso   1.00
C341   C     0.12208   0.01391   0.97463   0.00000  Uiso   1.00
C342   C     0.13849   0.03604   0.02985   0.00000  Uiso   1.00
C343   C     0.04393   0.19078   0.87220   0.00000  Uiso   1.00
C344   C     0.98879   0.15655   0.85046   0.00000  Uiso   1.00
C345   C     0.94423   0.24392   0.84889   0.00000  Uiso   1.00
H346   H     0.12578   0.41712   0.92891   0.00000  Uiso   1.00
H347   H     0.21154   0.45415   0.85760   0.00000  Uiso   1.00
H348   H     0.15098   0.34369   0.02939   0.00000  Uiso   1.00
H349   H     0.01771   0.48631   0.90523   0.00000  Uiso   1.00
H350   H     0.30209   0.44345   0.76996   0.00000  Uiso   1.00
H351   H     0.17438   0.21054   0.13219   0.00000  Uiso   1.00
H352   H     0.89335   0.51129   0.87039   0.00000  Uiso   1.00
H353   H     0.09083   0.01844   0.86270   0.00000  Uiso   1.00
H354   H     0.17467   0.03359   0.78775   0.00000  Uiso   1.00
H355   H     0.11411   0.92314   0.95954   0.00000  Uiso   1.00
H356   H     0.98084   0.06575   0.83538   0.00000  Uiso   1.00
H357   H     0.27218   0.10211   0.71327   0.00000  Uiso   1.00
H358   H     0.14445   0.86921   0.07550   0.00000  Uiso   1.00
H359   H     0.86343   0.16994   0.81369   0.00000  Uiso   1.00
O360   O     0.34293   0.28992   0.69352   0.00000  Uiso   1.00
O361   O     0.17536   0.98437   0.16875   0.00000  Uiso   1.00
O362   O     0.80666   0.37894   0.82527   0.00000  Uiso   1.00
N363   N     0.28354   0.36104   0.76689   0.00000  Uiso   1.00
N364   N     0.16414   0.14329   0.10556   0.00000  Uiso   1.00
N365   N     0.90140   0.42445   0.86081   0.00000  Uiso   1.00
N366   N     0.26744   0.17737   0.73639   0.00000  Uiso   1.00
N367   N     0.14804   0.95962   0.07505   0.00000  Uiso   1.00
N368   N     0.88530   0.24078   0.83030   0.00000  Uiso   1.00
