data_job_00224
_audit_creation_date              2018-12-19
_audit_creation_method            'Materials Studio'
_symmetry_space_group_name_H-M    'P1'
_symmetry_Int_Tables_number       1
_symmetry_cell_setting            triclinic
loop_
_symmetry_equiv_pos_as_xyz
  x,y,z
_cell_length_a                    17.1782
_cell_length_b                    17.1782
_cell_length_c                    16.4736
_cell_angle_alpha                 90.0000
_cell_angle_beta                  90.0000
_cell_angle_gamma                 90.0000
loop_
_atom_site_label
_atom_site_type_symbol
_atom_site_fract_x
_atom_site_fract_y
_atom_site_fract_z
_atom_site_U_iso_or_equiv
_atom_site_adp_type
_atom_site_occupancy
C1     C     0.64773   0.04558   0.17389   0.00000  Uiso   1.00
C2     C     0.61170   0.97203   0.13819   0.00000  Uiso   1.00
C3     C     0.53262   0.95726   0.13051   0.00000  Uiso   1.00
C4     C     0.51142   0.88651   0.09628   0.00000  Uiso   1.00
C5     C     0.44697   0.78049   0.04477   0.00000  Uiso   1.00
C6     C     0.70059   0.01856   0.24272   0.00000  Uiso   1.00
C7     C     0.69625   0.04292   0.32292   0.00000  Uiso   1.00
C8     C     0.74989   0.01134   0.37667   0.00000  Uiso   1.00
C9     C     0.82347   0.97760   0.48744   0.00000  Uiso   1.00
C10    C     0.70149   0.07806   0.10848   0.00000  Uiso   1.00
C11    C     0.69792   0.15244   0.07582   0.00000  Uiso   1.00
C12    C     0.75234   0.17096   0.01657   0.00000  Uiso   1.00
C13    C     0.82732   0.22960   0.91890   0.00000  Uiso   1.00
C14    C     0.75073   0.94621   0.12676   0.00000  Uiso   1.00
C15    C     0.66764   0.91806   0.11259   0.00000  Uiso   1.00
C16    C     0.64657   0.84731   0.07836   0.00000  Uiso   1.00
C17    C     0.56747   0.83243   0.07063   0.00000  Uiso   1.00
C18    C     0.75653   0.96458   0.21712   0.00000  Uiso   1.00
C19    C     0.81020   0.93297   0.27077   0.00000  Uiso   1.00
C20    C     0.80594   0.95726   0.35103   0.00000  Uiso   1.00
C21    C     0.75743   0.02408   0.08287   0.00000  Uiso   1.00
C22    C     0.81187   0.04249   0.02367   0.00000  Uiso   1.00
C23    C     0.80839   0.11689   0.99092   0.00000  Uiso   1.00
H24    H     0.60418   0.08761   0.19383   0.00000  Uiso   1.00
H25    H     0.48934   0.99904   0.15034   0.00000  Uiso   1.00
H26    H     0.65295   0.08469   0.34271   0.00000  Uiso   1.00
H27    H     0.65462   0.19420   0.09565   0.00000  Uiso   1.00
H28    H     0.38669   0.87704   0.09085   0.00000  Uiso   1.00
H29    H     0.73169   0.05765   0.49648   0.00000  Uiso   1.00
H30    H     0.73522   0.28857   0.97550   0.00000  Uiso   1.00
H31    H     0.79429   0.90418   0.10682   0.00000  Uiso   1.00
H32    H     0.68987   0.80555   0.05855   0.00000  Uiso   1.00
H33    H     0.85349   0.89120   0.25093   0.00000  Uiso   1.00
H34    H     0.85516   0.00070   0.00387   0.00000  Uiso   1.00
H35    H     0.54945   0.71999   0.01636   0.00000  Uiso   1.00
H36    H     0.89446   0.90061   0.42199   0.00000  Uiso   1.00
H37    H     0.89798   0.13152   0.90101   0.00000  Uiso   1.00
O38    O     0.39596   0.73693   0.02345   0.00000  Uiso   1.00
O39    O     0.84859   0.97390   0.55561   0.00000  Uiso   1.00
O40    O     0.85322   0.27685   0.87210   0.00000  Uiso   1.00
N41    N     0.43932   0.85362   0.07993   0.00000  Uiso   1.00
N42    N     0.76187   0.02247   0.45917   0.00000  Uiso   1.00
N43    N     0.76519   0.23837   0.97211   0.00000  Uiso   1.00
N44    N     0.52690   0.76911   0.03985   0.00000  Uiso   1.00
N45    N     0.84945   0.93797   0.41908   0.00000  Uiso   1.00
N46    N     0.85277   0.15386   0.93203   0.00000  Uiso   1.00
C47    C     0.35227   0.95442   0.67389   0.00000  Uiso   1.00
C48    C     0.38830   0.02797   0.63819   0.00000  Uiso   1.00
C49    C     0.46738   0.04274   0.63051   0.00000  Uiso   1.00
C50    C     0.48858   0.11349   0.59628   0.00000  Uiso   1.00
C51    C     0.55303   0.21951   0.54477   0.00000  Uiso   1.00
C52    C     0.29941   0.98144   0.74272   0.00000  Uiso   1.00
C53    C     0.30375   0.95708   0.82292   0.00000  Uiso   1.00
C54    C     0.25011   0.98866   0.87667   0.00000  Uiso   1.00
C55    C     0.17653   0.02240   0.98744   0.00000  Uiso   1.00
C56    C     0.29851   0.92194   0.60848   0.00000  Uiso   1.00
C57    C     0.30208   0.84756   0.57582   0.00000  Uiso   1.00
C58    C     0.24766   0.82904   0.51657   0.00000  Uiso   1.00
C59    C     0.17268   0.77040   0.41890   0.00000  Uiso   1.00
C60    C     0.24927   0.05379   0.62676   0.00000  Uiso   1.00
C61    C     0.33236   0.08194   0.61259   0.00000  Uiso   1.00
C62    C     0.35343   0.15269   0.57836   0.00000  Uiso   1.00
C63    C     0.43253   0.16757   0.57063   0.00000  Uiso   1.00
C64    C     0.24347   0.03542   0.71712   0.00000  Uiso   1.00
C65    C     0.18980   0.06703   0.77077   0.00000  Uiso   1.00
C66    C     0.19406   0.04274   0.85103   0.00000  Uiso   1.00
C67    C     0.24257   0.97592   0.58287   0.00000  Uiso   1.00
C68    C     0.18813   0.95751   0.52367   0.00000  Uiso   1.00
C69    C     0.19161   0.88311   0.49092   0.00000  Uiso   1.00
H70    H     0.39582   0.91239   0.69383   0.00000  Uiso   1.00
H71    H     0.51066   0.00096   0.65034   0.00000  Uiso   1.00
H72    H     0.34705   0.91531   0.84271   0.00000  Uiso   1.00
H73    H     0.34538   0.80580   0.59565   0.00000  Uiso   1.00
H74    H     0.61331   0.12296   0.59085   0.00000  Uiso   1.00
H75    H     0.26831   0.94235   0.99648   0.00000  Uiso   1.00
H76    H     0.26478   0.71143   0.47550   0.00000  Uiso   1.00
H77    H     0.20571   0.09582   0.60682   0.00000  Uiso   1.00
H78    H     0.31013   0.19445   0.55855   0.00000  Uiso   1.00
H79    H     0.14651   0.10880   0.75093   0.00000  Uiso   1.00
H80    H     0.14484   0.99930   0.50387   0.00000  Uiso   1.00
H81    H     0.45055   0.28001   0.51636   0.00000  Uiso   1.00
H82    H     0.10554   0.09939   0.92199   0.00000  Uiso   1.00
H83    H     0.10202   0.86848   0.40101   0.00000  Uiso   1.00
O84    O     0.60404   0.26307   0.52345   0.00000  Uiso   1.00
O85    O     0.15141   0.02610   0.05561   0.00000  Uiso   1.00
O86    O     0.14678   0.72315   0.37210   0.00000  Uiso   1.00
N87    N     0.56068   0.14638   0.57993   0.00000  Uiso   1.00
N88    N     0.23813   0.97753   0.95917   0.00000  Uiso   1.00
N89    N     0.23481   0.76163   0.47211   0.00000  Uiso   1.00
N90    N     0.47310   0.23089   0.53985   0.00000  Uiso   1.00
N91    N     0.15055   0.06203   0.91908   0.00000  Uiso   1.00
N92    N     0.14723   0.84614   0.43203   0.00000  Uiso   1.00
C93    C     0.45442   0.14773   0.92389   0.00000  Uiso   1.00
C94    C     0.52797   0.11170   0.88819   0.00000  Uiso   1.00
C95    C     0.54274   0.03262   0.88051   0.00000  Uiso   1.00
C96    C     0.61349   0.01142   0.84628   0.00000  Uiso   1.00
C97    C     0.71951   0.94697   0.79477   0.00000  Uiso   1.00
C98    C     0.48144   0.20059   0.99272   0.00000  Uiso   1.00
C99    C     0.45708   0.19625   0.07292   0.00000  Uiso   1.00
C100   C     0.48866   0.24989   0.12667   0.00000  Uiso   1.00
C101   C     0.52240   0.32347   0.23744   0.00000  Uiso   1.00
C102   C     0.42194   0.20149   0.85848   0.00000  Uiso   1.00
C103   C     0.34756   0.19792   0.82582   0.00000  Uiso   1.00
C104   C     0.32904   0.25234   0.76657   0.00000  Uiso   1.00
C105   C     0.27040   0.32732   0.66890   0.00000  Uiso   1.00
C106   C     0.55379   0.25073   0.87676   0.00000  Uiso   1.00
C107   C     0.58194   0.16764   0.86259   0.00000  Uiso   1.00
C108   C     0.65269   0.14657   0.82836   0.00000  Uiso   1.00
C109   C     0.66757   0.06747   0.82063   0.00000  Uiso   1.00
C110   C     0.53542   0.25653   0.96712   0.00000  Uiso   1.00
C111   C     0.56703   0.31020   0.02077   0.00000  Uiso   1.00
C112   C     0.54274   0.30594   0.10103   0.00000  Uiso   1.00
C113   C     0.47592   0.25743   0.83287   0.00000  Uiso   1.00
C114   C     0.45751   0.31187   0.77367   0.00000  Uiso   1.00
C115   C     0.38311   0.30839   0.74092   0.00000  Uiso   1.00
H116   H     0.41239   0.10418   0.94383   0.00000  Uiso   1.00
H117   H     0.50096   0.98934   0.90034   0.00000  Uiso   1.00
H118   H     0.41531   0.15295   0.09271   0.00000  Uiso   1.00
H119   H     0.30580   0.15462   0.84565   0.00000  Uiso   1.00
H120   H     0.62296   0.88669   0.84085   0.00000  Uiso   1.00
H121   H     0.44235   0.23169   0.24648   0.00000  Uiso   1.00
H122   H     0.21143   0.23522   0.72550   0.00000  Uiso   1.00
H123   H     0.59582   0.29429   0.85682   0.00000  Uiso   1.00
H124   H     0.69445   0.18987   0.80855   0.00000  Uiso   1.00
H125   H     0.60880   0.35349   0.00093   0.00000  Uiso   1.00
H126   H     0.49930   0.35516   0.75387   0.00000  Uiso   1.00
H127   H     0.78001   0.04945   0.76636   0.00000  Uiso   1.00
H128   H     0.59939   0.39446   0.17199   0.00000  Uiso   1.00
H129   H     0.36848   0.39798   0.65101   0.00000  Uiso   1.00
O130   O     0.76307   0.89596   0.77345   0.00000  Uiso   1.00
O131   O     0.52610   0.34859   0.30561   0.00000  Uiso   1.00
O132   O     0.22315   0.35322   0.62210   0.00000  Uiso   1.00
N133   N     0.64638   0.93932   0.82993   0.00000  Uiso   1.00
N134   N     0.47753   0.26187   0.20917   0.00000  Uiso   1.00
N135   N     0.26163   0.26519   0.72211   0.00000  Uiso   1.00
N136   N     0.73089   0.02690   0.78985   0.00000  Uiso   1.00
N137   N     0.56203   0.34945   0.16908   0.00000  Uiso   1.00
N138   N     0.34614   0.35277   0.68203   0.00000  Uiso   1.00
C139   C     0.54558   0.85227   0.42389   0.00000  Uiso   1.00
C140   C     0.47203   0.88830   0.38819   0.00000  Uiso   1.00
C141   C     0.45726   0.96738   0.38051   0.00000  Uiso   1.00
C142   C     0.38651   0.98858   0.34628   0.00000  Uiso   1.00
C143   C     0.28049   0.05303   0.29477   0.00000  Uiso   1.00
C144   C     0.51856   0.79941   0.49272   0.00000  Uiso   1.00
C145   C     0.54292   0.80375   0.57292   0.00000  Uiso   1.00
C146   C     0.51134   0.75011   0.62667   0.00000  Uiso   1.00
C147   C     0.47760   0.67653   0.73744   0.00000  Uiso   1.00
C148   C     0.57806   0.79851   0.35848   0.00000  Uiso   1.00
C149   C     0.65244   0.80208   0.32582   0.00000  Uiso   1.00
C150   C     0.67096   0.74766   0.26657   0.00000  Uiso   1.00
C151   C     0.72960   0.67268   0.16890   0.00000  Uiso   1.00
C152   C     0.44621   0.74927   0.37676   0.00000  Uiso   1.00
C153   C     0.41806   0.83236   0.36259   0.00000  Uiso   1.00
C154   C     0.34731   0.85343   0.32836   0.00000  Uiso   1.00
C155   C     0.33243   0.93253   0.32063   0.00000  Uiso   1.00
C156   C     0.46458   0.74347   0.46712   0.00000  Uiso   1.00
C157   C     0.43297   0.68980   0.52077   0.00000  Uiso   1.00
C158   C     0.45726   0.69406   0.60103   0.00000  Uiso   1.00
C159   C     0.52408   0.74257   0.33287   0.00000  Uiso   1.00
C160   C     0.54249   0.68813   0.27367   0.00000  Uiso   1.00
C161   C     0.61689   0.69161   0.24092   0.00000  Uiso   1.00
H162   H     0.58761   0.89582   0.44383   0.00000  Uiso   1.00
H163   H     0.49904   0.01066   0.40034   0.00000  Uiso   1.00
H164   H     0.58469   0.84705   0.59271   0.00000  Uiso   1.00
H165   H     0.69420   0.84538   0.34565   0.00000  Uiso   1.00
H166   H     0.37704   0.11331   0.34085   0.00000  Uiso   1.00
H167   H     0.55765   0.76831   0.74648   0.00000  Uiso   1.00
H168   H     0.78857   0.76478   0.22550   0.00000  Uiso   1.00
H169   H     0.40418   0.70571   0.35682   0.00000  Uiso   1.00
H170   H     0.30555   0.81013   0.30855   0.00000  Uiso   1.00
H171   H     0.39120   0.64651   0.50093   0.00000  Uiso   1.00
H172   H     0.50070   0.64484   0.25387   0.00000  Uiso   1.00
H173   H     0.21999   0.95055   0.26636   0.00000  Uiso   1.00
H174   H     0.40061   0.60554   0.67199   0.00000  Uiso   1.00
H175   H     0.63152   0.60202   0.15101   0.00000  Uiso   1.00
O176   O     0.23693   0.10404   0.27345   0.00000  Uiso   1.00
O177   O     0.47390   0.65141   0.80561   0.00000  Uiso   1.00
O178   O     0.77685   0.64678   0.12210   0.00000  Uiso   1.00
N179   N     0.35362   0.06068   0.32993   0.00000  Uiso   1.00
N180   N     0.52247   0.73813   0.70917   0.00000  Uiso   1.00
N181   N     0.73837   0.73481   0.22211   0.00000  Uiso   1.00
N182   N     0.26911   0.97310   0.28985   0.00000  Uiso   1.00
N183   N     0.43797   0.65055   0.66908   0.00000  Uiso   1.00
N184   N     0.65386   0.64723   0.18203   0.00000  Uiso   1.00
C185   C     0.85227   0.54558   0.57611   0.00000  Uiso   1.00
C186   C     0.88830   0.47203   0.61181   0.00000  Uiso   1.00
C187   C     0.96738   0.45726   0.61949   0.00000  Uiso   1.00
C188   C     0.98858   0.38651   0.65372   0.00000  Uiso   1.00
C189   C     0.05303   0.28049   0.70523   0.00000  Uiso   1.00
C190   C     0.79941   0.51856   0.50728   0.00000  Uiso   1.00
C191   C     0.80375   0.54292   0.42708   0.00000  Uiso   1.00
C192   C     0.75011   0.51134   0.37333   0.00000  Uiso   1.00
C193   C     0.67653   0.47760   0.26256   0.00000  Uiso   1.00
C194   C     0.79851   0.57806   0.64152   0.00000  Uiso   1.00
C195   C     0.80208   0.65244   0.67418   0.00000  Uiso   1.00
C196   C     0.74766   0.67096   0.73343   0.00000  Uiso   1.00
C197   C     0.67268   0.72960   0.83110   0.00000  Uiso   1.00
C198   C     0.74927   0.44621   0.62324   0.00000  Uiso   1.00
C199   C     0.83236   0.41806   0.63741   0.00000  Uiso   1.00
C200   C     0.85343   0.34731   0.67164   0.00000  Uiso   1.00
C201   C     0.93253   0.33243   0.67937   0.00000  Uiso   1.00
C202   C     0.74347   0.46458   0.53288   0.00000  Uiso   1.00
C203   C     0.68980   0.43297   0.47923   0.00000  Uiso   1.00
C204   C     0.69406   0.45726   0.39897   0.00000  Uiso   1.00
C205   C     0.74257   0.52408   0.66713   0.00000  Uiso   1.00
C206   C     0.68813   0.54249   0.72633   0.00000  Uiso   1.00
C207   C     0.69161   0.61689   0.75908   0.00000  Uiso   1.00
H208   H     0.89582   0.58761   0.55617   0.00000  Uiso   1.00
H209   H     0.01066   0.49904   0.59966   0.00000  Uiso   1.00
H210   H     0.84705   0.58469   0.40729   0.00000  Uiso   1.00
H211   H     0.84538   0.69420   0.65435   0.00000  Uiso   1.00
H212   H     0.11331   0.37704   0.65915   0.00000  Uiso   1.00
H213   H     0.76831   0.55765   0.25352   0.00000  Uiso   1.00
H214   H     0.76478   0.78857   0.77450   0.00000  Uiso   1.00
H215   H     0.70571   0.40418   0.64318   0.00000  Uiso   1.00
H216   H     0.81013   0.30555   0.69145   0.00000  Uiso   1.00
H217   H     0.64651   0.39120   0.49907   0.00000  Uiso   1.00
H218   H     0.64484   0.50070   0.74613   0.00000  Uiso   1.00
H219   H     0.95055   0.21999   0.73364   0.00000  Uiso   1.00
H220   H     0.60554   0.40061   0.32801   0.00000  Uiso   1.00
H221   H     0.60202   0.63152   0.84899   0.00000  Uiso   1.00
O222   O     0.10404   0.23693   0.72655   0.00000  Uiso   1.00
O223   O     0.65141   0.47390   0.19439   0.00000  Uiso   1.00
O224   O     0.64678   0.77685   0.87790   0.00000  Uiso   1.00
N225   N     0.06068   0.35362   0.67007   0.00000  Uiso   1.00
N226   N     0.73813   0.52247   0.29083   0.00000  Uiso   1.00
N227   N     0.73481   0.73837   0.77789   0.00000  Uiso   1.00
N228   N     0.97310   0.26911   0.71015   0.00000  Uiso   1.00
N229   N     0.65055   0.43797   0.33092   0.00000  Uiso   1.00
N230   N     0.64723   0.65386   0.81797   0.00000  Uiso   1.00
C231   C     0.14773   0.45442   0.07611   0.00000  Uiso   1.00
C232   C     0.11170   0.52797   0.11181   0.00000  Uiso   1.00
C233   C     0.03262   0.54274   0.11949   0.00000  Uiso   1.00
C234   C     0.01142   0.61349   0.15372   0.00000  Uiso   1.00
C235   C     0.94697   0.71951   0.20523   0.00000  Uiso   1.00
C236   C     0.20059   0.48144   0.00728   0.00000  Uiso   1.00
C237   C     0.19625   0.45708   0.92708   0.00000  Uiso   1.00
C238   C     0.24989   0.48866   0.87333   0.00000  Uiso   1.00
C239   C     0.32347   0.52240   0.76256   0.00000  Uiso   1.00
C240   C     0.20149   0.42194   0.14152   0.00000  Uiso   1.00
C241   C     0.19792   0.34756   0.17418   0.00000  Uiso   1.00
C242   C     0.25234   0.32904   0.23343   0.00000  Uiso   1.00
C243   C     0.32732   0.27040   0.33110   0.00000  Uiso   1.00
C244   C     0.25073   0.55379   0.12324   0.00000  Uiso   1.00
C245   C     0.16764   0.58194   0.13741   0.00000  Uiso   1.00
C246   C     0.14657   0.65269   0.17164   0.00000  Uiso   1.00
C247   C     0.06747   0.66757   0.17937   0.00000  Uiso   1.00
C248   C     0.25653   0.53542   0.03288   0.00000  Uiso   1.00
C249   C     0.31020   0.56703   0.97923   0.00000  Uiso   1.00
C250   C     0.30594   0.54274   0.89897   0.00000  Uiso   1.00
C251   C     0.25743   0.47592   0.16713   0.00000  Uiso   1.00
C252   C     0.31187   0.45751   0.22633   0.00000  Uiso   1.00
C253   C     0.30839   0.38311   0.25908   0.00000  Uiso   1.00
H254   H     0.10418   0.41239   0.05617   0.00000  Uiso   1.00
H255   H     0.98934   0.50096   0.09966   0.00000  Uiso   1.00
H256   H     0.15295   0.41531   0.90729   0.00000  Uiso   1.00
H257   H     0.15462   0.30580   0.15435   0.00000  Uiso   1.00
H258   H     0.88669   0.62296   0.15915   0.00000  Uiso   1.00
H259   H     0.23169   0.44235   0.75352   0.00000  Uiso   1.00
H260   H     0.23522   0.21143   0.27450   0.00000  Uiso   1.00
H261   H     0.29429   0.59582   0.14318   0.00000  Uiso   1.00
H262   H     0.18987   0.69445   0.19145   0.00000  Uiso   1.00
H263   H     0.35349   0.60880   0.99907   0.00000  Uiso   1.00
H264   H     0.35516   0.49930   0.24613   0.00000  Uiso   1.00
H265   H     0.04945   0.78001   0.23364   0.00000  Uiso   1.00
H266   H     0.39446   0.59939   0.82801   0.00000  Uiso   1.00
H267   H     0.39798   0.36848   0.34899   0.00000  Uiso   1.00
O268   O     0.89596   0.76307   0.22655   0.00000  Uiso   1.00
O269   O     0.34859   0.52610   0.69439   0.00000  Uiso   1.00
O270   O     0.35322   0.22315   0.37790   0.00000  Uiso   1.00
N271   N     0.93932   0.64638   0.17007   0.00000  Uiso   1.00
N272   N     0.26187   0.47753   0.79083   0.00000  Uiso   1.00
N273   N     0.26519   0.26163   0.27789   0.00000  Uiso   1.00
N274   N     0.02690   0.73089   0.21015   0.00000  Uiso   1.00
N275   N     0.34945   0.56203   0.83092   0.00000  Uiso   1.00
N276   N     0.35277   0.34614   0.31797   0.00000  Uiso   1.00
C277   C     0.04558   0.64773   0.82611   0.00000  Uiso   1.00
C278   C     0.97203   0.61170   0.86181   0.00000  Uiso   1.00
C279   C     0.95726   0.53262   0.86949   0.00000  Uiso   1.00
C280   C     0.88651   0.51142   0.90372   0.00000  Uiso   1.00
C281   C     0.78049   0.44697   0.95523   0.00000  Uiso   1.00
C282   C     0.01856   0.70059   0.75728   0.00000  Uiso   1.00
C283   C     0.04292   0.69625   0.67708   0.00000  Uiso   1.00
C284   C     0.01134   0.74989   0.62333   0.00000  Uiso   1.00
C285   C     0.97760   0.82347   0.51256   0.00000  Uiso   1.00
C286   C     0.07806   0.70149   0.89152   0.00000  Uiso   1.00
C287   C     0.15244   0.69792   0.92418   0.00000  Uiso   1.00
C288   C     0.17096   0.75234   0.98343   0.00000  Uiso   1.00
C289   C     0.22960   0.82732   0.08110   0.00000  Uiso   1.00
C290   C     0.94621   0.75073   0.87324   0.00000  Uiso   1.00
C291   C     0.91806   0.66764   0.88741   0.00000  Uiso   1.00
C292   C     0.84731   0.64657   0.92164   0.00000  Uiso   1.00
C293   C     0.83243   0.56747   0.92937   0.00000  Uiso   1.00
C294   C     0.96458   0.75653   0.78288   0.00000  Uiso   1.00
C295   C     0.93297   0.81020   0.72923   0.00000  Uiso   1.00
C296   C     0.95726   0.80594   0.64897   0.00000  Uiso   1.00
C297   C     0.02408   0.75743   0.91713   0.00000  Uiso   1.00
C298   C     0.04249   0.81187   0.97633   0.00000  Uiso   1.00
C299   C     0.11689   0.80839   0.00908   0.00000  Uiso   1.00
H300   H     0.08761   0.60418   0.80617   0.00000  Uiso   1.00
H301   H     0.99904   0.48934   0.84966   0.00000  Uiso   1.00
H302   H     0.08469   0.65295   0.65729   0.00000  Uiso   1.00
H303   H     0.19420   0.65462   0.90435   0.00000  Uiso   1.00
H304   H     0.87704   0.38669   0.90915   0.00000  Uiso   1.00
H305   H     0.05765   0.73169   0.50352   0.00000  Uiso   1.00
H306   H     0.28857   0.73522   0.02450   0.00000  Uiso   1.00
H307   H     0.90418   0.79429   0.89318   0.00000  Uiso   1.00
H308   H     0.80555   0.68987   0.94145   0.00000  Uiso   1.00
H309   H     0.89120   0.85349   0.74907   0.00000  Uiso   1.00
H310   H     0.00070   0.85516   0.99613   0.00000  Uiso   1.00
H311   H     0.71999   0.54945   0.98364   0.00000  Uiso   1.00
H312   H     0.90061   0.89446   0.57801   0.00000  Uiso   1.00
H313   H     0.13152   0.89798   0.09899   0.00000  Uiso   1.00
O314   O     0.73693   0.39596   0.97655   0.00000  Uiso   1.00
O315   O     0.97390   0.84859   0.44439   0.00000  Uiso   1.00
O316   O     0.27685   0.85322   0.12790   0.00000  Uiso   1.00
N317   N     0.85362   0.43932   0.92007   0.00000  Uiso   1.00
N318   N     0.02247   0.76187   0.54083   0.00000  Uiso   1.00
N319   N     0.23837   0.76519   0.02789   0.00000  Uiso   1.00
N320   N     0.76911   0.52690   0.96015   0.00000  Uiso   1.00
N321   N     0.93797   0.84945   0.58092   0.00000  Uiso   1.00
N322   N     0.15386   0.85277   0.06797   0.00000  Uiso   1.00
C323   C     0.95442   0.35227   0.32611   0.00000  Uiso   1.00
C324   C     0.02797   0.38830   0.36181   0.00000  Uiso   1.00
C325   C     0.04274   0.46738   0.36949   0.00000  Uiso   1.00
C326   C     0.11349   0.48858   0.40372   0.00000  Uiso   1.00
C327   C     0.21951   0.55303   0.45523   0.00000  Uiso   1.00
C328   C     0.98144   0.29941   0.25728   0.00000  Uiso   1.00
C329   C     0.95708   0.30375   0.17708   0.00000  Uiso   1.00
C330   C     0.98866   0.25011   0.12333   0.00000  Uiso   1.00
C331   C     0.02240   0.17653   0.01256   0.00000  Uiso   1.00
C332   C     0.92194   0.29851   0.39152   0.00000  Uiso   1.00
C333   C     0.84756   0.30208   0.42418   0.00000  Uiso   1.00
C334   C     0.82904   0.24766   0.48343   0.00000  Uiso   1.00
C335   C     0.77040   0.17268   0.58110   0.00000  Uiso   1.00
C336   C     0.05379   0.24927   0.37324   0.00000  Uiso   1.00
C337   C     0.08194   0.33236   0.38741   0.00000  Uiso   1.00
C338   C     0.15269   0.35343   0.42164   0.00000  Uiso   1.00
C339   C     0.16757   0.43253   0.42937   0.00000  Uiso   1.00
C340   C     0.03542   0.24347   0.28288   0.00000  Uiso   1.00
C341   C     0.06703   0.18980   0.22923   0.00000  Uiso   1.00
C342   C     0.04274   0.19406   0.14897   0.00000  Uiso   1.00
C343   C     0.97592   0.24257   0.41713   0.00000  Uiso   1.00
C344   C     0.95751   0.18813   0.47633   0.00000  Uiso   1.00
C345   C     0.88311   0.19161   0.50908   0.00000  Uiso   1.00
H346   H     0.91239   0.39582   0.30617   0.00000  Uiso   1.00
H347   H     0.00096   0.51066   0.34966   0.00000  Uiso   1.00
H348   H     0.91531   0.34705   0.15729   0.00000  Uiso   1.00
H349   H     0.80580   0.34538   0.40435   0.00000  Uiso   1.00
H350   H     0.12296   0.61331   0.40915   0.00000  Uiso   1.00
H351   H     0.94235   0.26831   0.00352   0.00000  Uiso   1.00
H352   H     0.71143   0.26478   0.52450   0.00000  Uiso   1.00
H353   H     0.09582   0.20571   0.39318   0.00000  Uiso   1.00
H354   H     0.19445   0.31013   0.44145   0.00000  Uiso   1.00
H355   H     0.10880   0.14651   0.24907   0.00000  Uiso   1.00
H356   H     0.99930   0.14484   0.49613   0.00000  Uiso   1.00
H357   H     0.28001   0.45055   0.48364   0.00000  Uiso   1.00
H358   H     0.09939   0.10554   0.07801   0.00000  Uiso   1.00
H359   H     0.86848   0.10202   0.59899   0.00000  Uiso   1.00
O360   O     0.26307   0.60404   0.47655   0.00000  Uiso   1.00
O361   O     0.02610   0.15141   0.94439   0.00000  Uiso   1.00
O362   O     0.72315   0.14678   0.62790   0.00000  Uiso   1.00
N363   N     0.14638   0.56068   0.42007   0.00000  Uiso   1.00
N364   N     0.97753   0.23813   0.04083   0.00000  Uiso   1.00
N365   N     0.76163   0.23481   0.52789   0.00000  Uiso   1.00
N366   N     0.23089   0.47310   0.46015   0.00000  Uiso   1.00
N367   N     0.06203   0.15055   0.08092   0.00000  Uiso   1.00
N368   N     0.84614   0.14723   0.56797   0.00000  Uiso   1.00
