data_job_05327
_audit_creation_date              2018-12-19
_audit_creation_method            'Materials Studio'
_symmetry_space_group_name_H-M    'P1'
_symmetry_Int_Tables_number       1
_symmetry_cell_setting            triclinic
loop_
_symmetry_equiv_pos_as_xyz
  x,y,z
_cell_length_a                    29.7580
_cell_length_b                    13.4266
_cell_length_c                    12.3231
_cell_angle_alpha                 90.0000
_cell_angle_beta                  106.0958
_cell_angle_gamma                 90.0000
loop_
_atom_site_label
_atom_site_type_symbol
_atom_site_fract_x
_atom_site_fract_y
_atom_site_fract_z
_atom_site_U_iso_or_equiv
_atom_site_adp_type
_atom_site_occupancy
C1     C     0.12201   0.64940   0.63795   0.00000  Uiso   1.00
C2     C     0.14229   0.67343   0.54011   0.00000  Uiso   1.00
C3     C     0.16781   0.60857   0.49255   0.00000  Uiso   1.00
C4     C     0.18331   0.64475   0.40369   0.00000  Uiso   1.00
C5     C     0.21629   0.66725   0.25785   0.00000  Uiso   1.00
C6     C     0.14178   0.72744   0.72850   0.00000  Uiso   1.00
C7     C     0.16688   0.70798   0.83935   0.00000  Uiso   1.00
C8     C     0.18193   0.78964   0.90908   0.00000  Uiso   1.00
C9     C     0.21410   0.89598   0.05576   0.00000  Uiso   1.00
C10    C     0.06971   0.67042   0.59505   0.00000  Uiso   1.00
C11    C     0.03420   0.60302   0.59371   0.00000  Uiso   1.00
C12    C     0.98857   0.63667   0.55110   0.00000  Uiso   1.00
C13    C     0.90884   0.65447   0.49057   0.00000  Uiso   1.00
C14    C     0.10413   0.82902   0.56470   0.00000  Uiso   1.00
C15    C     0.13257   0.77100   0.50033   0.00000  Uiso   1.00
C16    C     0.14803   0.80729   0.41151   0.00000  Uiso   1.00
C17    C     0.17357   0.74249   0.36383   0.00000  Uiso   1.00
C18    C     0.13207   0.82500   0.68872   0.00000  Uiso   1.00
C19    C     0.14709   0.90671   0.75831   0.00000  Uiso   1.00
C20    C     0.17220   0.88738   0.86923   0.00000  Uiso   1.00
C21    C     0.05999   0.76798   0.55526   0.00000  Uiso   1.00
C22    C     0.01441   0.80175   0.51266   0.00000  Uiso   1.00
C23    C     0.97884   0.73441   0.51125   0.00000  Uiso   1.00
H24    H     0.12957   0.57345   0.66893   0.00000  Uiso   1.00
H25    H     0.17533   0.53307   0.52337   0.00000  Uiso   1.00
H26    H     0.17438   0.63248   0.87011   0.00000  Uiso   1.00
H27    H     0.04173   0.52753   0.62450   0.00000  Uiso   1.00
H28    H     0.22179   0.53135   0.34447   0.00000  Uiso   1.00
H29    H     0.21978   0.74094   0.07561   0.00000  Uiso   1.00
H30    H     0.94005   0.51964   0.55770   0.00000  Uiso   1.00
H31    H     0.09656   0.90498   0.53373   0.00000  Uiso   1.00
H32    H     0.14051   0.88279   0.38074   0.00000  Uiso   1.00
H33    H     0.13957   0.98219   0.72750   0.00000  Uiso   1.00
H34    H     0.00691   0.87725   0.48188   0.00000  Uiso   1.00
H35    H     0.19353   0.81519   0.22872   0.00000  Uiso   1.00
H36    H     0.19152   0.02479   0.95986   0.00000  Uiso   1.00
H37    H     0.91179   0.80349   0.44194   0.00000  Uiso   1.00
O38    O     0.23717   0.65271   0.18842   0.00000  Uiso   1.00
O39    O     0.23454   0.92768   0.14765   0.00000  Uiso   1.00
O40    O     0.86754   0.63734   0.46816   0.00000  Uiso   1.00
N41    N     0.20910   0.60119   0.33821   0.00000  Uiso   1.00
N42    N     0.20723   0.79714   0.02178   0.00000  Uiso   1.00
N43    N     0.94571   0.59026   0.53760   0.00000  Uiso   1.00
N44    N     0.19389   0.75392   0.27592   0.00000  Uiso   1.00
N45    N     0.19202   0.94988   0.95949   0.00000  Uiso   1.00
N46    N     0.93050   0.74299   0.47531   0.00000  Uiso   1.00
C47    C     0.62201   0.14940   0.63795   0.00000  Uiso   1.00
C48    C     0.64229   0.17343   0.54011   0.00000  Uiso   1.00
C49    C     0.66781   0.10857   0.49255   0.00000  Uiso   1.00
C50    C     0.68331   0.14475   0.40369   0.00000  Uiso   1.00
C51    C     0.71629   0.16725   0.25785   0.00000  Uiso   1.00
C52    C     0.64178   0.22744   0.72850   0.00000  Uiso   1.00
C53    C     0.66688   0.20798   0.83935   0.00000  Uiso   1.00
C54    C     0.68193   0.28964   0.90908   0.00000  Uiso   1.00
C55    C     0.71410   0.39598   0.05576   0.00000  Uiso   1.00
C56    C     0.56971   0.17042   0.59505   0.00000  Uiso   1.00
C57    C     0.53420   0.10302   0.59371   0.00000  Uiso   1.00
C58    C     0.48857   0.13667   0.55110   0.00000  Uiso   1.00
C59    C     0.40884   0.15447   0.49057   0.00000  Uiso   1.00
C60    C     0.60413   0.32902   0.56470   0.00000  Uiso   1.00
C61    C     0.63257   0.27100   0.50033   0.00000  Uiso   1.00
C62    C     0.64803   0.30729   0.41151   0.00000  Uiso   1.00
C63    C     0.67357   0.24249   0.36383   0.00000  Uiso   1.00
C64    C     0.63207   0.32500   0.68872   0.00000  Uiso   1.00
C65    C     0.64709   0.40671   0.75831   0.00000  Uiso   1.00
C66    C     0.67220   0.38738   0.86923   0.00000  Uiso   1.00
C67    C     0.55999   0.26798   0.55526   0.00000  Uiso   1.00
C68    C     0.51441   0.30175   0.51266   0.00000  Uiso   1.00
C69    C     0.47884   0.23441   0.51125   0.00000  Uiso   1.00
H70    H     0.62957   0.07345   0.66893   0.00000  Uiso   1.00
H71    H     0.67533   0.03307   0.52337   0.00000  Uiso   1.00
H72    H     0.67438   0.13248   0.87011   0.00000  Uiso   1.00
H73    H     0.54173   0.02753   0.62450   0.00000  Uiso   1.00
H74    H     0.72179   0.03135   0.34447   0.00000  Uiso   1.00
H75    H     0.71978   0.24094   0.07561   0.00000  Uiso   1.00
H76    H     0.44005   0.01964   0.55770   0.00000  Uiso   1.00
H77    H     0.59656   0.40498   0.53373   0.00000  Uiso   1.00
H78    H     0.64051   0.38279   0.38074   0.00000  Uiso   1.00
H79    H     0.63957   0.48219   0.72750   0.00000  Uiso   1.00
H80    H     0.50691   0.37725   0.48188   0.00000  Uiso   1.00
H81    H     0.69353   0.31519   0.22872   0.00000  Uiso   1.00
H82    H     0.69152   0.52479   0.95986   0.00000  Uiso   1.00
H83    H     0.41179   0.30349   0.44194   0.00000  Uiso   1.00
O84    O     0.73717   0.15271   0.18842   0.00000  Uiso   1.00
O85    O     0.73454   0.42768   0.14765   0.00000  Uiso   1.00
O86    O     0.36754   0.13734   0.46816   0.00000  Uiso   1.00
N87    N     0.70910   0.10119   0.33821   0.00000  Uiso   1.00
N88    N     0.70723   0.29714   0.02178   0.00000  Uiso   1.00
N89    N     0.44571   0.09026   0.53760   0.00000  Uiso   1.00
N90    N     0.69389   0.25392   0.27592   0.00000  Uiso   1.00
N91    N     0.69202   0.44988   0.95949   0.00000  Uiso   1.00
N92    N     0.43050   0.24299   0.47531   0.00000  Uiso   1.00
C93    C     0.87799   0.64940   0.86205   0.00000  Uiso   1.00
C94    C     0.85771   0.67343   0.95989   0.00000  Uiso   1.00
C95    C     0.83219   0.60857   0.00745   0.00000  Uiso   1.00
C96    C     0.81669   0.64475   0.09631   0.00000  Uiso   1.00
C97    C     0.78371   0.66725   0.24215   0.00000  Uiso   1.00
C98    C     0.85822   0.72744   0.77150   0.00000  Uiso   1.00
C99    C     0.83312   0.70798   0.66065   0.00000  Uiso   1.00
C100   C     0.81807   0.78964   0.59092   0.00000  Uiso   1.00
C101   C     0.78590   0.89598   0.44424   0.00000  Uiso   1.00
C102   C     0.93029   0.67042   0.90495   0.00000  Uiso   1.00
C103   C     0.96580   0.60302   0.90629   0.00000  Uiso   1.00
C104   C     0.01143   0.63667   0.94890   0.00000  Uiso   1.00
C105   C     0.09116   0.65447   0.00943   0.00000  Uiso   1.00
C106   C     0.89587   0.82902   0.93530   0.00000  Uiso   1.00
C107   C     0.86743   0.77100   0.99967   0.00000  Uiso   1.00
C108   C     0.85197   0.80729   0.08849   0.00000  Uiso   1.00
C109   C     0.82643   0.74249   0.13617   0.00000  Uiso   1.00
C110   C     0.86793   0.82500   0.81128   0.00000  Uiso   1.00
C111   C     0.85291   0.90671   0.74169   0.00000  Uiso   1.00
C112   C     0.82780   0.88738   0.63077   0.00000  Uiso   1.00
C113   C     0.94001   0.76798   0.94474   0.00000  Uiso   1.00
C114   C     0.98559   0.80175   0.98734   0.00000  Uiso   1.00
C115   C     0.02116   0.73441   0.98875   0.00000  Uiso   1.00
H116   H     0.87043   0.57345   0.83107   0.00000  Uiso   1.00
H117   H     0.82467   0.53307   0.97663   0.00000  Uiso   1.00
H118   H     0.82562   0.63248   0.62989   0.00000  Uiso   1.00
H119   H     0.95827   0.52753   0.87550   0.00000  Uiso   1.00
H120   H     0.77821   0.53135   0.15553   0.00000  Uiso   1.00
H121   H     0.78022   0.74094   0.42439   0.00000  Uiso   1.00
H122   H     0.05995   0.51964   0.94230   0.00000  Uiso   1.00
H123   H     0.90344   0.90498   0.96627   0.00000  Uiso   1.00
H124   H     0.85949   0.88279   0.11926   0.00000  Uiso   1.00
H125   H     0.86043   0.98219   0.77250   0.00000  Uiso   1.00
H126   H     0.99309   0.87725   0.01812   0.00000  Uiso   1.00
H127   H     0.80647   0.81519   0.27128   0.00000  Uiso   1.00
H128   H     0.80848   0.02479   0.54014   0.00000  Uiso   1.00
H129   H     0.08821   0.80349   0.05806   0.00000  Uiso   1.00
O130   O     0.76283   0.65271   0.31158   0.00000  Uiso   1.00
O131   O     0.76546   0.92768   0.35235   0.00000  Uiso   1.00
O132   O     0.13246   0.63734   0.03184   0.00000  Uiso   1.00
N133   N     0.79090   0.60119   0.16179   0.00000  Uiso   1.00
N134   N     0.79277   0.79714   0.47822   0.00000  Uiso   1.00
N135   N     0.05429   0.59026   0.96240   0.00000  Uiso   1.00
N136   N     0.80611   0.75392   0.22408   0.00000  Uiso   1.00
N137   N     0.80798   0.94988   0.54051   0.00000  Uiso   1.00
N138   N     0.06950   0.74299   0.02469   0.00000  Uiso   1.00
C139   C     0.37799   0.14940   0.86205   0.00000  Uiso   1.00
C140   C     0.35771   0.17343   0.95989   0.00000  Uiso   1.00
C141   C     0.33219   0.10857   0.00745   0.00000  Uiso   1.00
C142   C     0.31669   0.14475   0.09631   0.00000  Uiso   1.00
C143   C     0.28371   0.16725   0.24215   0.00000  Uiso   1.00
C144   C     0.35822   0.22744   0.77150   0.00000  Uiso   1.00
C145   C     0.33312   0.20798   0.66065   0.00000  Uiso   1.00
C146   C     0.31807   0.28964   0.59092   0.00000  Uiso   1.00
C147   C     0.28590   0.39598   0.44424   0.00000  Uiso   1.00
C148   C     0.43029   0.17042   0.90495   0.00000  Uiso   1.00
C149   C     0.46580   0.10302   0.90629   0.00000  Uiso   1.00
C150   C     0.51143   0.13667   0.94890   0.00000  Uiso   1.00
C151   C     0.59116   0.15447   0.00943   0.00000  Uiso   1.00
C152   C     0.39587   0.32902   0.93530   0.00000  Uiso   1.00
C153   C     0.36743   0.27100   0.99967   0.00000  Uiso   1.00
C154   C     0.35197   0.30729   0.08849   0.00000  Uiso   1.00
C155   C     0.32643   0.24249   0.13617   0.00000  Uiso   1.00
C156   C     0.36793   0.32500   0.81128   0.00000  Uiso   1.00
C157   C     0.35291   0.40671   0.74169   0.00000  Uiso   1.00
C158   C     0.32780   0.38738   0.63077   0.00000  Uiso   1.00
C159   C     0.44001   0.26798   0.94474   0.00000  Uiso   1.00
C160   C     0.48559   0.30175   0.98734   0.00000  Uiso   1.00
C161   C     0.52116   0.23441   0.98875   0.00000  Uiso   1.00
H162   H     0.37043   0.07345   0.83107   0.00000  Uiso   1.00
H163   H     0.32467   0.03307   0.97663   0.00000  Uiso   1.00
H164   H     0.32562   0.13248   0.62989   0.00000  Uiso   1.00
H165   H     0.45827   0.02753   0.87550   0.00000  Uiso   1.00
H166   H     0.27821   0.03135   0.15553   0.00000  Uiso   1.00
H167   H     0.28022   0.24094   0.42439   0.00000  Uiso   1.00
H168   H     0.55995   0.01964   0.94230   0.00000  Uiso   1.00
H169   H     0.40344   0.40498   0.96627   0.00000  Uiso   1.00
H170   H     0.35949   0.38279   0.11926   0.00000  Uiso   1.00
H171   H     0.36043   0.48219   0.77250   0.00000  Uiso   1.00
H172   H     0.49309   0.37725   0.01812   0.00000  Uiso   1.00
H173   H     0.30647   0.31519   0.27128   0.00000  Uiso   1.00
H174   H     0.30848   0.52479   0.54014   0.00000  Uiso   1.00
H175   H     0.58821   0.30349   0.05806   0.00000  Uiso   1.00
O176   O     0.26283   0.15271   0.31158   0.00000  Uiso   1.00
O177   O     0.26546   0.42768   0.35235   0.00000  Uiso   1.00
O178   O     0.63246   0.13734   0.03184   0.00000  Uiso   1.00
N179   N     0.29090   0.10119   0.16179   0.00000  Uiso   1.00
N180   N     0.29277   0.29714   0.47822   0.00000  Uiso   1.00
N181   N     0.55429   0.09026   0.96240   0.00000  Uiso   1.00
N182   N     0.30611   0.25392   0.22408   0.00000  Uiso   1.00
N183   N     0.30798   0.44988   0.54051   0.00000  Uiso   1.00
N184   N     0.56950   0.24299   0.02469   0.00000  Uiso   1.00
C185   C     0.87799   0.35060   0.36205   0.00000  Uiso   1.00
C186   C     0.85771   0.32657   0.45989   0.00000  Uiso   1.00
C187   C     0.83219   0.39143   0.50745   0.00000  Uiso   1.00
C188   C     0.81669   0.35525   0.59631   0.00000  Uiso   1.00
C189   C     0.78371   0.33275   0.74215   0.00000  Uiso   1.00
C190   C     0.85822   0.27256   0.27150   0.00000  Uiso   1.00
C191   C     0.83312   0.29202   0.16065   0.00000  Uiso   1.00
C192   C     0.81807   0.21036   0.09092   0.00000  Uiso   1.00
C193   C     0.78590   0.10402   0.94424   0.00000  Uiso   1.00
C194   C     0.93029   0.32958   0.40495   0.00000  Uiso   1.00
C195   C     0.96580   0.39698   0.40629   0.00000  Uiso   1.00
C196   C     0.01143   0.36333   0.44890   0.00000  Uiso   1.00
C197   C     0.09116   0.34553   0.50943   0.00000  Uiso   1.00
C198   C     0.89587   0.17098   0.43530   0.00000  Uiso   1.00
C199   C     0.86743   0.22900   0.49967   0.00000  Uiso   1.00
C200   C     0.85197   0.19271   0.58849   0.00000  Uiso   1.00
C201   C     0.82643   0.25751   0.63617   0.00000  Uiso   1.00
C202   C     0.86793   0.17500   0.31128   0.00000  Uiso   1.00
C203   C     0.85291   0.09329   0.24169   0.00000  Uiso   1.00
C204   C     0.82780   0.11262   0.13077   0.00000  Uiso   1.00
C205   C     0.94001   0.23202   0.44474   0.00000  Uiso   1.00
C206   C     0.98559   0.19825   0.48734   0.00000  Uiso   1.00
C207   C     0.02116   0.26559   0.48875   0.00000  Uiso   1.00
H208   H     0.87043   0.42655   0.33107   0.00000  Uiso   1.00
H209   H     0.82467   0.46693   0.47663   0.00000  Uiso   1.00
H210   H     0.82562   0.36752   0.12989   0.00000  Uiso   1.00
H211   H     0.95827   0.47247   0.37550   0.00000  Uiso   1.00
H212   H     0.77821   0.46865   0.65553   0.00000  Uiso   1.00
H213   H     0.78022   0.25906   0.92439   0.00000  Uiso   1.00
H214   H     0.05995   0.48036   0.44230   0.00000  Uiso   1.00
H215   H     0.90344   0.09502   0.46627   0.00000  Uiso   1.00
H216   H     0.85949   0.11721   0.61926   0.00000  Uiso   1.00
H217   H     0.86043   0.01781   0.27250   0.00000  Uiso   1.00
H218   H     0.99309   0.12275   0.51812   0.00000  Uiso   1.00
H219   H     0.80647   0.18481   0.77128   0.00000  Uiso   1.00
H220   H     0.80848   0.97521   0.04014   0.00000  Uiso   1.00
H221   H     0.08821   0.19651   0.55806   0.00000  Uiso   1.00
O222   O     0.76283   0.34729   0.81158   0.00000  Uiso   1.00
O223   O     0.76546   0.07232   0.85235   0.00000  Uiso   1.00
O224   O     0.13246   0.36266   0.53184   0.00000  Uiso   1.00
N225   N     0.79090   0.39881   0.66179   0.00000  Uiso   1.00
N226   N     0.79277   0.20286   0.97822   0.00000  Uiso   1.00
N227   N     0.05429   0.40974   0.46240   0.00000  Uiso   1.00
N228   N     0.80611   0.24608   0.72408   0.00000  Uiso   1.00
N229   N     0.80798   0.05012   0.04051   0.00000  Uiso   1.00
N230   N     0.06950   0.25701   0.52469   0.00000  Uiso   1.00
C231   C     0.37799   0.85060   0.36205   0.00000  Uiso   1.00
C232   C     0.35771   0.82657   0.45989   0.00000  Uiso   1.00
C233   C     0.33219   0.89143   0.50745   0.00000  Uiso   1.00
C234   C     0.31669   0.85525   0.59631   0.00000  Uiso   1.00
C235   C     0.28371   0.83275   0.74215   0.00000  Uiso   1.00
C236   C     0.35822   0.77256   0.27150   0.00000  Uiso   1.00
C237   C     0.33312   0.79202   0.16065   0.00000  Uiso   1.00
C238   C     0.31807   0.71036   0.09092   0.00000  Uiso   1.00
C239   C     0.28590   0.60402   0.94424   0.00000  Uiso   1.00
C240   C     0.43029   0.82958   0.40495   0.00000  Uiso   1.00
C241   C     0.46580   0.89698   0.40629   0.00000  Uiso   1.00
C242   C     0.51143   0.86333   0.44890   0.00000  Uiso   1.00
C243   C     0.59116   0.84553   0.50943   0.00000  Uiso   1.00
C244   C     0.39587   0.67098   0.43530   0.00000  Uiso   1.00
C245   C     0.36743   0.72900   0.49967   0.00000  Uiso   1.00
C246   C     0.35197   0.69271   0.58849   0.00000  Uiso   1.00
C247   C     0.32643   0.75751   0.63617   0.00000  Uiso   1.00
C248   C     0.36793   0.67500   0.31128   0.00000  Uiso   1.00
C249   C     0.35291   0.59329   0.24169   0.00000  Uiso   1.00
C250   C     0.32780   0.61262   0.13077   0.00000  Uiso   1.00
C251   C     0.44001   0.73202   0.44474   0.00000  Uiso   1.00
C252   C     0.48559   0.69825   0.48734   0.00000  Uiso   1.00
C253   C     0.52116   0.76559   0.48875   0.00000  Uiso   1.00
H254   H     0.37043   0.92655   0.33107   0.00000  Uiso   1.00
H255   H     0.32467   0.96693   0.47663   0.00000  Uiso   1.00
H256   H     0.32562   0.86752   0.12989   0.00000  Uiso   1.00
H257   H     0.45827   0.97247   0.37550   0.00000  Uiso   1.00
H258   H     0.27821   0.96865   0.65553   0.00000  Uiso   1.00
H259   H     0.28022   0.75906   0.92439   0.00000  Uiso   1.00
H260   H     0.55995   0.98036   0.44230   0.00000  Uiso   1.00
H261   H     0.40344   0.59502   0.46627   0.00000  Uiso   1.00
H262   H     0.35949   0.61721   0.61926   0.00000  Uiso   1.00
H263   H     0.36043   0.51781   0.27250   0.00000  Uiso   1.00
H264   H     0.49309   0.62275   0.51812   0.00000  Uiso   1.00
H265   H     0.30647   0.68481   0.77128   0.00000  Uiso   1.00
H266   H     0.30848   0.47521   0.04014   0.00000  Uiso   1.00
H267   H     0.58821   0.69651   0.55806   0.00000  Uiso   1.00
O268   O     0.26283   0.84729   0.81158   0.00000  Uiso   1.00
O269   O     0.26546   0.57232   0.85235   0.00000  Uiso   1.00
O270   O     0.63246   0.86266   0.53184   0.00000  Uiso   1.00
N271   N     0.29090   0.89881   0.66179   0.00000  Uiso   1.00
N272   N     0.29277   0.70286   0.97822   0.00000  Uiso   1.00
N273   N     0.55429   0.90974   0.46240   0.00000  Uiso   1.00
N274   N     0.30611   0.74608   0.72408   0.00000  Uiso   1.00
N275   N     0.30798   0.55012   0.04051   0.00000  Uiso   1.00
N276   N     0.56950   0.75701   0.52469   0.00000  Uiso   1.00
C277   C     0.12201   0.35060   0.13795   0.00000  Uiso   1.00
C278   C     0.14229   0.32657   0.04011   0.00000  Uiso   1.00
C279   C     0.16781   0.39143   0.99255   0.00000  Uiso   1.00
C280   C     0.18331   0.35525   0.90369   0.00000  Uiso   1.00
C281   C     0.21629   0.33275   0.75785   0.00000  Uiso   1.00
C282   C     0.14178   0.27256   0.22850   0.00000  Uiso   1.00
C283   C     0.16688   0.29202   0.33935   0.00000  Uiso   1.00
C284   C     0.18193   0.21036   0.40908   0.00000  Uiso   1.00
C285   C     0.21410   0.10402   0.55576   0.00000  Uiso   1.00
C286   C     0.06971   0.32958   0.09505   0.00000  Uiso   1.00
C287   C     0.03420   0.39698   0.09371   0.00000  Uiso   1.00
C288   C     0.98857   0.36333   0.05110   0.00000  Uiso   1.00
C289   C     0.90884   0.34553   0.99057   0.00000  Uiso   1.00
C290   C     0.10413   0.17098   0.06470   0.00000  Uiso   1.00
C291   C     0.13257   0.22900   0.00033   0.00000  Uiso   1.00
C292   C     0.14803   0.19271   0.91151   0.00000  Uiso   1.00
C293   C     0.17357   0.25751   0.86383   0.00000  Uiso   1.00
C294   C     0.13207   0.17500   0.18872   0.00000  Uiso   1.00
C295   C     0.14709   0.09329   0.25831   0.00000  Uiso   1.00
C296   C     0.17220   0.11262   0.36923   0.00000  Uiso   1.00
C297   C     0.05999   0.23202   0.05526   0.00000  Uiso   1.00
C298   C     0.01441   0.19825   0.01266   0.00000  Uiso   1.00
C299   C     0.97884   0.26559   0.01125   0.00000  Uiso   1.00
H300   H     0.12957   0.42655   0.16893   0.00000  Uiso   1.00
H301   H     0.17533   0.46693   0.02337   0.00000  Uiso   1.00
H302   H     0.17438   0.36752   0.37011   0.00000  Uiso   1.00
H303   H     0.04173   0.47247   0.12450   0.00000  Uiso   1.00
H304   H     0.22179   0.46865   0.84447   0.00000  Uiso   1.00
H305   H     0.21978   0.25906   0.57561   0.00000  Uiso   1.00
H306   H     0.94005   0.48036   0.05770   0.00000  Uiso   1.00
H307   H     0.09656   0.09502   0.03373   0.00000  Uiso   1.00
H308   H     0.14051   0.11721   0.88074   0.00000  Uiso   1.00
H309   H     0.13957   0.01781   0.22750   0.00000  Uiso   1.00
H310   H     0.00691   0.12275   0.98188   0.00000  Uiso   1.00
H311   H     0.19353   0.18481   0.72872   0.00000  Uiso   1.00
H312   H     0.19152   0.97521   0.45986   0.00000  Uiso   1.00
H313   H     0.91179   0.19651   0.94194   0.00000  Uiso   1.00
O314   O     0.23717   0.34729   0.68842   0.00000  Uiso   1.00
O315   O     0.23454   0.07232   0.64765   0.00000  Uiso   1.00
O316   O     0.86754   0.36266   0.96816   0.00000  Uiso   1.00
N317   N     0.20910   0.39881   0.83821   0.00000  Uiso   1.00
N318   N     0.20723   0.20286   0.52178   0.00000  Uiso   1.00
N319   N     0.94571   0.40974   0.03760   0.00000  Uiso   1.00
N320   N     0.19389   0.24608   0.77592   0.00000  Uiso   1.00
N321   N     0.19202   0.05012   0.45949   0.00000  Uiso   1.00
N322   N     0.93050   0.25701   0.97531   0.00000  Uiso   1.00
C323   C     0.62201   0.85060   0.13795   0.00000  Uiso   1.00
C324   C     0.64229   0.82657   0.04011   0.00000  Uiso   1.00
C325   C     0.66781   0.89143   0.99255   0.00000  Uiso   1.00
C326   C     0.68331   0.85525   0.90369   0.00000  Uiso   1.00
C327   C     0.71629   0.83275   0.75785   0.00000  Uiso   1.00
C328   C     0.64178   0.77256   0.22850   0.00000  Uiso   1.00
C329   C     0.66688   0.79202   0.33935   0.00000  Uiso   1.00
C330   C     0.68193   0.71036   0.40908   0.00000  Uiso   1.00
C331   C     0.71410   0.60402   0.55576   0.00000  Uiso   1.00
C332   C     0.56971   0.82958   0.09505   0.00000  Uiso   1.00
C333   C     0.53420   0.89698   0.09371   0.00000  Uiso   1.00
C334   C     0.48857   0.86333   0.05110   0.00000  Uiso   1.00
C335   C     0.40884   0.84553   0.99057   0.00000  Uiso   1.00
C336   C     0.60413   0.67098   0.06470   0.00000  Uiso   1.00
C337   C     0.63257   0.72900   0.00033   0.00000  Uiso   1.00
C338   C     0.64803   0.69271   0.91151   0.00000  Uiso   1.00
C339   C     0.67357   0.75751   0.86383   0.00000  Uiso   1.00
C340   C     0.63207   0.67500   0.18872   0.00000  Uiso   1.00
C341   C     0.64709   0.59329   0.25831   0.00000  Uiso   1.00
C342   C     0.67220   0.61262   0.36923   0.00000  Uiso   1.00
C343   C     0.55999   0.73202   0.05526   0.00000  Uiso   1.00
C344   C     0.51441   0.69825   0.01266   0.00000  Uiso   1.00
C345   C     0.47884   0.76559   0.01125   0.00000  Uiso   1.00
H346   H     0.62957   0.92655   0.16893   0.00000  Uiso   1.00
H347   H     0.67533   0.96693   0.02337   0.00000  Uiso   1.00
H348   H     0.67438   0.86752   0.37011   0.00000  Uiso   1.00
H349   H     0.54173   0.97247   0.12450   0.00000  Uiso   1.00
H350   H     0.72179   0.96865   0.84447   0.00000  Uiso   1.00
H351   H     0.71978   0.75906   0.57561   0.00000  Uiso   1.00
H352   H     0.44005   0.98036   0.05770   0.00000  Uiso   1.00
H353   H     0.59656   0.59502   0.03373   0.00000  Uiso   1.00
H354   H     0.64051   0.61721   0.88074   0.00000  Uiso   1.00
H355   H     0.63957   0.51781   0.22750   0.00000  Uiso   1.00
H356   H     0.50691   0.62275   0.98188   0.00000  Uiso   1.00
H357   H     0.69353   0.68481   0.72872   0.00000  Uiso   1.00
H358   H     0.69152   0.47521   0.45986   0.00000  Uiso   1.00
H359   H     0.41179   0.69651   0.94194   0.00000  Uiso   1.00
O360   O     0.73717   0.84729   0.68842   0.00000  Uiso   1.00
O361   O     0.73454   0.57232   0.64765   0.00000  Uiso   1.00
O362   O     0.36754   0.86266   0.96816   0.00000  Uiso   1.00
N363   N     0.70910   0.89881   0.83821   0.00000  Uiso   1.00
N364   N     0.70723   0.70286   0.52178   0.00000  Uiso   1.00
N365   N     0.44571   0.90974   0.03760   0.00000  Uiso   1.00
N366   N     0.69389   0.74608   0.77592   0.00000  Uiso   1.00
N367   N     0.69202   0.55012   0.45949   0.00000  Uiso   1.00
N368   N     0.43050   0.75701   0.97531   0.00000  Uiso   1.00
