data_job_03949
_audit_creation_date              2018-12-19
_audit_creation_method            'Materials Studio'
_symmetry_space_group_name_H-M    'P1'
_symmetry_Int_Tables_number       1
_symmetry_cell_setting            triclinic
loop_
_symmetry_equiv_pos_as_xyz
  x,y,z
_cell_length_a                    23.6810
_cell_length_b                    16.2672
_cell_length_c                    16.8751
_cell_angle_alpha                 90.0000
_cell_angle_beta                  120.6950
_cell_angle_gamma                 90.0000
loop_
_atom_site_label
_atom_site_type_symbol
_atom_site_fract_x
_atom_site_fract_y
_atom_site_fract_z
_atom_site_U_iso_or_equiv
_atom_site_adp_type
_atom_site_occupancy
C1     C     0.05749   0.79123   0.53023   0.00000  Uiso   1.00
C2     C     0.00734   0.73535   0.53432   0.00000  Uiso   1.00
C3     C     0.99674   0.72911   0.60774   0.00000  Uiso   1.00
C4     C     0.94861   0.67442   0.59808   0.00000  Uiso   1.00
C5     C     0.87626   0.59473   0.61666   0.00000  Uiso   1.00
C6     C     0.10063   0.73517   0.51077   0.00000  Uiso   1.00
C7     C     0.16847   0.72881   0.56438   0.00000  Uiso   1.00
C8     C     0.19887   0.67397   0.53487   0.00000  Uiso   1.00
C9     C     0.27137   0.59406   0.51684   0.00000  Uiso   1.00
C10    C     0.01886   0.84418   0.44437   0.00000  Uiso   1.00
C11    C     0.01794   0.92948   0.44214   0.00000  Uiso   1.00
C12    C     0.97950   0.96642   0.35673   0.00000  Uiso   1.00
C13    C     0.92503   0.05577   0.23561   0.00000  Uiso   1.00
C14    C     0.99087   0.70518   0.38250   0.00000  Uiso   1.00
C15    C     0.97115   0.68861   0.45408   0.00000  Uiso   1.00
C16    C     0.92302   0.63391   0.44430   0.00000  Uiso   1.00
C17    C     0.91235   0.62760   0.51769   0.00000  Uiso   1.00
C18    C     0.06445   0.68844   0.43053   0.00000  Uiso   1.00
C19    C     0.09475   0.63360   0.40094   0.00000  Uiso   1.00
C20    C     0.16262   0.62715   0.45449   0.00000  Uiso   1.00
C21    C     0.98266   0.79745   0.36413   0.00000  Uiso   1.00
C22    C     0.94422   0.83427   0.27870   0.00000  Uiso   1.00
C23    C     0.94325   0.91960   0.27634   0.00000  Uiso   1.00
H24    H     0.08567   0.82761   0.59270   0.00000  Uiso   1.00
H25    H     0.02476   0.76529   0.66983   0.00000  Uiso   1.00
H26    H     0.19646   0.76499   0.62646   0.00000  Uiso   1.00
H27    H     0.04596   0.96562   0.50425   0.00000  Uiso   1.00
H28    H     0.94128   0.67556   0.71997   0.00000  Uiso   1.00
H29    H     0.30333   0.67494   0.62851   0.00000  Uiso   1.00
H30    H     0.98596   0.09802   0.37080   0.00000  Uiso   1.00
H31    H     0.96269   0.66879   0.32003   0.00000  Uiso   1.00
H32    H     0.89502   0.59775   0.38220   0.00000  Uiso   1.00
H33    H     0.06673   0.59745   0.33884   0.00000  Uiso   1.00
H34    H     0.91622   0.79808   0.21662   0.00000  Uiso   1.00
H35    H     0.83599   0.53957   0.48652   0.00000  Uiso   1.00
H36    H     0.19804   0.53897   0.39506   0.00000  Uiso   1.00
H37    H     0.88066   0.96204   0.13735   0.00000  Uiso   1.00
O38    O     0.84636   0.56368   0.64908   0.00000  Uiso   1.00
O39    O     0.32135   0.56289   0.52908   0.00000  Uiso   1.00
O40    O     0.90497   0.11796   0.19097   0.00000  Uiso   1.00
N41    N     0.92578   0.65331   0.65649   0.00000  Uiso   1.00
N42    N     0.26427   0.65273   0.57099   0.00000  Uiso   1.00
N43    N     0.96757   0.04828   0.33005   0.00000  Uiso   1.00
N44    N     0.86912   0.58014   0.53087   0.00000  Uiso   1.00
N45    N     0.20761   0.57956   0.44537   0.00000  Uiso   1.00
N46    N     0.91091   0.97511   0.20443   0.00000  Uiso   1.00
C47    C     0.55749   0.29123   0.53023   0.00000  Uiso   1.00
C48    C     0.50734   0.23535   0.53432   0.00000  Uiso   1.00
C49    C     0.49674   0.22911   0.60774   0.00000  Uiso   1.00
C50    C     0.44861   0.17442   0.59808   0.00000  Uiso   1.00
C51    C     0.37626   0.09473   0.61666   0.00000  Uiso   1.00
C52    C     0.60063   0.23517   0.51077   0.00000  Uiso   1.00
C53    C     0.66847   0.22881   0.56438   0.00000  Uiso   1.00
C54    C     0.69887   0.17397   0.53487   0.00000  Uiso   1.00
C55    C     0.77137   0.09406   0.51684   0.00000  Uiso   1.00
C56    C     0.51886   0.34418   0.44437   0.00000  Uiso   1.00
C57    C     0.51794   0.42948   0.44214   0.00000  Uiso   1.00
C58    C     0.47950   0.46642   0.35673   0.00000  Uiso   1.00
C59    C     0.42503   0.55577   0.23561   0.00000  Uiso   1.00
C60    C     0.49087   0.20518   0.38250   0.00000  Uiso   1.00
C61    C     0.47115   0.18861   0.45408   0.00000  Uiso   1.00
C62    C     0.42302   0.13391   0.44430   0.00000  Uiso   1.00
C63    C     0.41235   0.12760   0.51769   0.00000  Uiso   1.00
C64    C     0.56445   0.18844   0.43053   0.00000  Uiso   1.00
C65    C     0.59475   0.13360   0.40094   0.00000  Uiso   1.00
C66    C     0.66262   0.12715   0.45449   0.00000  Uiso   1.00
C67    C     0.48266   0.29745   0.36413   0.00000  Uiso   1.00
C68    C     0.44422   0.33427   0.27870   0.00000  Uiso   1.00
C69    C     0.44325   0.41960   0.27634   0.00000  Uiso   1.00
H70    H     0.58567   0.32761   0.59270   0.00000  Uiso   1.00
H71    H     0.52476   0.26529   0.66983   0.00000  Uiso   1.00
H72    H     0.69646   0.26499   0.62646   0.00000  Uiso   1.00
H73    H     0.54596   0.46562   0.50425   0.00000  Uiso   1.00
H74    H     0.44128   0.17556   0.71997   0.00000  Uiso   1.00
H75    H     0.80333   0.17494   0.62851   0.00000  Uiso   1.00
H76    H     0.48596   0.59802   0.37080   0.00000  Uiso   1.00
H77    H     0.46269   0.16879   0.32003   0.00000  Uiso   1.00
H78    H     0.39502   0.09775   0.38220   0.00000  Uiso   1.00
H79    H     0.56673   0.09745   0.33884   0.00000  Uiso   1.00
H80    H     0.41622   0.29808   0.21662   0.00000  Uiso   1.00
H81    H     0.33599   0.03957   0.48652   0.00000  Uiso   1.00
H82    H     0.69804   0.03897   0.39506   0.00000  Uiso   1.00
H83    H     0.38066   0.46204   0.13735   0.00000  Uiso   1.00
O84    O     0.34636   0.06368   0.64908   0.00000  Uiso   1.00
O85    O     0.82135   0.06289   0.52908   0.00000  Uiso   1.00
O86    O     0.40497   0.61796   0.19097   0.00000  Uiso   1.00
N87    N     0.42578   0.15331   0.65649   0.00000  Uiso   1.00
N88    N     0.76427   0.15273   0.57099   0.00000  Uiso   1.00
N89    N     0.46757   0.54828   0.33005   0.00000  Uiso   1.00
N90    N     0.36912   0.08014   0.53087   0.00000  Uiso   1.00
N91    N     0.70761   0.07956   0.44537   0.00000  Uiso   1.00
N92    N     0.41091   0.47511   0.20443   0.00000  Uiso   1.00
C93    C     0.94251   0.79123   0.96977   0.00000  Uiso   1.00
C94    C     0.99266   0.73535   0.96568   0.00000  Uiso   1.00
C95    C     0.00326   0.72911   0.89226   0.00000  Uiso   1.00
C96    C     0.05139   0.67442   0.90192   0.00000  Uiso   1.00
C97    C     0.12374   0.59473   0.88334   0.00000  Uiso   1.00
C98    C     0.89937   0.73517   0.98923   0.00000  Uiso   1.00
C99    C     0.83153   0.72881   0.93562   0.00000  Uiso   1.00
C100   C     0.80113   0.67397   0.96513   0.00000  Uiso   1.00
C101   C     0.72863   0.59406   0.98316   0.00000  Uiso   1.00
C102   C     0.98114   0.84418   0.05563   0.00000  Uiso   1.00
C103   C     0.98206   0.92948   0.05786   0.00000  Uiso   1.00
C104   C     0.02050   0.96642   0.14327   0.00000  Uiso   1.00
C105   C     0.07497   0.05577   0.26439   0.00000  Uiso   1.00
C106   C     0.00913   0.70518   0.11750   0.00000  Uiso   1.00
C107   C     0.02885   0.68861   0.04592   0.00000  Uiso   1.00
C108   C     0.07698   0.63391   0.05570   0.00000  Uiso   1.00
C109   C     0.08765   0.62760   0.98231   0.00000  Uiso   1.00
C110   C     0.93555   0.68844   0.06947   0.00000  Uiso   1.00
C111   C     0.90525   0.63360   0.09906   0.00000  Uiso   1.00
C112   C     0.83738   0.62715   0.04551   0.00000  Uiso   1.00
C113   C     0.01734   0.79745   0.13587   0.00000  Uiso   1.00
C114   C     0.05578   0.83427   0.22130   0.00000  Uiso   1.00
C115   C     0.05675   0.91960   0.22366   0.00000  Uiso   1.00
H116   H     0.91433   0.82761   0.90730   0.00000  Uiso   1.00
H117   H     0.97524   0.76529   0.83017   0.00000  Uiso   1.00
H118   H     0.80354   0.76499   0.87354   0.00000  Uiso   1.00
H119   H     0.95404   0.96562   0.99575   0.00000  Uiso   1.00
H120   H     0.05872   0.67556   0.78003   0.00000  Uiso   1.00
H121   H     0.69667   0.67494   0.87149   0.00000  Uiso   1.00
H122   H     0.01404   0.09802   0.12920   0.00000  Uiso   1.00
H123   H     0.03731   0.66879   0.17997   0.00000  Uiso   1.00
H124   H     0.10498   0.59775   0.11780   0.00000  Uiso   1.00
H125   H     0.93327   0.59745   0.16116   0.00000  Uiso   1.00
H126   H     0.08378   0.79808   0.28338   0.00000  Uiso   1.00
H127   H     0.16401   0.53957   0.01348   0.00000  Uiso   1.00
H128   H     0.80196   0.53897   0.10494   0.00000  Uiso   1.00
H129   H     0.11934   0.96204   0.36265   0.00000  Uiso   1.00
O130   O     0.15364   0.56368   0.85092   0.00000  Uiso   1.00
O131   O     0.67865   0.56289   0.97092   0.00000  Uiso   1.00
O132   O     0.09503   0.11796   0.30903   0.00000  Uiso   1.00
N133   N     0.07422   0.65331   0.84351   0.00000  Uiso   1.00
N134   N     0.73573   0.65273   0.92901   0.00000  Uiso   1.00
N135   N     0.03243   0.04828   0.16995   0.00000  Uiso   1.00
N136   N     0.13088   0.58014   0.96913   0.00000  Uiso   1.00
N137   N     0.79239   0.57956   0.05463   0.00000  Uiso   1.00
N138   N     0.08909   0.97511   0.29557   0.00000  Uiso   1.00
C139   C     0.44251   0.29123   0.96977   0.00000  Uiso   1.00
C140   C     0.49266   0.23535   0.96568   0.00000  Uiso   1.00
C141   C     0.50326   0.22911   0.89226   0.00000  Uiso   1.00
C142   C     0.55139   0.17442   0.90192   0.00000  Uiso   1.00
C143   C     0.62374   0.09473   0.88334   0.00000  Uiso   1.00
C144   C     0.39937   0.23517   0.98923   0.00000  Uiso   1.00
C145   C     0.33153   0.22881   0.93562   0.00000  Uiso   1.00
C146   C     0.30113   0.17397   0.96513   0.00000  Uiso   1.00
C147   C     0.22863   0.09406   0.98316   0.00000  Uiso   1.00
C148   C     0.48114   0.34418   0.05563   0.00000  Uiso   1.00
C149   C     0.48206   0.42948   0.05786   0.00000  Uiso   1.00
C150   C     0.52050   0.46642   0.14327   0.00000  Uiso   1.00
C151   C     0.57497   0.55577   0.26439   0.00000  Uiso   1.00
C152   C     0.50913   0.20518   0.11750   0.00000  Uiso   1.00
C153   C     0.52885   0.18861   0.04592   0.00000  Uiso   1.00
C154   C     0.57698   0.13391   0.05570   0.00000  Uiso   1.00
C155   C     0.58765   0.12760   0.98231   0.00000  Uiso   1.00
C156   C     0.43555   0.18844   0.06947   0.00000  Uiso   1.00
C157   C     0.40525   0.13360   0.09906   0.00000  Uiso   1.00
C158   C     0.33738   0.12715   0.04551   0.00000  Uiso   1.00
C159   C     0.51734   0.29745   0.13587   0.00000  Uiso   1.00
C160   C     0.55578   0.33427   0.22130   0.00000  Uiso   1.00
C161   C     0.55675   0.41960   0.22366   0.00000  Uiso   1.00
H162   H     0.41433   0.32761   0.90730   0.00000  Uiso   1.00
H163   H     0.47524   0.26529   0.83017   0.00000  Uiso   1.00
H164   H     0.30354   0.26499   0.87354   0.00000  Uiso   1.00
H165   H     0.45404   0.46562   0.99575   0.00000  Uiso   1.00
H166   H     0.55872   0.17556   0.78003   0.00000  Uiso   1.00
H167   H     0.19667   0.17494   0.87149   0.00000  Uiso   1.00
H168   H     0.51404   0.59802   0.12920   0.00000  Uiso   1.00
H169   H     0.53731   0.16879   0.17997   0.00000  Uiso   1.00
H170   H     0.60498   0.09775   0.11780   0.00000  Uiso   1.00
H171   H     0.43327   0.09745   0.16116   0.00000  Uiso   1.00
H172   H     0.58378   0.29808   0.28338   0.00000  Uiso   1.00
H173   H     0.66401   0.03957   0.01348   0.00000  Uiso   1.00
H174   H     0.30196   0.03897   0.10494   0.00000  Uiso   1.00
H175   H     0.61934   0.46204   0.36265   0.00000  Uiso   1.00
O176   O     0.65364   0.06368   0.85092   0.00000  Uiso   1.00
O177   O     0.17865   0.06289   0.97092   0.00000  Uiso   1.00
O178   O     0.59503   0.61796   0.30903   0.00000  Uiso   1.00
N179   N     0.57422   0.15331   0.84351   0.00000  Uiso   1.00
N180   N     0.23573   0.15273   0.92901   0.00000  Uiso   1.00
N181   N     0.53243   0.54828   0.16995   0.00000  Uiso   1.00
N182   N     0.63088   0.08014   0.96913   0.00000  Uiso   1.00
N183   N     0.29239   0.07956   0.05463   0.00000  Uiso   1.00
N184   N     0.58909   0.47511   0.29557   0.00000  Uiso   1.00
C185   C     0.94251   0.20877   0.46977   0.00000  Uiso   1.00
C186   C     0.99266   0.26465   0.46568   0.00000  Uiso   1.00
C187   C     0.00326   0.27089   0.39226   0.00000  Uiso   1.00
C188   C     0.05139   0.32558   0.40192   0.00000  Uiso   1.00
C189   C     0.12374   0.40527   0.38334   0.00000  Uiso   1.00
C190   C     0.89937   0.26483   0.48923   0.00000  Uiso   1.00
C191   C     0.83153   0.27119   0.43562   0.00000  Uiso   1.00
C192   C     0.80113   0.32603   0.46513   0.00000  Uiso   1.00
C193   C     0.72863   0.40594   0.48316   0.00000  Uiso   1.00
C194   C     0.98114   0.15582   0.55563   0.00000  Uiso   1.00
C195   C     0.98206   0.07052   0.55786   0.00000  Uiso   1.00
C196   C     0.02050   0.03358   0.64327   0.00000  Uiso   1.00
C197   C     0.07497   0.94423   0.76439   0.00000  Uiso   1.00
C198   C     0.00913   0.29482   0.61750   0.00000  Uiso   1.00
C199   C     0.02885   0.31139   0.54592   0.00000  Uiso   1.00
C200   C     0.07698   0.36609   0.55570   0.00000  Uiso   1.00
C201   C     0.08765   0.37240   0.48231   0.00000  Uiso   1.00
C202   C     0.93555   0.31156   0.56947   0.00000  Uiso   1.00
C203   C     0.90525   0.36640   0.59906   0.00000  Uiso   1.00
C204   C     0.83738   0.37285   0.54551   0.00000  Uiso   1.00
C205   C     0.01734   0.20255   0.63587   0.00000  Uiso   1.00
C206   C     0.05578   0.16573   0.72130   0.00000  Uiso   1.00
C207   C     0.05675   0.08040   0.72366   0.00000  Uiso   1.00
H208   H     0.91433   0.17239   0.40730   0.00000  Uiso   1.00
H209   H     0.97524   0.23471   0.33017   0.00000  Uiso   1.00
H210   H     0.80354   0.23501   0.37354   0.00000  Uiso   1.00
H211   H     0.95404   0.03438   0.49575   0.00000  Uiso   1.00
H212   H     0.05872   0.32444   0.28003   0.00000  Uiso   1.00
H213   H     0.69667   0.32506   0.37149   0.00000  Uiso   1.00
H214   H     0.01404   0.90198   0.62920   0.00000  Uiso   1.00
H215   H     0.03731   0.33121   0.67997   0.00000  Uiso   1.00
H216   H     0.10498   0.40225   0.61780   0.00000  Uiso   1.00
H217   H     0.93327   0.40255   0.66116   0.00000  Uiso   1.00
H218   H     0.08378   0.20192   0.78338   0.00000  Uiso   1.00
H219   H     0.16401   0.46043   0.51348   0.00000  Uiso   1.00
H220   H     0.80196   0.46103   0.60494   0.00000  Uiso   1.00
H221   H     0.11934   0.03796   0.86265   0.00000  Uiso   1.00
O222   O     0.15364   0.43632   0.35092   0.00000  Uiso   1.00
O223   O     0.67865   0.43711   0.47092   0.00000  Uiso   1.00
O224   O     0.09503   0.88204   0.80903   0.00000  Uiso   1.00
N225   N     0.07422   0.34669   0.34351   0.00000  Uiso   1.00
N226   N     0.73573   0.34727   0.42901   0.00000  Uiso   1.00
N227   N     0.03243   0.95172   0.66995   0.00000  Uiso   1.00
N228   N     0.13088   0.41986   0.46913   0.00000  Uiso   1.00
N229   N     0.79239   0.42044   0.55463   0.00000  Uiso   1.00
N230   N     0.08909   0.02489   0.79557   0.00000  Uiso   1.00
C231   C     0.44251   0.70877   0.46977   0.00000  Uiso   1.00
C232   C     0.49266   0.76465   0.46568   0.00000  Uiso   1.00
C233   C     0.50326   0.77089   0.39226   0.00000  Uiso   1.00
C234   C     0.55139   0.82558   0.40192   0.00000  Uiso   1.00
C235   C     0.62374   0.90527   0.38334   0.00000  Uiso   1.00
C236   C     0.39937   0.76483   0.48923   0.00000  Uiso   1.00
C237   C     0.33153   0.77119   0.43562   0.00000  Uiso   1.00
C238   C     0.30113   0.82603   0.46513   0.00000  Uiso   1.00
C239   C     0.22863   0.90594   0.48316   0.00000  Uiso   1.00
C240   C     0.48114   0.65582   0.55563   0.00000  Uiso   1.00
C241   C     0.48206   0.57052   0.55786   0.00000  Uiso   1.00
C242   C     0.52050   0.53358   0.64327   0.00000  Uiso   1.00
C243   C     0.57497   0.44423   0.76439   0.00000  Uiso   1.00
C244   C     0.50913   0.79482   0.61750   0.00000  Uiso   1.00
C245   C     0.52885   0.81139   0.54592   0.00000  Uiso   1.00
C246   C     0.57698   0.86609   0.55570   0.00000  Uiso   1.00
C247   C     0.58765   0.87240   0.48231   0.00000  Uiso   1.00
C248   C     0.43555   0.81156   0.56947   0.00000  Uiso   1.00
C249   C     0.40525   0.86640   0.59906   0.00000  Uiso   1.00
C250   C     0.33738   0.87285   0.54551   0.00000  Uiso   1.00
C251   C     0.51734   0.70255   0.63587   0.00000  Uiso   1.00
C252   C     0.55578   0.66573   0.72130   0.00000  Uiso   1.00
C253   C     0.55675   0.58040   0.72366   0.00000  Uiso   1.00
H254   H     0.41433   0.67239   0.40730   0.00000  Uiso   1.00
H255   H     0.47524   0.73471   0.33017   0.00000  Uiso   1.00
H256   H     0.30354   0.73501   0.37354   0.00000  Uiso   1.00
H257   H     0.45404   0.53438   0.49575   0.00000  Uiso   1.00
H258   H     0.55872   0.82444   0.28003   0.00000  Uiso   1.00
H259   H     0.19667   0.82506   0.37149   0.00000  Uiso   1.00
H260   H     0.51404   0.40198   0.62920   0.00000  Uiso   1.00
H261   H     0.53731   0.83121   0.67997   0.00000  Uiso   1.00
H262   H     0.60498   0.90225   0.61780   0.00000  Uiso   1.00
H263   H     0.43327   0.90255   0.66116   0.00000  Uiso   1.00
H264   H     0.58378   0.70192   0.78338   0.00000  Uiso   1.00
H265   H     0.66401   0.96043   0.51348   0.00000  Uiso   1.00
H266   H     0.30196   0.96103   0.60494   0.00000  Uiso   1.00
H267   H     0.61934   0.53796   0.86265   0.00000  Uiso   1.00
O268   O     0.65364   0.93632   0.35092   0.00000  Uiso   1.00
O269   O     0.17865   0.93711   0.47092   0.00000  Uiso   1.00
O270   O     0.59503   0.38204   0.80903   0.00000  Uiso   1.00
N271   N     0.57422   0.84669   0.34351   0.00000  Uiso   1.00
N272   N     0.23573   0.84727   0.42901   0.00000  Uiso   1.00
N273   N     0.53243   0.45172   0.66995   0.00000  Uiso   1.00
N274   N     0.63088   0.91986   0.46913   0.00000  Uiso   1.00
N275   N     0.29239   0.92044   0.55463   0.00000  Uiso   1.00
N276   N     0.58909   0.52489   0.79557   0.00000  Uiso   1.00
C277   C     0.05749   0.20877   0.03023   0.00000  Uiso   1.00
C278   C     0.00734   0.26465   0.03432   0.00000  Uiso   1.00
C279   C     0.99674   0.27089   0.10774   0.00000  Uiso   1.00
C280   C     0.94861   0.32558   0.09808   0.00000  Uiso   1.00
C281   C     0.87626   0.40527   0.11666   0.00000  Uiso   1.00
C282   C     0.10063   0.26483   0.01077   0.00000  Uiso   1.00
C283   C     0.16847   0.27119   0.06438   0.00000  Uiso   1.00
C284   C     0.19887   0.32603   0.03487   0.00000  Uiso   1.00
C285   C     0.27137   0.40594   0.01684   0.00000  Uiso   1.00
C286   C     0.01886   0.15582   0.94437   0.00000  Uiso   1.00
C287   C     0.01794   0.07052   0.94214   0.00000  Uiso   1.00
C288   C     0.97950   0.03358   0.85673   0.00000  Uiso   1.00
C289   C     0.92503   0.94423   0.73561   0.00000  Uiso   1.00
C290   C     0.99087   0.29482   0.88250   0.00000  Uiso   1.00
C291   C     0.97115   0.31139   0.95408   0.00000  Uiso   1.00
C292   C     0.92302   0.36609   0.94430   0.00000  Uiso   1.00
C293   C     0.91235   0.37240   0.01769   0.00000  Uiso   1.00
C294   C     0.06445   0.31156   0.93053   0.00000  Uiso   1.00
C295   C     0.09475   0.36640   0.90094   0.00000  Uiso   1.00
C296   C     0.16262   0.37285   0.95449   0.00000  Uiso   1.00
C297   C     0.98266   0.20255   0.86413   0.00000  Uiso   1.00
C298   C     0.94422   0.16573   0.77870   0.00000  Uiso   1.00
C299   C     0.94325   0.08040   0.77634   0.00000  Uiso   1.00
H300   H     0.08567   0.17239   0.09270   0.00000  Uiso   1.00
H301   H     0.02476   0.23471   0.16983   0.00000  Uiso   1.00
H302   H     0.19646   0.23501   0.12646   0.00000  Uiso   1.00
H303   H     0.04596   0.03438   0.00425   0.00000  Uiso   1.00
H304   H     0.94128   0.32444   0.21997   0.00000  Uiso   1.00
H305   H     0.30333   0.32506   0.12851   0.00000  Uiso   1.00
H306   H     0.98596   0.90198   0.87080   0.00000  Uiso   1.00
H307   H     0.96269   0.33121   0.82003   0.00000  Uiso   1.00
H308   H     0.89502   0.40225   0.88220   0.00000  Uiso   1.00
H309   H     0.06673   0.40255   0.83884   0.00000  Uiso   1.00
H310   H     0.91622   0.20192   0.71662   0.00000  Uiso   1.00
H311   H     0.83599   0.46043   0.98652   0.00000  Uiso   1.00
H312   H     0.19804   0.46103   0.89506   0.00000  Uiso   1.00
H313   H     0.88066   0.03796   0.63735   0.00000  Uiso   1.00
O314   O     0.84636   0.43632   0.14908   0.00000  Uiso   1.00
O315   O     0.32135   0.43711   0.02908   0.00000  Uiso   1.00
O316   O     0.90497   0.88204   0.69097   0.00000  Uiso   1.00
N317   N     0.92578   0.34669   0.15649   0.00000  Uiso   1.00
N318   N     0.26427   0.34727   0.07099   0.00000  Uiso   1.00
N319   N     0.96757   0.95172   0.83005   0.00000  Uiso   1.00
N320   N     0.86912   0.41986   0.03087   0.00000  Uiso   1.00
N321   N     0.20761   0.42044   0.94537   0.00000  Uiso   1.00
N322   N     0.91091   0.02489   0.70443   0.00000  Uiso   1.00
C323   C     0.55749   0.70877   0.03023   0.00000  Uiso   1.00
C324   C     0.50734   0.76465   0.03432   0.00000  Uiso   1.00
C325   C     0.49674   0.77089   0.10774   0.00000  Uiso   1.00
C326   C     0.44861   0.82558   0.09808   0.00000  Uiso   1.00
C327   C     0.37626   0.90527   0.11666   0.00000  Uiso   1.00
C328   C     0.60063   0.76483   0.01077   0.00000  Uiso   1.00
C329   C     0.66847   0.77119   0.06438   0.00000  Uiso   1.00
C330   C     0.69887   0.82603   0.03487   0.00000  Uiso   1.00
C331   C     0.77137   0.90594   0.01684   0.00000  Uiso   1.00
C332   C     0.51886   0.65582   0.94437   0.00000  Uiso   1.00
C333   C     0.51794   0.57052   0.94214   0.00000  Uiso   1.00
C334   C     0.47950   0.53358   0.85673   0.00000  Uiso   1.00
C335   C     0.42503   0.44423   0.73561   0.00000  Uiso   1.00
C336   C     0.49087   0.79482   0.88250   0.00000  Uiso   1.00
C337   C     0.47115   0.81139   0.95408   0.00000  Uiso   1.00
C338   C     0.42302   0.86609   0.94430   0.00000  Uiso   1.00
C339   C     0.41235   0.87240   0.01769   0.00000  Uiso   1.00
C340   C     0.56445   0.81156   0.93053   0.00000  Uiso   1.00
C341   C     0.59475   0.86640   0.90094   0.00000  Uiso   1.00
C342   C     0.66262   0.87285   0.95449   0.00000  Uiso   1.00
C343   C     0.48266   0.70255   0.86413   0.00000  Uiso   1.00
C344   C     0.44422   0.66573   0.77870   0.00000  Uiso   1.00
C345   C     0.44325   0.58040   0.77634   0.00000  Uiso   1.00
H346   H     0.58567   0.67239   0.09270   0.00000  Uiso   1.00
H347   H     0.52476   0.73471   0.16983   0.00000  Uiso   1.00
H348   H     0.69646   0.73501   0.12646   0.00000  Uiso   1.00
H349   H     0.54596   0.53438   0.00425   0.00000  Uiso   1.00
H350   H     0.44128   0.82444   0.21997   0.00000  Uiso   1.00
H351   H     0.80333   0.82506   0.12851   0.00000  Uiso   1.00
H352   H     0.48596   0.40198   0.87080   0.00000  Uiso   1.00
H353   H     0.46269   0.83121   0.82003   0.00000  Uiso   1.00
H354   H     0.39502   0.90225   0.88220   0.00000  Uiso   1.00
H355   H     0.56673   0.90255   0.83884   0.00000  Uiso   1.00
H356   H     0.41622   0.70192   0.71662   0.00000  Uiso   1.00
H357   H     0.33599   0.96043   0.98652   0.00000  Uiso   1.00
H358   H     0.69804   0.96103   0.89506   0.00000  Uiso   1.00
H359   H     0.38066   0.53796   0.63735   0.00000  Uiso   1.00
O360   O     0.34636   0.93632   0.14908   0.00000  Uiso   1.00
O361   O     0.82135   0.93711   0.02908   0.00000  Uiso   1.00
O362   O     0.40497   0.38204   0.69097   0.00000  Uiso   1.00
N363   N     0.42578   0.84669   0.15649   0.00000  Uiso   1.00
N364   N     0.76427   0.84727   0.07099   0.00000  Uiso   1.00
N365   N     0.46757   0.45172   0.83005   0.00000  Uiso   1.00
N366   N     0.36912   0.91986   0.03087   0.00000  Uiso   1.00
N367   N     0.70761   0.92044   0.94537   0.00000  Uiso   1.00
N368   N     0.41091   0.52489   0.70443   0.00000  Uiso   1.00
