data_job_02665
_audit_creation_date              2018-12-19
_audit_creation_method            'Materials Studio'
_symmetry_space_group_name_H-M    'P1'
_symmetry_Int_Tables_number       1
_symmetry_cell_setting            triclinic
loop_
_symmetry_equiv_pos_as_xyz
  x,y,z
_cell_length_a                    40.1035
_cell_length_b                    13.4423
_cell_length_c                    10.3026
_cell_angle_alpha                 90.0000
_cell_angle_beta                  90.0000
_cell_angle_gamma                 90.0000
loop_
_atom_site_label
_atom_site_type_symbol
_atom_site_fract_x
_atom_site_fract_y
_atom_site_fract_z
_atom_site_U_iso_or_equiv
_atom_site_adp_type
_atom_site_occupancy
C1     C     0.65633   0.72976   0.73457   0.00000  Uiso   1.00
C2     C     0.62381   0.68472   0.68519   0.00000  Uiso   1.00
C3     C     0.60429   0.72249   0.58549   0.00000  Uiso   1.00
C4     C     0.57545   0.67041   0.55484   0.00000  Uiso   1.00
C5     C     0.52632   0.61369   0.46806   0.00000  Uiso   1.00
C6     C     0.65136   0.74723   0.87954   0.00000  Uiso   1.00
C7     C     0.65501   0.83756   0.94322   0.00000  Uiso   1.00
C8     C     0.64936   0.83808   0.07618   0.00000  Uiso   1.00
C9     C     0.64302   0.87840   0.29114   0.00000  Uiso   1.00
C10    C     0.68249   0.64792   0.72320   0.00000  Uiso   1.00
C11    C     0.71232   0.65475   0.65547   0.00000  Uiso   1.00
C12    C     0.73289   0.57166   0.65684   0.00000  Uiso   1.00
C13    C     0.77488   0.45778   0.62906   0.00000  Uiso   1.00
C14    C     0.63982   0.57009   0.85745   0.00000  Uiso   1.00
C15    C     0.61485   0.59800   0.75194   0.00000  Uiso   1.00
C16    C     0.58603   0.54584   0.72144   0.00000  Uiso   1.00
C17    C     0.56647   0.58352   0.62170   0.00000  Uiso   1.00
C18    C     0.64240   0.66051   0.94628   0.00000  Uiso   1.00
C19    C     0.63674   0.66090   0.07918   0.00000  Uiso   1.00
C20    C     0.64038   0.75120   0.14305   0.00000  Uiso   1.00
C21    C     0.67353   0.56119   0.78995   0.00000  Uiso   1.00
C22    C     0.69405   0.47809   0.79143   0.00000  Uiso   1.00
C23    C     0.72391   0.48478   0.72371   0.00000  Uiso   1.00
H24    H     0.66330   0.79729   0.68261   0.00000  Uiso   1.00
H25    H     0.61124   0.78962   0.53386   0.00000  Uiso   1.00
H26    H     0.66195   0.90466   0.89155   0.00000  Uiso   1.00
H27    H     0.71925   0.72187   0.60384   0.00000  Uiso   1.00
H28    H     0.54955   0.74289   0.39841   0.00000  Uiso   1.00
H29    H     0.65648   0.98545   0.15262   0.00000  Uiso   1.00
H30    H     0.77732   0.60001   0.54592   0.00000  Uiso   1.00
H31    H     0.63284   0.50257   0.90942   0.00000  Uiso   1.00
H32    H     0.57910   0.47873   0.77311   0.00000  Uiso   1.00
H33    H     0.62981   0.59377   0.13080   0.00000  Uiso   1.00
H34    H     0.68711   0.41099   0.84309   0.00000  Uiso   1.00
H35    H     0.52346   0.49056   0.59260   0.00000  Uiso   1.00
H36    H     0.63040   0.73313   0.34681   0.00000  Uiso   1.00
H37    H     0.75123   0.34769   0.74011   0.00000  Uiso   1.00
O38    O     0.50170   0.60638   0.40177   0.00000  Uiso   1.00
O39    O     0.64200   0.92461   0.39126   0.00000  Uiso   1.00
O40    O     0.80052   0.41892   0.59529   0.00000  Uiso   1.00
N41    N     0.55079   0.68676   0.46280   0.00000  Uiso   1.00
N42    N     0.65076   0.91355   0.16794   0.00000  Uiso   1.00
N43    N     0.76373   0.55321   0.60076   0.00000  Uiso   1.00
N44    N     0.53675   0.55099   0.56729   0.00000  Uiso   1.00
N45    N     0.63673   0.77778   0.27243   0.00000  Uiso   1.00
N46    N     0.74970   0.41743   0.70525   0.00000  Uiso   1.00
C47    C     0.84367   0.77024   0.23457   0.00000  Uiso   1.00
C48    C     0.87619   0.81528   0.18519   0.00000  Uiso   1.00
C49    C     0.89571   0.77751   0.08549   0.00000  Uiso   1.00
C50    C     0.92455   0.82959   0.05484   0.00000  Uiso   1.00
C51    C     0.97368   0.88631   0.96806   0.00000  Uiso   1.00
C52    C     0.84864   0.75277   0.37954   0.00000  Uiso   1.00
C53    C     0.84499   0.66244   0.44322   0.00000  Uiso   1.00
C54    C     0.85064   0.66192   0.57618   0.00000  Uiso   1.00
C55    C     0.85698   0.62160   0.79114   0.00000  Uiso   1.00
C56    C     0.81751   0.85208   0.22320   0.00000  Uiso   1.00
C57    C     0.78768   0.84525   0.15547   0.00000  Uiso   1.00
C58    C     0.76711   0.92834   0.15684   0.00000  Uiso   1.00
C59    C     0.72512   0.04222   0.12906   0.00000  Uiso   1.00
C60    C     0.86018   0.92991   0.35745   0.00000  Uiso   1.00
C61    C     0.88515   0.90200   0.25194   0.00000  Uiso   1.00
C62    C     0.91397   0.95416   0.22144   0.00000  Uiso   1.00
C63    C     0.93353   0.91648   0.12170   0.00000  Uiso   1.00
C64    C     0.85760   0.83949   0.44628   0.00000  Uiso   1.00
C65    C     0.86326   0.83910   0.57918   0.00000  Uiso   1.00
C66    C     0.85962   0.74880   0.64305   0.00000  Uiso   1.00
C67    C     0.82647   0.93881   0.28995   0.00000  Uiso   1.00
C68    C     0.80595   0.02191   0.29143   0.00000  Uiso   1.00
C69    C     0.77609   0.01522   0.22371   0.00000  Uiso   1.00
H70    H     0.83670   0.70271   0.18261   0.00000  Uiso   1.00
H71    H     0.88876   0.71038   0.03386   0.00000  Uiso   1.00
H72    H     0.83805   0.59534   0.39155   0.00000  Uiso   1.00
H73    H     0.78075   0.77813   0.10384   0.00000  Uiso   1.00
H74    H     0.95045   0.75711   0.89841   0.00000  Uiso   1.00
H75    H     0.84352   0.51455   0.65262   0.00000  Uiso   1.00
H76    H     0.72268   0.89999   0.04592   0.00000  Uiso   1.00
H77    H     0.86716   0.99743   0.40942   0.00000  Uiso   1.00
H78    H     0.92090   0.02127   0.27311   0.00000  Uiso   1.00
H79    H     0.87019   0.90623   0.63080   0.00000  Uiso   1.00
H80    H     0.81289   0.08901   0.34309   0.00000  Uiso   1.00
H81    H     0.97654   0.00944   0.09260   0.00000  Uiso   1.00
H82    H     0.86960   0.76687   0.84681   0.00000  Uiso   1.00
H83    H     0.74877   0.15231   0.24011   0.00000  Uiso   1.00
O84    O     0.99830   0.89362   0.90177   0.00000  Uiso   1.00
O85    O     0.85800   0.57539   0.89126   0.00000  Uiso   1.00
O86    O     0.69948   0.08108   0.09529   0.00000  Uiso   1.00
N87    N     0.94921   0.81324   0.96280   0.00000  Uiso   1.00
N88    N     0.84924   0.58645   0.66794   0.00000  Uiso   1.00
N89    N     0.73627   0.94679   0.10076   0.00000  Uiso   1.00
N90    N     0.96325   0.94901   0.06729   0.00000  Uiso   1.00
N91    N     0.86327   0.72222   0.77243   0.00000  Uiso   1.00
N92    N     0.75030   0.08257   0.20525   0.00000  Uiso   1.00
C93    C     0.34367   0.72976   0.76543   0.00000  Uiso   1.00
C94    C     0.37619   0.68472   0.81481   0.00000  Uiso   1.00
C95    C     0.39571   0.72249   0.91451   0.00000  Uiso   1.00
C96    C     0.42455   0.67041   0.94516   0.00000  Uiso   1.00
C97    C     0.47368   0.61369   0.03194   0.00000  Uiso   1.00
C98    C     0.34864   0.74723   0.62046   0.00000  Uiso   1.00
C99    C     0.34499   0.83756   0.55678   0.00000  Uiso   1.00
C100   C     0.35064   0.83808   0.42382   0.00000  Uiso   1.00
C101   C     0.35698   0.87840   0.20886   0.00000  Uiso   1.00
C102   C     0.31751   0.64792   0.77680   0.00000  Uiso   1.00
C103   C     0.28768   0.65475   0.84453   0.00000  Uiso   1.00
C104   C     0.26711   0.57166   0.84316   0.00000  Uiso   1.00
C105   C     0.22512   0.45778   0.87094   0.00000  Uiso   1.00
C106   C     0.36018   0.57009   0.64255   0.00000  Uiso   1.00
C107   C     0.38515   0.59800   0.74806   0.00000  Uiso   1.00
C108   C     0.41397   0.54584   0.77856   0.00000  Uiso   1.00
C109   C     0.43353   0.58352   0.87830   0.00000  Uiso   1.00
C110   C     0.35760   0.66051   0.55372   0.00000  Uiso   1.00
C111   C     0.36326   0.66090   0.42082   0.00000  Uiso   1.00
C112   C     0.35962   0.75120   0.35695   0.00000  Uiso   1.00
C113   C     0.32647   0.56119   0.71005   0.00000  Uiso   1.00
C114   C     0.30595   0.47809   0.70857   0.00000  Uiso   1.00
C115   C     0.27609   0.48478   0.77629   0.00000  Uiso   1.00
H116   H     0.33670   0.79729   0.81739   0.00000  Uiso   1.00
H117   H     0.38876   0.78962   0.96614   0.00000  Uiso   1.00
H118   H     0.33805   0.90466   0.60845   0.00000  Uiso   1.00
H119   H     0.28075   0.72187   0.89616   0.00000  Uiso   1.00
H120   H     0.45045   0.74289   0.10159   0.00000  Uiso   1.00
H121   H     0.34352   0.98545   0.34738   0.00000  Uiso   1.00
H122   H     0.22268   0.60001   0.95408   0.00000  Uiso   1.00
H123   H     0.36716   0.50257   0.59058   0.00000  Uiso   1.00
H124   H     0.42090   0.47873   0.72689   0.00000  Uiso   1.00
H125   H     0.37019   0.59377   0.36920   0.00000  Uiso   1.00
H126   H     0.31289   0.41099   0.65691   0.00000  Uiso   1.00
H127   H     0.47654   0.49056   0.90740   0.00000  Uiso   1.00
H128   H     0.36960   0.73313   0.15319   0.00000  Uiso   1.00
H129   H     0.24877   0.34769   0.75989   0.00000  Uiso   1.00
O130   O     0.49830   0.60638   0.09823   0.00000  Uiso   1.00
O131   O     0.35800   0.92461   0.10874   0.00000  Uiso   1.00
O132   O     0.19948   0.41892   0.90471   0.00000  Uiso   1.00
N133   N     0.44921   0.68676   0.03720   0.00000  Uiso   1.00
N134   N     0.34924   0.91355   0.33206   0.00000  Uiso   1.00
N135   N     0.23627   0.55321   0.89924   0.00000  Uiso   1.00
N136   N     0.46325   0.55099   0.93271   0.00000  Uiso   1.00
N137   N     0.36327   0.77778   0.22757   0.00000  Uiso   1.00
N138   N     0.25030   0.41743   0.79475   0.00000  Uiso   1.00
C139   C     0.15633   0.77024   0.26543   0.00000  Uiso   1.00
C140   C     0.12381   0.81528   0.31481   0.00000  Uiso   1.00
C141   C     0.10429   0.77751   0.41451   0.00000  Uiso   1.00
C142   C     0.07545   0.82959   0.44516   0.00000  Uiso   1.00
C143   C     0.02632   0.88631   0.53194   0.00000  Uiso   1.00
C144   C     0.15136   0.75277   0.12046   0.00000  Uiso   1.00
C145   C     0.15501   0.66244   0.05678   0.00000  Uiso   1.00
C146   C     0.14936   0.66192   0.92382   0.00000  Uiso   1.00
C147   C     0.14302   0.62160   0.70886   0.00000  Uiso   1.00
C148   C     0.18249   0.85208   0.27680   0.00000  Uiso   1.00
C149   C     0.21232   0.84525   0.34453   0.00000  Uiso   1.00
C150   C     0.23289   0.92834   0.34316   0.00000  Uiso   1.00
C151   C     0.27488   0.04222   0.37094   0.00000  Uiso   1.00
C152   C     0.13982   0.92991   0.14255   0.00000  Uiso   1.00
C153   C     0.11485   0.90200   0.24806   0.00000  Uiso   1.00
C154   C     0.08603   0.95416   0.27856   0.00000  Uiso   1.00
C155   C     0.06647   0.91648   0.37830   0.00000  Uiso   1.00
C156   C     0.14240   0.83949   0.05372   0.00000  Uiso   1.00
C157   C     0.13674   0.83910   0.92082   0.00000  Uiso   1.00
C158   C     0.14038   0.74880   0.85695   0.00000  Uiso   1.00
C159   C     0.17353   0.93881   0.21005   0.00000  Uiso   1.00
C160   C     0.19405   0.02191   0.20857   0.00000  Uiso   1.00
C161   C     0.22391   0.01522   0.27629   0.00000  Uiso   1.00
H162   H     0.16330   0.70271   0.31739   0.00000  Uiso   1.00
H163   H     0.11124   0.71038   0.46614   0.00000  Uiso   1.00
H164   H     0.16195   0.59534   0.10845   0.00000  Uiso   1.00
H165   H     0.21925   0.77813   0.39616   0.00000  Uiso   1.00
H166   H     0.04955   0.75711   0.60159   0.00000  Uiso   1.00
H167   H     0.15648   0.51455   0.84738   0.00000  Uiso   1.00
H168   H     0.27732   0.89999   0.45408   0.00000  Uiso   1.00
H169   H     0.13284   0.99743   0.09058   0.00000  Uiso   1.00
H170   H     0.07910   0.02127   0.22689   0.00000  Uiso   1.00
H171   H     0.12981   0.90623   0.86920   0.00000  Uiso   1.00
H172   H     0.18711   0.08901   0.15691   0.00000  Uiso   1.00
H173   H     0.02346   0.00944   0.40740   0.00000  Uiso   1.00
H174   H     0.13040   0.76687   0.65319   0.00000  Uiso   1.00
H175   H     0.25123   0.15231   0.25989   0.00000  Uiso   1.00
O176   O     0.00170   0.89362   0.59823   0.00000  Uiso   1.00
O177   O     0.14200   0.57539   0.60874   0.00000  Uiso   1.00
O178   O     0.30052   0.08108   0.40471   0.00000  Uiso   1.00
N179   N     0.05079   0.81324   0.53720   0.00000  Uiso   1.00
N180   N     0.15076   0.58645   0.83206   0.00000  Uiso   1.00
N181   N     0.26373   0.94679   0.39924   0.00000  Uiso   1.00
N182   N     0.03675   0.94901   0.43271   0.00000  Uiso   1.00
N183   N     0.13673   0.72222   0.72757   0.00000  Uiso   1.00
N184   N     0.24970   0.08257   0.29475   0.00000  Uiso   1.00
C185   C     0.34367   0.27024   0.26543   0.00000  Uiso   1.00
C186   C     0.37619   0.31528   0.31481   0.00000  Uiso   1.00
C187   C     0.39571   0.27751   0.41451   0.00000  Uiso   1.00
C188   C     0.42455   0.32959   0.44516   0.00000  Uiso   1.00
C189   C     0.47368   0.38631   0.53194   0.00000  Uiso   1.00
C190   C     0.34864   0.25277   0.12046   0.00000  Uiso   1.00
C191   C     0.34499   0.16244   0.05678   0.00000  Uiso   1.00
C192   C     0.35064   0.16192   0.92382   0.00000  Uiso   1.00
C193   C     0.35698   0.12160   0.70886   0.00000  Uiso   1.00
C194   C     0.31751   0.35208   0.27680   0.00000  Uiso   1.00
C195   C     0.28768   0.34525   0.34453   0.00000  Uiso   1.00
C196   C     0.26711   0.42834   0.34316   0.00000  Uiso   1.00
C197   C     0.22512   0.54222   0.37094   0.00000  Uiso   1.00
C198   C     0.36018   0.42991   0.14255   0.00000  Uiso   1.00
C199   C     0.38515   0.40200   0.24806   0.00000  Uiso   1.00
C200   C     0.41397   0.45416   0.27856   0.00000  Uiso   1.00
C201   C     0.43353   0.41648   0.37830   0.00000  Uiso   1.00
C202   C     0.35760   0.33949   0.05372   0.00000  Uiso   1.00
C203   C     0.36326   0.33910   0.92082   0.00000  Uiso   1.00
C204   C     0.35962   0.24880   0.85695   0.00000  Uiso   1.00
C205   C     0.32647   0.43881   0.21005   0.00000  Uiso   1.00
C206   C     0.30595   0.52191   0.20857   0.00000  Uiso   1.00
C207   C     0.27609   0.51522   0.27629   0.00000  Uiso   1.00
H208   H     0.33670   0.20271   0.31739   0.00000  Uiso   1.00
H209   H     0.38876   0.21038   0.46614   0.00000  Uiso   1.00
H210   H     0.33805   0.09534   0.10845   0.00000  Uiso   1.00
H211   H     0.28075   0.27813   0.39616   0.00000  Uiso   1.00
H212   H     0.45045   0.25711   0.60159   0.00000  Uiso   1.00
H213   H     0.34352   0.01455   0.84738   0.00000  Uiso   1.00
H214   H     0.22268   0.39999   0.45408   0.00000  Uiso   1.00
H215   H     0.36716   0.49743   0.09058   0.00000  Uiso   1.00
H216   H     0.42090   0.52127   0.22689   0.00000  Uiso   1.00
H217   H     0.37019   0.40623   0.86920   0.00000  Uiso   1.00
H218   H     0.31289   0.58901   0.15691   0.00000  Uiso   1.00
H219   H     0.47654   0.50944   0.40740   0.00000  Uiso   1.00
H220   H     0.36960   0.26687   0.65319   0.00000  Uiso   1.00
H221   H     0.24877   0.65231   0.25989   0.00000  Uiso   1.00
O222   O     0.49830   0.39362   0.59823   0.00000  Uiso   1.00
O223   O     0.35800   0.07539   0.60874   0.00000  Uiso   1.00
O224   O     0.19948   0.58108   0.40471   0.00000  Uiso   1.00
N225   N     0.44921   0.31324   0.53720   0.00000  Uiso   1.00
N226   N     0.34924   0.08645   0.83206   0.00000  Uiso   1.00
N227   N     0.23627   0.44679   0.39924   0.00000  Uiso   1.00
N228   N     0.46325   0.44901   0.43271   0.00000  Uiso   1.00
N229   N     0.36327   0.22222   0.72757   0.00000  Uiso   1.00
N230   N     0.25030   0.58257   0.29475   0.00000  Uiso   1.00
C231   C     0.15633   0.22976   0.76543   0.00000  Uiso   1.00
C232   C     0.12381   0.18472   0.81481   0.00000  Uiso   1.00
C233   C     0.10429   0.22249   0.91451   0.00000  Uiso   1.00
C234   C     0.07545   0.17041   0.94516   0.00000  Uiso   1.00
C235   C     0.02632   0.11369   0.03194   0.00000  Uiso   1.00
C236   C     0.15136   0.24723   0.62046   0.00000  Uiso   1.00
C237   C     0.15501   0.33756   0.55678   0.00000  Uiso   1.00
C238   C     0.14936   0.33808   0.42382   0.00000  Uiso   1.00
C239   C     0.14302   0.37840   0.20886   0.00000  Uiso   1.00
C240   C     0.18249   0.14792   0.77680   0.00000  Uiso   1.00
C241   C     0.21232   0.15475   0.84453   0.00000  Uiso   1.00
C242   C     0.23289   0.07166   0.84316   0.00000  Uiso   1.00
C243   C     0.27488   0.95778   0.87094   0.00000  Uiso   1.00
C244   C     0.13982   0.07009   0.64255   0.00000  Uiso   1.00
C245   C     0.11485   0.09800   0.74806   0.00000  Uiso   1.00
C246   C     0.08603   0.04584   0.77856   0.00000  Uiso   1.00
C247   C     0.06647   0.08352   0.87830   0.00000  Uiso   1.00
C248   C     0.14240   0.16051   0.55372   0.00000  Uiso   1.00
C249   C     0.13674   0.16090   0.42082   0.00000  Uiso   1.00
C250   C     0.14038   0.25120   0.35695   0.00000  Uiso   1.00
C251   C     0.17353   0.06119   0.71005   0.00000  Uiso   1.00
C252   C     0.19405   0.97809   0.70857   0.00000  Uiso   1.00
C253   C     0.22391   0.98478   0.77629   0.00000  Uiso   1.00
H254   H     0.16330   0.29729   0.81739   0.00000  Uiso   1.00
H255   H     0.11124   0.28962   0.96614   0.00000  Uiso   1.00
H256   H     0.16195   0.40466   0.60845   0.00000  Uiso   1.00
H257   H     0.21925   0.22187   0.89616   0.00000  Uiso   1.00
H258   H     0.04955   0.24289   0.10159   0.00000  Uiso   1.00
H259   H     0.15648   0.48545   0.34738   0.00000  Uiso   1.00
H260   H     0.27732   0.10001   0.95408   0.00000  Uiso   1.00
H261   H     0.13284   0.00257   0.59058   0.00000  Uiso   1.00
H262   H     0.07910   0.97873   0.72689   0.00000  Uiso   1.00
H263   H     0.12981   0.09377   0.36920   0.00000  Uiso   1.00
H264   H     0.18711   0.91099   0.65691   0.00000  Uiso   1.00
H265   H     0.02346   0.99056   0.90740   0.00000  Uiso   1.00
H266   H     0.13040   0.23313   0.15319   0.00000  Uiso   1.00
H267   H     0.25123   0.84769   0.75989   0.00000  Uiso   1.00
O268   O     0.00170   0.10638   0.09823   0.00000  Uiso   1.00
O269   O     0.14200   0.42461   0.10874   0.00000  Uiso   1.00
O270   O     0.30052   0.91892   0.90471   0.00000  Uiso   1.00
N271   N     0.05079   0.18676   0.03720   0.00000  Uiso   1.00
N272   N     0.15076   0.41355   0.33206   0.00000  Uiso   1.00
N273   N     0.26373   0.05321   0.89924   0.00000  Uiso   1.00
N274   N     0.03675   0.05099   0.93271   0.00000  Uiso   1.00
N275   N     0.13673   0.27778   0.22757   0.00000  Uiso   1.00
N276   N     0.24970   0.91743   0.79475   0.00000  Uiso   1.00
C277   C     0.65633   0.27024   0.23457   0.00000  Uiso   1.00
C278   C     0.62381   0.31528   0.18519   0.00000  Uiso   1.00
C279   C     0.60429   0.27751   0.08549   0.00000  Uiso   1.00
C280   C     0.57545   0.32959   0.05484   0.00000  Uiso   1.00
C281   C     0.52632   0.38631   0.96806   0.00000  Uiso   1.00
C282   C     0.65136   0.25277   0.37954   0.00000  Uiso   1.00
C283   C     0.65501   0.16244   0.44322   0.00000  Uiso   1.00
C284   C     0.64936   0.16192   0.57618   0.00000  Uiso   1.00
C285   C     0.64302   0.12160   0.79114   0.00000  Uiso   1.00
C286   C     0.68249   0.35208   0.22320   0.00000  Uiso   1.00
C287   C     0.71232   0.34525   0.15547   0.00000  Uiso   1.00
C288   C     0.73289   0.42834   0.15684   0.00000  Uiso   1.00
C289   C     0.77488   0.54222   0.12906   0.00000  Uiso   1.00
C290   C     0.63982   0.42991   0.35745   0.00000  Uiso   1.00
C291   C     0.61485   0.40200   0.25194   0.00000  Uiso   1.00
C292   C     0.58603   0.45416   0.22144   0.00000  Uiso   1.00
C293   C     0.56647   0.41648   0.12170   0.00000  Uiso   1.00
C294   C     0.64240   0.33949   0.44628   0.00000  Uiso   1.00
C295   C     0.63674   0.33910   0.57918   0.00000  Uiso   1.00
C296   C     0.64038   0.24880   0.64305   0.00000  Uiso   1.00
C297   C     0.67353   0.43881   0.28995   0.00000  Uiso   1.00
C298   C     0.69405   0.52191   0.29143   0.00000  Uiso   1.00
C299   C     0.72391   0.51522   0.22371   0.00000  Uiso   1.00
H300   H     0.66330   0.20271   0.18261   0.00000  Uiso   1.00
H301   H     0.61124   0.21038   0.03386   0.00000  Uiso   1.00
H302   H     0.66195   0.09534   0.39155   0.00000  Uiso   1.00
H303   H     0.71925   0.27813   0.10384   0.00000  Uiso   1.00
H304   H     0.54955   0.25711   0.89841   0.00000  Uiso   1.00
H305   H     0.65648   0.01455   0.65262   0.00000  Uiso   1.00
H306   H     0.77732   0.39999   0.04592   0.00000  Uiso   1.00
H307   H     0.63284   0.49743   0.40942   0.00000  Uiso   1.00
H308   H     0.57910   0.52127   0.27311   0.00000  Uiso   1.00
H309   H     0.62981   0.40623   0.63080   0.00000  Uiso   1.00
H310   H     0.68711   0.58901   0.34309   0.00000  Uiso   1.00
H311   H     0.52346   0.50944   0.09260   0.00000  Uiso   1.00
H312   H     0.63040   0.26687   0.84681   0.00000  Uiso   1.00
H313   H     0.75123   0.65231   0.24011   0.00000  Uiso   1.00
O314   O     0.50170   0.39362   0.90177   0.00000  Uiso   1.00
O315   O     0.64200   0.07539   0.89126   0.00000  Uiso   1.00
O316   O     0.80052   0.58108   0.09529   0.00000  Uiso   1.00
N317   N     0.55079   0.31324   0.96280   0.00000  Uiso   1.00
N318   N     0.65076   0.08645   0.66794   0.00000  Uiso   1.00
N319   N     0.76373   0.44679   0.10076   0.00000  Uiso   1.00
N320   N     0.53675   0.44901   0.06729   0.00000  Uiso   1.00
N321   N     0.63673   0.22222   0.77243   0.00000  Uiso   1.00
N322   N     0.74970   0.58257   0.20525   0.00000  Uiso   1.00
C323   C     0.84367   0.22976   0.73457   0.00000  Uiso   1.00
C324   C     0.87619   0.18472   0.68519   0.00000  Uiso   1.00
C325   C     0.89571   0.22249   0.58549   0.00000  Uiso   1.00
C326   C     0.92455   0.17041   0.55484   0.00000  Uiso   1.00
C327   C     0.97368   0.11369   0.46806   0.00000  Uiso   1.00
C328   C     0.84864   0.24723   0.87954   0.00000  Uiso   1.00
C329   C     0.84499   0.33756   0.94322   0.00000  Uiso   1.00
C330   C     0.85064   0.33808   0.07618   0.00000  Uiso   1.00
C331   C     0.85698   0.37840   0.29114   0.00000  Uiso   1.00
C332   C     0.81751   0.14792   0.72320   0.00000  Uiso   1.00
C333   C     0.78768   0.15475   0.65547   0.00000  Uiso   1.00
C334   C     0.76711   0.07166   0.65684   0.00000  Uiso   1.00
C335   C     0.72512   0.95778   0.62906   0.00000  Uiso   1.00
C336   C     0.86018   0.07009   0.85745   0.00000  Uiso   1.00
C337   C     0.88515   0.09800   0.75194   0.00000  Uiso   1.00
C338   C     0.91397   0.04584   0.72144   0.00000  Uiso   1.00
C339   C     0.93353   0.08352   0.62170   0.00000  Uiso   1.00
C340   C     0.85760   0.16051   0.94628   0.00000  Uiso   1.00
C341   C     0.86326   0.16090   0.07918   0.00000  Uiso   1.00
C342   C     0.85962   0.25120   0.14305   0.00000  Uiso   1.00
C343   C     0.82647   0.06119   0.78995   0.00000  Uiso   1.00
C344   C     0.80595   0.97809   0.79143   0.00000  Uiso   1.00
C345   C     0.77609   0.98478   0.72371   0.00000  Uiso   1.00
H346   H     0.83670   0.29729   0.68261   0.00000  Uiso   1.00
H347   H     0.88876   0.28962   0.53386   0.00000  Uiso   1.00
H348   H     0.83805   0.40466   0.89155   0.00000  Uiso   1.00
H349   H     0.78075   0.22187   0.60384   0.00000  Uiso   1.00
H350   H     0.95045   0.24289   0.39841   0.00000  Uiso   1.00
H351   H     0.84352   0.48545   0.15262   0.00000  Uiso   1.00
H352   H     0.72268   0.10001   0.54592   0.00000  Uiso   1.00
H353   H     0.86716   0.00257   0.90942   0.00000  Uiso   1.00
H354   H     0.92090   0.97873   0.77311   0.00000  Uiso   1.00
H355   H     0.87019   0.09377   0.13080   0.00000  Uiso   1.00
H356   H     0.81289   0.91099   0.84309   0.00000  Uiso   1.00
H357   H     0.97654   0.99056   0.59260   0.00000  Uiso   1.00
H358   H     0.86960   0.23313   0.34681   0.00000  Uiso   1.00
H359   H     0.74877   0.84769   0.74011   0.00000  Uiso   1.00
O360   O     0.99830   0.10638   0.40177   0.00000  Uiso   1.00
O361   O     0.85800   0.42461   0.39126   0.00000  Uiso   1.00
O362   O     0.69948   0.91892   0.59529   0.00000  Uiso   1.00
N363   N     0.94921   0.18676   0.46280   0.00000  Uiso   1.00
N364   N     0.84924   0.41355   0.16794   0.00000  Uiso   1.00
N365   N     0.73627   0.05321   0.60076   0.00000  Uiso   1.00
N366   N     0.96325   0.05099   0.56729   0.00000  Uiso   1.00
N367   N     0.86327   0.27778   0.27243   0.00000  Uiso   1.00
N368   N     0.75030   0.91743   0.70525   0.00000  Uiso   1.00
