data_job_03448
_audit_creation_date              2018-12-19
_audit_creation_method            'Materials Studio'
_symmetry_space_group_name_H-M    'P1'
_symmetry_Int_Tables_number       1
_symmetry_cell_setting            triclinic
loop_
_symmetry_equiv_pos_as_xyz
  x,y,z
_cell_length_a                    11.0972
_cell_length_b                    22.6176
_cell_length_c                    12.3160
_cell_angle_alpha                 90.0000
_cell_angle_beta                  90.0000
_cell_angle_gamma                 90.0000
loop_
_atom_site_label
_atom_site_type_symbol
_atom_site_fract_x
_atom_site_fract_y
_atom_site_fract_z
_atom_site_U_iso_or_equiv
_atom_site_adp_type
_atom_site_occupancy
C1     C     0.05278   0.59391   0.39897   0.00000  Uiso   1.00
C2     C     0.94924   0.61170   0.47354   0.00000  Uiso   1.00
C3     C     0.95854   0.64784   0.56421   0.00000  Uiso   1.00
C4     C     0.85331   0.65883   0.62175   0.00000  Uiso   1.00
C5     C     0.70936   0.69013   0.74245   0.00000  Uiso   1.00
C6     C     0.05412   0.52649   0.39793   0.00000  Uiso   1.00
C7     C     0.15160   0.49100   0.42502   0.00000  Uiso   1.00
C8     C     0.13466   0.43026   0.41891   0.00000  Uiso   1.00
C9     C     0.15355   0.32928   0.42214   0.00000  Uiso   1.00
C10    C     0.01560   0.61288   0.28498   0.00000  Uiso   1.00
C11    C     0.08070   0.65000   0.21708   0.00000  Uiso   1.00
C12    C     0.03134   0.66198   0.11586   0.00000  Uiso   1.00
C13    C     0.99042   0.69512   0.94372   0.00000  Uiso   1.00
C14    C     0.84938   0.54917   0.33991   0.00000  Uiso   1.00
C15    C     0.83876   0.58740   0.44146   0.00000  Uiso   1.00
C16    C     0.73350   0.59834   0.49887   0.00000  Uiso   1.00
C17    C     0.74263   0.63450   0.58962   0.00000  Uiso   1.00
C18    C     0.94364   0.50219   0.36586   0.00000  Uiso   1.00
C19    C     0.92656   0.44150   0.35969   0.00000  Uiso   1.00
C20    C     0.02398   0.40592   0.38677   0.00000  Uiso   1.00
C21    C     0.90511   0.58858   0.25290   0.00000  Uiso   1.00
C22    C     0.85565   0.60050   0.15175   0.00000  Uiso   1.00
C23    C     0.92066   0.63764   0.08372   0.00000  Uiso   1.00
H24    H     0.13880   0.61282   0.42394   0.00000  Uiso   1.00
H25    H     0.04406   0.66663   0.58901   0.00000  Uiso   1.00
H26    H     0.23708   0.50981   0.44983   0.00000  Uiso   1.00
H27    H     0.16619   0.66879   0.24193   0.00000  Uiso   1.00
H28    H     0.89030   0.71555   0.75790   0.00000  Uiso   1.00
H29    H     0.29733   0.38489   0.46440   0.00000  Uiso   1.00
H30    H     0.14784   0.72013   0.02600   0.00000  Uiso   1.00
H31    H     0.76336   0.53026   0.31494   0.00000  Uiso   1.00
H32    H     0.64801   0.57953   0.47403   0.00000  Uiso   1.00
H33    H     0.84105   0.42271   0.33486   0.00000  Uiso   1.00
H34    H     0.77015   0.58169   0.12696   0.00000  Uiso   1.00
H35    H     0.56886   0.64486   0.66459   0.00000  Uiso   1.00
H36    H     0.97590   0.31420   0.37108   0.00000  Uiso   1.00
H37    H     0.82640   0.64944   0.93268   0.00000  Uiso   1.00
O38    O     0.66048   0.71409   0.81789   0.00000  Uiso   1.00
O39    O     0.19450   0.28029   0.43280   0.00000  Uiso   1.00
O40    O     0.99836   0.72011   0.85764   0.00000  Uiso   1.00
N41    N     0.83048   0.69216   0.71410   0.00000  Uiso   1.00
N42    N     0.21102   0.38301   0.43971   0.00000  Uiso   1.00
N43    N     0.07127   0.69642   0.02983   0.00000  Uiso   1.00
N44    N     0.65751   0.65412   0.66388   0.00000  Uiso   1.00
N45    N     0.03805   0.34498   0.38949   0.00000  Uiso   1.00
N46    N     0.89831   0.65838   0.97961   0.00000  Uiso   1.00
C47    C     0.44722   0.40609   0.89897   0.00000  Uiso   1.00
C48    C     0.55076   0.38830   0.97354   0.00000  Uiso   1.00
C49    C     0.54146   0.35216   0.06421   0.00000  Uiso   1.00
C50    C     0.64669   0.34117   0.12175   0.00000  Uiso   1.00
C51    C     0.79064   0.30987   0.24245   0.00000  Uiso   1.00
C52    C     0.44588   0.47351   0.89793   0.00000  Uiso   1.00
C53    C     0.34840   0.50900   0.92502   0.00000  Uiso   1.00
C54    C     0.36534   0.56974   0.91891   0.00000  Uiso   1.00
C55    C     0.34645   0.67072   0.92214   0.00000  Uiso   1.00
C56    C     0.48440   0.38712   0.78498   0.00000  Uiso   1.00
C57    C     0.41930   0.35000   0.71708   0.00000  Uiso   1.00
C58    C     0.46866   0.33802   0.61586   0.00000  Uiso   1.00
C59    C     0.50958   0.30488   0.44372   0.00000  Uiso   1.00
C60    C     0.65062   0.45083   0.83991   0.00000  Uiso   1.00
C61    C     0.66124   0.41260   0.94146   0.00000  Uiso   1.00
C62    C     0.76650   0.40166   0.99887   0.00000  Uiso   1.00
C63    C     0.75737   0.36550   0.08962   0.00000  Uiso   1.00
C64    C     0.55636   0.49781   0.86586   0.00000  Uiso   1.00
C65    C     0.57344   0.55850   0.85969   0.00000  Uiso   1.00
C66    C     0.47602   0.59408   0.88677   0.00000  Uiso   1.00
C67    C     0.59489   0.41142   0.75290   0.00000  Uiso   1.00
C68    C     0.64435   0.39950   0.65175   0.00000  Uiso   1.00
C69    C     0.57934   0.36236   0.58372   0.00000  Uiso   1.00
H70    H     0.36120   0.38718   0.92394   0.00000  Uiso   1.00
H71    H     0.45594   0.33337   0.08901   0.00000  Uiso   1.00
H72    H     0.26292   0.49019   0.94983   0.00000  Uiso   1.00
H73    H     0.33381   0.33121   0.74193   0.00000  Uiso   1.00
H74    H     0.60970   0.28445   0.25790   0.00000  Uiso   1.00
H75    H     0.20267   0.61511   0.96440   0.00000  Uiso   1.00
H76    H     0.35216   0.27987   0.52600   0.00000  Uiso   1.00
H77    H     0.73664   0.46974   0.81494   0.00000  Uiso   1.00
H78    H     0.85199   0.42047   0.97403   0.00000  Uiso   1.00
H79    H     0.65895   0.57729   0.83486   0.00000  Uiso   1.00
H80    H     0.72985   0.41831   0.62696   0.00000  Uiso   1.00
H81    H     0.93114   0.35514   0.16459   0.00000  Uiso   1.00
H82    H     0.52410   0.68580   0.87108   0.00000  Uiso   1.00
H83    H     0.67360   0.35056   0.43268   0.00000  Uiso   1.00
O84    O     0.83952   0.28591   0.31789   0.00000  Uiso   1.00
O85    O     0.30550   0.71971   0.93280   0.00000  Uiso   1.00
O86    O     0.50164   0.27989   0.35764   0.00000  Uiso   1.00
N87    N     0.66952   0.30784   0.21410   0.00000  Uiso   1.00
N88    N     0.28898   0.61699   0.93971   0.00000  Uiso   1.00
N89    N     0.42873   0.30358   0.52983   0.00000  Uiso   1.00
N90    N     0.84249   0.34588   0.16388   0.00000  Uiso   1.00
N91    N     0.46195   0.65502   0.88949   0.00000  Uiso   1.00
N92    N     0.60169   0.34162   0.47961   0.00000  Uiso   1.00
C93    C     0.94722   0.09391   0.10103   0.00000  Uiso   1.00
C94    C     0.05076   0.11170   0.02646   0.00000  Uiso   1.00
C95    C     0.04146   0.14784   0.93579   0.00000  Uiso   1.00
C96    C     0.14669   0.15883   0.87825   0.00000  Uiso   1.00
C97    C     0.29064   0.19013   0.75755   0.00000  Uiso   1.00
C98    C     0.94588   0.02649   0.10207   0.00000  Uiso   1.00
C99    C     0.84840   0.99100   0.07498   0.00000  Uiso   1.00
C100   C     0.86534   0.93026   0.08109   0.00000  Uiso   1.00
C101   C     0.84645   0.82928   0.07786   0.00000  Uiso   1.00
C102   C     0.98440   0.11288   0.21502   0.00000  Uiso   1.00
C103   C     0.91930   0.15000   0.28292   0.00000  Uiso   1.00
C104   C     0.96866   0.16198   0.38414   0.00000  Uiso   1.00
C105   C     0.00958   0.19512   0.55628   0.00000  Uiso   1.00
C106   C     0.15062   0.04917   0.16009   0.00000  Uiso   1.00
C107   C     0.16124   0.08740   0.05854   0.00000  Uiso   1.00
C108   C     0.26650   0.09834   0.00113   0.00000  Uiso   1.00
C109   C     0.25737   0.13450   0.91038   0.00000  Uiso   1.00
C110   C     0.05636   0.00219   0.13414   0.00000  Uiso   1.00
C111   C     0.07344   0.94150   0.14031   0.00000  Uiso   1.00
C112   C     0.97602   0.90592   0.11323   0.00000  Uiso   1.00
C113   C     0.09489   0.08858   0.24710   0.00000  Uiso   1.00
C114   C     0.14435   0.10050   0.34825   0.00000  Uiso   1.00
C115   C     0.07934   0.13764   0.41628   0.00000  Uiso   1.00
H116   H     0.86120   0.11282   0.07606   0.00000  Uiso   1.00
H117   H     0.95594   0.16663   0.91099   0.00000  Uiso   1.00
H118   H     0.76292   0.00981   0.05017   0.00000  Uiso   1.00
H119   H     0.83381   0.16879   0.25807   0.00000  Uiso   1.00
H120   H     0.10970   0.21555   0.74210   0.00000  Uiso   1.00
H121   H     0.70267   0.88489   0.03560   0.00000  Uiso   1.00
H122   H     0.85216   0.22013   0.47400   0.00000  Uiso   1.00
H123   H     0.23664   0.03026   0.18506   0.00000  Uiso   1.00
H124   H     0.35199   0.07953   0.02597   0.00000  Uiso   1.00
H125   H     0.15895   0.92271   0.16514   0.00000  Uiso   1.00
H126   H     0.22985   0.08169   0.37304   0.00000  Uiso   1.00
H127   H     0.43114   0.14486   0.83541   0.00000  Uiso   1.00
H128   H     0.02410   0.81420   0.12892   0.00000  Uiso   1.00
H129   H     0.17360   0.14944   0.56732   0.00000  Uiso   1.00
O130   O     0.33952   0.21409   0.68211   0.00000  Uiso   1.00
O131   O     0.80550   0.78029   0.06720   0.00000  Uiso   1.00
O132   O     0.00164   0.22011   0.64236   0.00000  Uiso   1.00
N133   N     0.16952   0.19216   0.78590   0.00000  Uiso   1.00
N134   N     0.78898   0.88301   0.06029   0.00000  Uiso   1.00
N135   N     0.92873   0.19642   0.47017   0.00000  Uiso   1.00
N136   N     0.34249   0.15412   0.83612   0.00000  Uiso   1.00
N137   N     0.96195   0.84498   0.11051   0.00000  Uiso   1.00
N138   N     0.10169   0.15838   0.52039   0.00000  Uiso   1.00
C139   C     0.55278   0.90609   0.60103   0.00000  Uiso   1.00
C140   C     0.44924   0.88830   0.52646   0.00000  Uiso   1.00
C141   C     0.45854   0.85216   0.43579   0.00000  Uiso   1.00
C142   C     0.35331   0.84117   0.37825   0.00000  Uiso   1.00
C143   C     0.20936   0.80987   0.25755   0.00000  Uiso   1.00
C144   C     0.55412   0.97351   0.60207   0.00000  Uiso   1.00
C145   C     0.65160   0.00900   0.57498   0.00000  Uiso   1.00
C146   C     0.63466   0.06974   0.58109   0.00000  Uiso   1.00
C147   C     0.65355   0.17072   0.57786   0.00000  Uiso   1.00
C148   C     0.51560   0.88712   0.71502   0.00000  Uiso   1.00
C149   C     0.58070   0.85000   0.78292   0.00000  Uiso   1.00
C150   C     0.53134   0.83802   0.88414   0.00000  Uiso   1.00
C151   C     0.49042   0.80488   0.05628   0.00000  Uiso   1.00
C152   C     0.34938   0.95083   0.66009   0.00000  Uiso   1.00
C153   C     0.33876   0.91260   0.55854   0.00000  Uiso   1.00
C154   C     0.23350   0.90166   0.50113   0.00000  Uiso   1.00
C155   C     0.24263   0.86550   0.41038   0.00000  Uiso   1.00
C156   C     0.44364   0.99781   0.63414   0.00000  Uiso   1.00
C157   C     0.42656   0.05850   0.64031   0.00000  Uiso   1.00
C158   C     0.52398   0.09408   0.61323   0.00000  Uiso   1.00
C159   C     0.40511   0.91142   0.74710   0.00000  Uiso   1.00
C160   C     0.35565   0.89950   0.84825   0.00000  Uiso   1.00
C161   C     0.42066   0.86236   0.91628   0.00000  Uiso   1.00
H162   H     0.63880   0.88718   0.57606   0.00000  Uiso   1.00
H163   H     0.54406   0.83337   0.41099   0.00000  Uiso   1.00
H164   H     0.73708   0.99019   0.55017   0.00000  Uiso   1.00
H165   H     0.66619   0.83121   0.75807   0.00000  Uiso   1.00
H166   H     0.39030   0.78445   0.24210   0.00000  Uiso   1.00
H167   H     0.79733   0.11511   0.53560   0.00000  Uiso   1.00
H168   H     0.64784   0.77987   0.97400   0.00000  Uiso   1.00
H169   H     0.26336   0.96974   0.68506   0.00000  Uiso   1.00
H170   H     0.14801   0.92047   0.52597   0.00000  Uiso   1.00
H171   H     0.34105   0.07729   0.66514   0.00000  Uiso   1.00
H172   H     0.27015   0.91831   0.87304   0.00000  Uiso   1.00
H173   H     0.06886   0.85514   0.33541   0.00000  Uiso   1.00
H174   H     0.47590   0.18580   0.62892   0.00000  Uiso   1.00
H175   H     0.32640   0.85056   0.06732   0.00000  Uiso   1.00
O176   O     0.16048   0.78591   0.18211   0.00000  Uiso   1.00
O177   O     0.69450   0.21971   0.56720   0.00000  Uiso   1.00
O178   O     0.49836   0.77989   0.14236   0.00000  Uiso   1.00
N179   N     0.33048   0.80784   0.28590   0.00000  Uiso   1.00
N180   N     0.71102   0.11699   0.56029   0.00000  Uiso   1.00
N181   N     0.57127   0.80358   0.97017   0.00000  Uiso   1.00
N182   N     0.15751   0.84588   0.33612   0.00000  Uiso   1.00
N183   N     0.53805   0.15502   0.61051   0.00000  Uiso   1.00
N184   N     0.39831   0.84162   0.02039   0.00000  Uiso   1.00
