data_job_02676
_audit_creation_date              2018-12-19
_audit_creation_method            'Materials Studio'
_symmetry_space_group_name_H-M    'P1'
_symmetry_Int_Tables_number       1
_symmetry_cell_setting            triclinic
loop_
_symmetry_equiv_pos_as_xyz
  x,y,z
_cell_length_a                    16.1977
_cell_length_b                    16.1977
_cell_length_c                    17.1787
_cell_angle_alpha                 90.0000
_cell_angle_beta                  90.0000
_cell_angle_gamma                 120.0000
loop_
_atom_site_label
_atom_site_type_symbol
_atom_site_fract_x
_atom_site_fract_y
_atom_site_fract_z
_atom_site_U_iso_or_equiv
_atom_site_adp_type
_atom_site_occupancy
C1     C     0.72634   0.43965   0.13719   0.00000  Uiso   1.00
C2     C     0.63053   0.42861   0.11372   0.00000  Uiso   1.00
C3     C     0.55162   0.34501   0.08839   0.00000  Uiso   1.00
C4     C     0.47066   0.34966   0.06967   0.00000  Uiso   1.00
C5     C     0.32219   0.31957   0.03222   0.00000  Uiso   1.00
C6     C     0.80075   0.51883   0.08599   0.00000  Uiso   1.00
C7     C     0.86497   0.51109   0.03737   0.00000  Uiso   1.00
C8     C     0.92732   0.59169   0.99532   0.00000  Uiso   1.00
C9     C     0.04318   0.70170   0.91487   0.00000  Uiso   1.00
C10    C     0.74536   0.47903   0.21992   0.00000  Uiso   1.00
C11    C     0.76303   0.43784   0.28389   0.00000  Uiso   1.00
C12    C     0.77876   0.48495   0.35459   0.00000  Uiso   1.00
C13    C     0.80861   0.53315   0.48208   0.00000  Uiso   1.00
C14    C     0.72287   0.59657   0.14898   0.00000  Uiso   1.00
C15    C     0.62865   0.51385   0.12012   0.00000  Uiso   1.00
C16    C     0.54779   0.51863   0.10144   0.00000  Uiso   1.00
C17    C     0.46877   0.43505   0.07609   0.00000  Uiso   1.00
C18    C     0.79887   0.60407   0.09240   0.00000  Uiso   1.00
C19    C     0.86114   0.68471   0.05041   0.00000  Uiso   1.00
C20    C     0.92543   0.67708   0.00173   0.00000  Uiso   1.00
C21    C     0.74348   0.56427   0.22632   0.00000  Uiso   1.00
C22    C     0.75919   0.61145   0.29694   0.00000  Uiso   1.00
C23    C     0.77687   0.57034   0.36101   0.00000  Uiso   1.00
H24    H     0.72781   0.37329   0.13220   0.00000  Uiso   1.00
H25    H     0.55311   0.27906   0.08344   0.00000  Uiso   1.00
H26    H     0.86642   0.44512   0.03243   0.00000  Uiso   1.00
H27    H     0.76448   0.37188   0.27892   0.00000  Uiso   1.00
H28    H     0.35860   0.21219   0.03217   0.00000  Uiso   1.00
H29    H     0.01926   0.56234   0.92464   0.00000  Uiso   1.00
H30    H     0.80431   0.40790   0.44441   0.00000  Uiso   1.00
H31    H     0.72141   0.66294   0.15396   0.00000  Uiso   1.00
H32    H     0.54635   0.58460   0.10640   0.00000  Uiso   1.00
H33    H     0.85967   0.75066   0.05539   0.00000  Uiso   1.00
H34    H     0.75773   0.67741   0.30187   0.00000  Uiso   1.00
H35    H     0.35312   0.46018   0.05080   0.00000  Uiso   1.00
H36    H     0.01378   0.81033   0.94327   0.00000  Uiso   1.00
H37    H     0.79883   0.65588   0.46304   0.00000  Uiso   1.00
O38    O     0.24083   0.27943   0.00978   0.00000  Uiso   1.00
O39    O     0.10759   0.73882   0.86872   0.00000  Uiso   1.00
O40    O     0.82558   0.53619   0.55063   0.00000  Uiso   1.00
N41    N     0.38133   0.28130   0.04310   0.00000  Uiso   1.00
N42    N     0.99899   0.60866   0.94255   0.00000  Uiso   1.00
N43    N     0.79806   0.46428   0.42849   0.00000  Uiso   1.00
N44    N     0.37838   0.41474   0.05313   0.00000  Uiso   1.00
N45    N     0.99604   0.74210   0.95258   0.00000  Uiso   1.00
N46    N     0.79511   0.59772   0.43851   0.00000  Uiso   1.00
C47    C     0.56035   0.28669   0.47052   0.00000  Uiso   1.00
C48    C     0.57139   0.20192   0.44705   0.00000  Uiso   1.00
C49    C     0.65499   0.20661   0.42173   0.00000  Uiso   1.00
C50    C     0.65034   0.12100   0.40300   0.00000  Uiso   1.00
C51    C     0.68043   0.00262   0.36555   0.00000  Uiso   1.00
C52    C     0.48117   0.28192   0.41933   0.00000  Uiso   1.00
C53    C     0.48891   0.35389   0.37070   0.00000  Uiso   1.00
C54    C     0.40831   0.33562   0.32865   0.00000  Uiso   1.00
C55    C     0.29830   0.34148   0.24820   0.00000  Uiso   1.00
C56    C     0.52097   0.26633   0.55325   0.00000  Uiso   1.00
C57    C     0.56216   0.32519   0.61723   0.00000  Uiso   1.00
C58    C     0.51505   0.29381   0.68793   0.00000  Uiso   1.00
C59    C     0.46685   0.27546   0.81541   0.00000  Uiso   1.00
C60    C     0.40343   0.12630   0.48231   0.00000  Uiso   1.00
C61    C     0.48615   0.11480   0.45345   0.00000  Uiso   1.00
C62    C     0.48137   0.02916   0.43477   0.00000  Uiso   1.00
C63    C     0.56495   0.03372   0.40942   0.00000  Uiso   1.00
C64    C     0.39593   0.19481   0.42573   0.00000  Uiso   1.00
C65    C     0.31529   0.17643   0.38375   0.00000  Uiso   1.00
C66    C     0.32292   0.24835   0.33506   0.00000  Uiso   1.00
C67    C     0.43573   0.17921   0.55966   0.00000  Uiso   1.00
C68    C     0.38855   0.14774   0.63027   0.00000  Uiso   1.00
C69    C     0.42966   0.20654   0.69434   0.00000  Uiso   1.00
H70    H     0.62671   0.35452   0.46553   0.00000  Uiso   1.00
H71    H     0.72094   0.27404   0.41677   0.00000  Uiso   1.00
H72    H     0.55488   0.42130   0.36576   0.00000  Uiso   1.00
H73    H     0.62812   0.39260   0.61225   0.00000  Uiso   1.00
H74    H     0.78781   0.14641   0.36551   0.00000  Uiso   1.00
H75    H     0.43766   0.45692   0.25797   0.00000  Uiso   1.00
H76    H     0.59210   0.39641   0.77774   0.00000  Uiso   1.00
H77    H     0.33706   0.05848   0.48729   0.00000  Uiso   1.00
H78    H     0.41540   0.96175   0.43973   0.00000  Uiso   1.00
H79    H     0.24934   0.10901   0.38872   0.00000  Uiso   1.00
H80    H     0.32259   0.08032   0.63520   0.00000  Uiso   1.00
H81    H     0.53982   0.89294   0.38414   0.00000  Uiso   1.00
H82    H     0.18967   0.20345   0.27661   0.00000  Uiso   1.00
H83    H     0.34412   0.14294   0.79637   0.00000  Uiso   1.00
O84    O     0.72057   0.96139   0.34311   0.00000  Uiso   1.00
O85    O     0.26118   0.36878   0.20205   0.00000  Uiso   1.00
O86    O     0.46381   0.28939   0.88397   0.00000  Uiso   1.00
N87    N     0.71870   0.10003   0.37643   0.00000  Uiso   1.00
N88    N     0.39134   0.39033   0.27589   0.00000  Uiso   1.00
N89    N     0.53572   0.33377   0.76182   0.00000  Uiso   1.00
N90    N     0.58526   0.96364   0.38646   0.00000  Uiso   1.00
N91    N     0.25790   0.25394   0.28591   0.00000  Uiso   1.00
N92    N     0.40228   0.19739   0.77185   0.00000  Uiso   1.00
C93    C     0.71331   0.27366   0.80385   0.00000  Uiso   1.00
C94    C     0.79808   0.36947   0.78039   0.00000  Uiso   1.00
C95    C     0.79339   0.44838   0.75506   0.00000  Uiso   1.00
C96    C     0.87900   0.52934   0.73634   0.00000  Uiso   1.00
C97    C     0.99738   0.67781   0.69888   0.00000  Uiso   1.00
C98    C     0.71808   0.19925   0.75266   0.00000  Uiso   1.00
C99    C     0.64611   0.13503   0.70403   0.00000  Uiso   1.00
C100   C     0.66438   0.07268   0.66198   0.00000  Uiso   1.00
C101   C     0.65852   0.95682   0.58153   0.00000  Uiso   1.00
C102   C     0.73367   0.25464   0.88658   0.00000  Uiso   1.00
C103   C     0.67481   0.23697   0.95056   0.00000  Uiso   1.00
C104   C     0.70619   0.22124   0.02126   0.00000  Uiso   1.00
C105   C     0.72454   0.19139   0.14875   0.00000  Uiso   1.00
C106   C     0.87370   0.27713   0.81564   0.00000  Uiso   1.00
C107   C     0.88520   0.37135   0.78679   0.00000  Uiso   1.00
C108   C     0.97084   0.45221   0.76810   0.00000  Uiso   1.00
C109   C     0.96628   0.53123   0.74275   0.00000  Uiso   1.00
C110   C     0.80519   0.20113   0.75906   0.00000  Uiso   1.00
C111   C     0.82357   0.13886   0.71708   0.00000  Uiso   1.00
C112   C     0.75165   0.07457   0.66840   0.00000  Uiso   1.00
C113   C     0.82079   0.25652   0.89299   0.00000  Uiso   1.00
C114   C     0.85226   0.24081   0.96360   0.00000  Uiso   1.00
C115   C     0.79346   0.22313   0.02768   0.00000  Uiso   1.00
H116   H     0.64548   0.27219   0.79887   0.00000  Uiso   1.00
H117   H     0.72596   0.44689   0.75010   0.00000  Uiso   1.00
H118   H     0.57870   0.13358   0.69910   0.00000  Uiso   1.00
H119   H     0.60740   0.23552   0.94558   0.00000  Uiso   1.00
H120   H     0.85359   0.64140   0.69884   0.00000  Uiso   1.00
H121   H     0.54308   0.98074   0.59131   0.00000  Uiso   1.00
H122   H     0.60359   0.19569   0.11107   0.00000  Uiso   1.00
H123   H     0.94152   0.27859   0.82063   0.00000  Uiso   1.00
H124   H     0.03825   0.45365   0.77306   0.00000  Uiso   1.00
H125   H     0.89099   0.14033   0.72205   0.00000  Uiso   1.00
H126   H     0.91968   0.24227   0.96854   0.00000  Uiso   1.00
H127   H     0.10706   0.64688   0.71747   0.00000  Uiso   1.00
H128   H     0.79655   0.98622   0.60994   0.00000  Uiso   1.00
H129   H     0.85706   0.20117   0.12970   0.00000  Uiso   1.00
O130   O     0.03861   0.75917   0.67645   0.00000  Uiso   1.00
O131   O     0.63122   0.89241   0.53538   0.00000  Uiso   1.00
O132   O     0.71061   0.17442   0.21730   0.00000  Uiso   1.00
N133   N     0.89997   0.61867   0.70977   0.00000  Uiso   1.00
N134   N     0.60967   0.00101   0.60922   0.00000  Uiso   1.00
N135   N     0.66623   0.20194   0.09515   0.00000  Uiso   1.00
N136   N     0.03636   0.62162   0.71979   0.00000  Uiso   1.00
N137   N     0.74606   0.00396   0.61925   0.00000  Uiso   1.00
N138   N     0.80261   0.20489   0.10518   0.00000  Uiso   1.00
C139   C     0.27366   0.56035   0.63719   0.00000  Uiso   1.00
C140   C     0.36947   0.57139   0.61372   0.00000  Uiso   1.00
C141   C     0.44838   0.65499   0.58839   0.00000  Uiso   1.00
C142   C     0.52934   0.65034   0.56967   0.00000  Uiso   1.00
C143   C     0.67781   0.68043   0.53222   0.00000  Uiso   1.00
C144   C     0.19925   0.48117   0.58599   0.00000  Uiso   1.00
C145   C     0.13503   0.48891   0.53737   0.00000  Uiso   1.00
C146   C     0.07268   0.40831   0.49532   0.00000  Uiso   1.00
C147   C     0.95682   0.29830   0.41487   0.00000  Uiso   1.00
C148   C     0.25464   0.52097   0.71992   0.00000  Uiso   1.00
C149   C     0.23697   0.56216   0.78389   0.00000  Uiso   1.00
C150   C     0.22124   0.51505   0.85459   0.00000  Uiso   1.00
C151   C     0.19139   0.46685   0.98208   0.00000  Uiso   1.00
C152   C     0.27713   0.40343   0.64898   0.00000  Uiso   1.00
C153   C     0.37135   0.48615   0.62012   0.00000  Uiso   1.00
C154   C     0.45221   0.48137   0.60144   0.00000  Uiso   1.00
C155   C     0.53123   0.56495   0.57609   0.00000  Uiso   1.00
C156   C     0.20113   0.39593   0.59240   0.00000  Uiso   1.00
C157   C     0.13886   0.31529   0.55041   0.00000  Uiso   1.00
C158   C     0.07457   0.32292   0.50173   0.00000  Uiso   1.00
C159   C     0.25652   0.43573   0.72632   0.00000  Uiso   1.00
C160   C     0.24081   0.38855   0.79694   0.00000  Uiso   1.00
C161   C     0.22313   0.42966   0.86101   0.00000  Uiso   1.00
H162   H     0.27219   0.62671   0.63220   0.00000  Uiso   1.00
H163   H     0.44689   0.72094   0.58344   0.00000  Uiso   1.00
H164   H     0.13358   0.55488   0.53243   0.00000  Uiso   1.00
H165   H     0.23552   0.62812   0.77892   0.00000  Uiso   1.00
H166   H     0.64140   0.78781   0.53217   0.00000  Uiso   1.00
H167   H     0.98074   0.43766   0.42464   0.00000  Uiso   1.00
H168   H     0.19569   0.59210   0.94441   0.00000  Uiso   1.00
H169   H     0.27859   0.33706   0.65396   0.00000  Uiso   1.00
H170   H     0.45365   0.41540   0.60640   0.00000  Uiso   1.00
H171   H     0.14033   0.24934   0.55539   0.00000  Uiso   1.00
H172   H     0.24227   0.32259   0.80187   0.00000  Uiso   1.00
H173   H     0.64688   0.53982   0.55080   0.00000  Uiso   1.00
H174   H     0.98622   0.18967   0.44327   0.00000  Uiso   1.00
H175   H     0.20117   0.34412   0.96304   0.00000  Uiso   1.00
O176   O     0.75917   0.72057   0.50978   0.00000  Uiso   1.00
O177   O     0.89241   0.26118   0.36872   0.00000  Uiso   1.00
O178   O     0.17442   0.46381   0.05063   0.00000  Uiso   1.00
N179   N     0.61867   0.71870   0.54310   0.00000  Uiso   1.00
N180   N     0.00101   0.39134   0.44255   0.00000  Uiso   1.00
N181   N     0.20194   0.53572   0.92849   0.00000  Uiso   1.00
N182   N     0.62162   0.58526   0.55313   0.00000  Uiso   1.00
N183   N     0.00396   0.25790   0.45258   0.00000  Uiso   1.00
N184   N     0.20489   0.40228   0.93851   0.00000  Uiso   1.00
C185   C     0.43965   0.71331   0.97052   0.00000  Uiso   1.00
C186   C     0.42861   0.79808   0.94705   0.00000  Uiso   1.00
C187   C     0.34501   0.79339   0.92173   0.00000  Uiso   1.00
C188   C     0.34966   0.87900   0.90300   0.00000  Uiso   1.00
C189   C     0.31957   0.99738   0.86555   0.00000  Uiso   1.00
C190   C     0.51883   0.71808   0.91933   0.00000  Uiso   1.00
C191   C     0.51109   0.64611   0.87070   0.00000  Uiso   1.00
C192   C     0.59169   0.66438   0.82865   0.00000  Uiso   1.00
C193   C     0.70170   0.65852   0.74820   0.00000  Uiso   1.00
C194   C     0.47903   0.73367   0.05325   0.00000  Uiso   1.00
C195   C     0.43784   0.67481   0.11723   0.00000  Uiso   1.00
C196   C     0.48495   0.70619   0.18793   0.00000  Uiso   1.00
C197   C     0.53315   0.72454   0.31541   0.00000  Uiso   1.00
C198   C     0.59657   0.87370   0.98231   0.00000  Uiso   1.00
C199   C     0.51385   0.88520   0.95345   0.00000  Uiso   1.00
C200   C     0.51863   0.97084   0.93477   0.00000  Uiso   1.00
C201   C     0.43505   0.96628   0.90942   0.00000  Uiso   1.00
C202   C     0.60407   0.80519   0.92573   0.00000  Uiso   1.00
C203   C     0.68471   0.82357   0.88375   0.00000  Uiso   1.00
C204   C     0.67708   0.75165   0.83506   0.00000  Uiso   1.00
C205   C     0.56427   0.82079   0.05966   0.00000  Uiso   1.00
C206   C     0.61145   0.85226   0.13027   0.00000  Uiso   1.00
C207   C     0.57034   0.79346   0.19434   0.00000  Uiso   1.00
H208   H     0.37329   0.64548   0.96553   0.00000  Uiso   1.00
H209   H     0.27906   0.72596   0.91677   0.00000  Uiso   1.00
H210   H     0.44512   0.57870   0.86576   0.00000  Uiso   1.00
H211   H     0.37188   0.60740   0.11225   0.00000  Uiso   1.00
H212   H     0.21219   0.85359   0.86551   0.00000  Uiso   1.00
H213   H     0.56234   0.54308   0.75797   0.00000  Uiso   1.00
H214   H     0.40790   0.60359   0.27774   0.00000  Uiso   1.00
H215   H     0.66294   0.94152   0.98729   0.00000  Uiso   1.00
H216   H     0.58460   0.03825   0.93973   0.00000  Uiso   1.00
H217   H     0.75066   0.89099   0.88872   0.00000  Uiso   1.00
H218   H     0.67741   0.91968   0.13520   0.00000  Uiso   1.00
H219   H     0.46018   0.10706   0.88414   0.00000  Uiso   1.00
H220   H     0.81033   0.79655   0.77661   0.00000  Uiso   1.00
H221   H     0.65588   0.85706   0.29637   0.00000  Uiso   1.00
O222   O     0.27943   0.03861   0.84311   0.00000  Uiso   1.00
O223   O     0.73882   0.63122   0.70205   0.00000  Uiso   1.00
O224   O     0.53619   0.71061   0.38397   0.00000  Uiso   1.00
N225   N     0.28130   0.89997   0.87643   0.00000  Uiso   1.00
N226   N     0.60866   0.60967   0.77589   0.00000  Uiso   1.00
N227   N     0.46428   0.66623   0.26182   0.00000  Uiso   1.00
N228   N     0.41474   0.03636   0.88646   0.00000  Uiso   1.00
N229   N     0.74210   0.74606   0.78591   0.00000  Uiso   1.00
N230   N     0.59772   0.80261   0.27185   0.00000  Uiso   1.00
C231   C     0.28669   0.72634   0.30385   0.00000  Uiso   1.00
C232   C     0.20192   0.63053   0.28039   0.00000  Uiso   1.00
C233   C     0.20661   0.55162   0.25506   0.00000  Uiso   1.00
C234   C     0.12100   0.47066   0.23634   0.00000  Uiso   1.00
C235   C     0.00262   0.32219   0.19888   0.00000  Uiso   1.00
C236   C     0.28192   0.80075   0.25266   0.00000  Uiso   1.00
C237   C     0.35389   0.86497   0.20403   0.00000  Uiso   1.00
C238   C     0.33562   0.92732   0.16198   0.00000  Uiso   1.00
C239   C     0.34148   0.04318   0.08153   0.00000  Uiso   1.00
C240   C     0.26633   0.74536   0.38658   0.00000  Uiso   1.00
C241   C     0.32519   0.76303   0.45056   0.00000  Uiso   1.00
C242   C     0.29381   0.77876   0.52126   0.00000  Uiso   1.00
C243   C     0.27546   0.80861   0.64875   0.00000  Uiso   1.00
C244   C     0.12630   0.72287   0.31564   0.00000  Uiso   1.00
C245   C     0.11480   0.62865   0.28679   0.00000  Uiso   1.00
C246   C     0.02916   0.54779   0.26810   0.00000  Uiso   1.00
C247   C     0.03372   0.46877   0.24275   0.00000  Uiso   1.00
C248   C     0.19481   0.79887   0.25906   0.00000  Uiso   1.00
C249   C     0.17643   0.86114   0.21708   0.00000  Uiso   1.00
C250   C     0.24835   0.92543   0.16840   0.00000  Uiso   1.00
C251   C     0.17921   0.74348   0.39299   0.00000  Uiso   1.00
C252   C     0.14774   0.75919   0.46360   0.00000  Uiso   1.00
C253   C     0.20654   0.77687   0.52768   0.00000  Uiso   1.00
H254   H     0.35452   0.72781   0.29887   0.00000  Uiso   1.00
H255   H     0.27404   0.55311   0.25010   0.00000  Uiso   1.00
H256   H     0.42130   0.86642   0.19910   0.00000  Uiso   1.00
H257   H     0.39260   0.76448   0.44558   0.00000  Uiso   1.00
H258   H     0.14641   0.35860   0.19884   0.00000  Uiso   1.00
H259   H     0.45692   0.01926   0.09131   0.00000  Uiso   1.00
H260   H     0.39641   0.80431   0.61107   0.00000  Uiso   1.00
H261   H     0.05848   0.72141   0.32063   0.00000  Uiso   1.00
H262   H     0.96175   0.54635   0.27306   0.00000  Uiso   1.00
H263   H     0.10901   0.85967   0.22205   0.00000  Uiso   1.00
H264   H     0.08032   0.75773   0.46854   0.00000  Uiso   1.00
H265   H     0.89294   0.35312   0.21747   0.00000  Uiso   1.00
H266   H     0.20345   0.01378   0.10994   0.00000  Uiso   1.00
H267   H     0.14294   0.79883   0.62970   0.00000  Uiso   1.00
O268   O     0.96139   0.24083   0.17645   0.00000  Uiso   1.00
O269   O     0.36878   0.10759   0.03538   0.00000  Uiso   1.00
O270   O     0.28939   0.82558   0.71730   0.00000  Uiso   1.00
N271   N     0.10003   0.38133   0.20977   0.00000  Uiso   1.00
N272   N     0.39033   0.99899   0.10922   0.00000  Uiso   1.00
N273   N     0.33377   0.79806   0.59515   0.00000  Uiso   1.00
N274   N     0.96364   0.37838   0.21979   0.00000  Uiso   1.00
N275   N     0.25394   0.99604   0.11925   0.00000  Uiso   1.00
N276   N     0.19739   0.79511   0.60518   0.00000  Uiso   1.00
