data_job_03671
_audit_creation_date              2018-12-19
_audit_creation_method            'Materials Studio'
_symmetry_space_group_name_H-M    'P1'
_symmetry_Int_Tables_number       1
_symmetry_cell_setting            triclinic
loop_
_symmetry_equiv_pos_as_xyz
  x,y,z
_cell_length_a                    23.2995
_cell_length_b                    23.2995
_cell_length_c                    7.4709
_cell_angle_alpha                 90.0000
_cell_angle_beta                  90.0000
_cell_angle_gamma                 120.0000
loop_
_atom_site_label
_atom_site_type_symbol
_atom_site_fract_x
_atom_site_fract_y
_atom_site_fract_z
_atom_site_U_iso_or_equiv
_atom_site_adp_type
_atom_site_occupancy
C1     C     0.63254   0.80820   0.74025   0.00000  Uiso   1.00
C2     C     0.67161   0.85150   0.58202   0.00000  Uiso   1.00
C3     C     0.73374   0.90794   0.59106   0.00000  Uiso   1.00
C4     C     0.76114   0.94064   0.43122   0.00000  Uiso   1.00
C5     C     0.82690   0.01139   0.21033   0.00000  Uiso   1.00
C6     C     0.56595   0.80585   0.73823   0.00000  Uiso   1.00
C7     C     0.53924   0.82391   0.87862   0.00000  Uiso   1.00
C8     C     0.47769   0.81818   0.85028   0.00000  Uiso   1.00
C9     C     0.37939   0.81801   0.87196   0.00000  Uiso   1.00
C10    C     0.61768   0.73827   0.69495   0.00000  Uiso   1.00
C11    C     0.63446   0.69949   0.79898   0.00000  Uiso   1.00
C12    C     0.61645   0.63685   0.73422   0.00000  Uiso   1.00
C13    C     0.59848   0.53175   0.68870   0.00000  Uiso   1.00
C14    C     0.57071   0.76590   0.44032   0.00000  Uiso   1.00
C15    C     0.63803   0.82852   0.41911   0.00000  Uiso   1.00
C16    C     0.66534   0.86114   0.25921   0.00000  Uiso   1.00
C17    C     0.72750   0.91763   0.26801   0.00000  Uiso   1.00
C18    C     0.53237   0.78288   0.57533   0.00000  Uiso   1.00
C19    C     0.47084   0.77711   0.54678   0.00000  Uiso   1.00
C20    C     0.44405   0.79516   0.68708   0.00000  Uiso   1.00
C21    C     0.58410   0.71529   0.53204   0.00000  Uiso   1.00
C22    C     0.56606   0.65270   0.46712   0.00000  Uiso   1.00
C23    C     0.58281   0.61383   0.57102   0.00000  Uiso   1.00
H24    H     0.65868   0.82609   0.86708   0.00000  Uiso   1.00
H25    H     0.75971   0.92571   0.71716   0.00000  Uiso   1.00
H26    H     0.56524   0.84168   0.00468   0.00000  Uiso   1.00
H27    H     0.66044   0.71729   0.92504   0.00000  Uiso   1.00
H28    H     0.85690   0.02604   0.47911   0.00000  Uiso   1.00
H29    H     0.44684   0.84884   0.08538   0.00000  Uiso   1.00
H30    H     0.64759   0.58653   0.91745   0.00000  Uiso   1.00
H31    H     0.54457   0.74801   0.31348   0.00000  Uiso   1.00
H32    H     0.63934   0.84335   0.13316   0.00000  Uiso   1.00
H33    H     0.44487   0.75933   0.42069   0.00000  Uiso   1.00
H34    H     0.54007   0.63493   0.34105   0.00000  Uiso   1.00
H35    H     0.75920   0.95920   0.00511   0.00000  Uiso   1.00
H36    H     0.34914   0.78200   0.61140   0.00000  Uiso   1.00
H37    H     0.54990   0.51969   0.44346   0.00000  Uiso   1.00
O38    O     0.87245   0.05676   0.13349   0.00000  Uiso   1.00
O39    O     0.33445   0.82427   0.92892   0.00000  Uiso   1.00
O40    O     0.59785   0.48013   0.70859   0.00000  Uiso   1.00
N41    N     0.82091   0.99722   0.39229   0.00000  Uiso   1.00
N42    N     0.43753   0.83156   0.95911   0.00000  Uiso   1.00
N43    N     0.62520   0.58631   0.80213   0.00000  Uiso   1.00
N44    N     0.76834   0.96125   0.13724   0.00000  Uiso   1.00
N45    N     0.38496   0.79559   0.70406   0.00000  Uiso   1.00
N46    N     0.57263   0.55034   0.54708   0.00000  Uiso   1.00
C47    C     0.19180   0.82434   0.74025   0.00000  Uiso   1.00
C48    C     0.14850   0.82011   0.58202   0.00000  Uiso   1.00
C49    C     0.09206   0.82580   0.59106   0.00000  Uiso   1.00
C50    C     0.05936   0.82050   0.43122   0.00000  Uiso   1.00
C51    C     0.98861   0.81551   0.21033   0.00000  Uiso   1.00
C52    C     0.19415   0.76010   0.73823   0.00000  Uiso   1.00
C53    C     0.17609   0.71533   0.87862   0.00000  Uiso   1.00
C54    C     0.18182   0.65951   0.85028   0.00000  Uiso   1.00
C55    C     0.18199   0.56138   0.87196   0.00000  Uiso   1.00
C56    C     0.26173   0.87942   0.69495   0.00000  Uiso   1.00
C57    C     0.30051   0.93497   0.79898   0.00000  Uiso   1.00
C58    C     0.36315   0.97960   0.73422   0.00000  Uiso   1.00
C59    C     0.46825   0.06673   0.68870   0.00000  Uiso   1.00
C60    C     0.23410   0.80481   0.44032   0.00000  Uiso   1.00
C61    C     0.17148   0.80950   0.41911   0.00000  Uiso   1.00
C62    C     0.13886   0.80420   0.25921   0.00000  Uiso   1.00
C63    C     0.08237   0.80987   0.26801   0.00000  Uiso   1.00
C64    C     0.21712   0.74949   0.57533   0.00000  Uiso   1.00
C65    C     0.22289   0.69373   0.54678   0.00000  Uiso   1.00
C66    C     0.20484   0.64889   0.68708   0.00000  Uiso   1.00
C67    C     0.28471   0.86881   0.53204   0.00000  Uiso   1.00
C68    C     0.34730   0.91336   0.46712   0.00000  Uiso   1.00
C69    C     0.38617   0.96897   0.57102   0.00000  Uiso   1.00
H70    H     0.17391   0.83259   0.86708   0.00000  Uiso   1.00
H71    H     0.07429   0.83400   0.71716   0.00000  Uiso   1.00
H72    H     0.15832   0.72356   0.00468   0.00000  Uiso   1.00
H73    H     0.28271   0.94316   0.92504   0.00000  Uiso   1.00
H74    H     0.97396   0.83086   0.47911   0.00000  Uiso   1.00
H75    H     0.15116   0.59799   0.08538   0.00000  Uiso   1.00
H76    H     0.41347   0.06106   0.91745   0.00000  Uiso   1.00
H77    H     0.25199   0.79655   0.31348   0.00000  Uiso   1.00
H78    H     0.15665   0.79599   0.13316   0.00000  Uiso   1.00
H79    H     0.24067   0.68554   0.42069   0.00000  Uiso   1.00
H80    H     0.36507   0.90514   0.34105   0.00000  Uiso   1.00
H81    H     0.04080   0.80000   0.00511   0.00000  Uiso   1.00
H82    H     0.21800   0.56714   0.61140   0.00000  Uiso   1.00
H83    H     0.48031   0.03021   0.44346   0.00000  Uiso   1.00
O84    O     0.94324   0.81569   0.13349   0.00000  Uiso   1.00
O85    O     0.17573   0.51018   0.92892   0.00000  Uiso   1.00
O86    O     0.51987   0.11772   0.70859   0.00000  Uiso   1.00
N87    N     0.00278   0.82369   0.39229   0.00000  Uiso   1.00
N88    N     0.16844   0.60597   0.95911   0.00000  Uiso   1.00
N89    N     0.41369   0.03889   0.80213   0.00000  Uiso   1.00
N90    N     0.03875   0.80709   0.13724   0.00000  Uiso   1.00
N91    N     0.20441   0.58936   0.70406   0.00000  Uiso   1.00
N92    N     0.44966   0.02229   0.54708   0.00000  Uiso   1.00
C93    C     0.17566   0.36746   0.74025   0.00000  Uiso   1.00
C94    C     0.17989   0.32839   0.58202   0.00000  Uiso   1.00
C95    C     0.17420   0.26626   0.59106   0.00000  Uiso   1.00
C96    C     0.17950   0.23886   0.43122   0.00000  Uiso   1.00
C97    C     0.18449   0.17310   0.21033   0.00000  Uiso   1.00
C98    C     0.23990   0.43405   0.73823   0.00000  Uiso   1.00
C99    C     0.28467   0.46076   0.87862   0.00000  Uiso   1.00
C100   C     0.34049   0.52231   0.85028   0.00000  Uiso   1.00
C101   C     0.43862   0.62061   0.87196   0.00000  Uiso   1.00
C102   C     0.12058   0.38232   0.69495   0.00000  Uiso   1.00
C103   C     0.06503   0.36554   0.79898   0.00000  Uiso   1.00
C104   C     0.02040   0.38355   0.73422   0.00000  Uiso   1.00
C105   C     0.93327   0.40152   0.68870   0.00000  Uiso   1.00
C106   C     0.19519   0.42929   0.44032   0.00000  Uiso   1.00
C107   C     0.19050   0.36197   0.41911   0.00000  Uiso   1.00
C108   C     0.19580   0.33466   0.25921   0.00000  Uiso   1.00
C109   C     0.19013   0.27250   0.26801   0.00000  Uiso   1.00
C110   C     0.25051   0.46763   0.57533   0.00000  Uiso   1.00
C111   C     0.30627   0.52916   0.54678   0.00000  Uiso   1.00
C112   C     0.35111   0.55595   0.68708   0.00000  Uiso   1.00
C113   C     0.13119   0.41590   0.53204   0.00000  Uiso   1.00
C114   C     0.08664   0.43394   0.46712   0.00000  Uiso   1.00
C115   C     0.03103   0.41719   0.57102   0.00000  Uiso   1.00
H116   H     0.16741   0.34132   0.86708   0.00000  Uiso   1.00
H117   H     0.16600   0.24029   0.71716   0.00000  Uiso   1.00
H118   H     0.27644   0.43476   0.00468   0.00000  Uiso   1.00
H119   H     0.05684   0.33956   0.92504   0.00000  Uiso   1.00
H120   H     0.16914   0.14310   0.47911   0.00000  Uiso   1.00
H121   H     0.40201   0.55316   0.08538   0.00000  Uiso   1.00
H122   H     0.93894   0.35241   0.91745   0.00000  Uiso   1.00
H123   H     0.20345   0.45543   0.31348   0.00000  Uiso   1.00
H124   H     0.20401   0.36066   0.13316   0.00000  Uiso   1.00
H125   H     0.31446   0.55513   0.42069   0.00000  Uiso   1.00
H126   H     0.09486   0.45993   0.34105   0.00000  Uiso   1.00
H127   H     0.20000   0.24080   0.00511   0.00000  Uiso   1.00
H128   H     0.43286   0.65086   0.61140   0.00000  Uiso   1.00
H129   H     0.96979   0.45010   0.44346   0.00000  Uiso   1.00
O130   O     0.18431   0.12755   0.13349   0.00000  Uiso   1.00
O131   O     0.48982   0.66555   0.92892   0.00000  Uiso   1.00
O132   O     0.88228   0.40215   0.70859   0.00000  Uiso   1.00
N133   N     0.17631   0.17909   0.39229   0.00000  Uiso   1.00
N134   N     0.39403   0.56247   0.95911   0.00000  Uiso   1.00
N135   N     0.96111   0.37480   0.80213   0.00000  Uiso   1.00
N136   N     0.19291   0.23166   0.13724   0.00000  Uiso   1.00
N137   N     0.41064   0.61504   0.70406   0.00000  Uiso   1.00
N138   N     0.97771   0.42737   0.54708   0.00000  Uiso   1.00
C139   C     0.36746   0.19180   0.25975   0.00000  Uiso   1.00
C140   C     0.32839   0.14850   0.41798   0.00000  Uiso   1.00
C141   C     0.26626   0.09206   0.40894   0.00000  Uiso   1.00
C142   C     0.23886   0.05936   0.56878   0.00000  Uiso   1.00
C143   C     0.17310   0.98861   0.78967   0.00000  Uiso   1.00
C144   C     0.43405   0.19415   0.26177   0.00000  Uiso   1.00
C145   C     0.46076   0.17609   0.12138   0.00000  Uiso   1.00
C146   C     0.52231   0.18182   0.14972   0.00000  Uiso   1.00
C147   C     0.62061   0.18199   0.12804   0.00000  Uiso   1.00
C148   C     0.38232   0.26173   0.30505   0.00000  Uiso   1.00
C149   C     0.36554   0.30051   0.20102   0.00000  Uiso   1.00
C150   C     0.38355   0.36315   0.26578   0.00000  Uiso   1.00
C151   C     0.40152   0.46825   0.31130   0.00000  Uiso   1.00
C152   C     0.42929   0.23410   0.55968   0.00000  Uiso   1.00
C153   C     0.36197   0.17148   0.58089   0.00000  Uiso   1.00
C154   C     0.33466   0.13886   0.74079   0.00000  Uiso   1.00
C155   C     0.27250   0.08237   0.73199   0.00000  Uiso   1.00
C156   C     0.46763   0.21712   0.42467   0.00000  Uiso   1.00
C157   C     0.52916   0.22289   0.45322   0.00000  Uiso   1.00
C158   C     0.55595   0.20484   0.31292   0.00000  Uiso   1.00
C159   C     0.41590   0.28471   0.46796   0.00000  Uiso   1.00
C160   C     0.43394   0.34730   0.53288   0.00000  Uiso   1.00
C161   C     0.41719   0.38617   0.42898   0.00000  Uiso   1.00
H162   H     0.34132   0.17391   0.13292   0.00000  Uiso   1.00
H163   H     0.24029   0.07429   0.28284   0.00000  Uiso   1.00
H164   H     0.43476   0.15832   0.99532   0.00000  Uiso   1.00
H165   H     0.33956   0.28271   0.07496   0.00000  Uiso   1.00
H166   H     0.14310   0.97396   0.52089   0.00000  Uiso   1.00
H167   H     0.55316   0.15116   0.91462   0.00000  Uiso   1.00
H168   H     0.35241   0.41347   0.08255   0.00000  Uiso   1.00
H169   H     0.45543   0.25199   0.68652   0.00000  Uiso   1.00
H170   H     0.36066   0.15665   0.86684   0.00000  Uiso   1.00
H171   H     0.55513   0.24067   0.57931   0.00000  Uiso   1.00
H172   H     0.45993   0.36507   0.65895   0.00000  Uiso   1.00
H173   H     0.24080   0.04080   0.99489   0.00000  Uiso   1.00
H174   H     0.65086   0.21800   0.38860   0.00000  Uiso   1.00
H175   H     0.45010   0.48031   0.55654   0.00000  Uiso   1.00
O176   O     0.12755   0.94324   0.86651   0.00000  Uiso   1.00
O177   O     0.66555   0.17573   0.07108   0.00000  Uiso   1.00
O178   O     0.40215   0.51987   0.29141   0.00000  Uiso   1.00
N179   N     0.17909   0.00278   0.60771   0.00000  Uiso   1.00
N180   N     0.56247   0.16844   0.04089   0.00000  Uiso   1.00
N181   N     0.37480   0.41369   0.19787   0.00000  Uiso   1.00
N182   N     0.23166   0.03875   0.86276   0.00000  Uiso   1.00
N183   N     0.61504   0.20441   0.29594   0.00000  Uiso   1.00
N184   N     0.42737   0.44966   0.45292   0.00000  Uiso   1.00
C185   C     0.80820   0.17566   0.25975   0.00000  Uiso   1.00
C186   C     0.85150   0.17989   0.41798   0.00000  Uiso   1.00
C187   C     0.90794   0.17420   0.40894   0.00000  Uiso   1.00
C188   C     0.94064   0.17950   0.56878   0.00000  Uiso   1.00
C189   C     0.01139   0.18449   0.78967   0.00000  Uiso   1.00
C190   C     0.80585   0.23990   0.26177   0.00000  Uiso   1.00
C191   C     0.82391   0.28467   0.12138   0.00000  Uiso   1.00
C192   C     0.81818   0.34049   0.14972   0.00000  Uiso   1.00
C193   C     0.81801   0.43862   0.12804   0.00000  Uiso   1.00
C194   C     0.73827   0.12058   0.30505   0.00000  Uiso   1.00
C195   C     0.69949   0.06503   0.20102   0.00000  Uiso   1.00
C196   C     0.63685   0.02040   0.26578   0.00000  Uiso   1.00
C197   C     0.53175   0.93327   0.31130   0.00000  Uiso   1.00
C198   C     0.76590   0.19519   0.55968   0.00000  Uiso   1.00
C199   C     0.82852   0.19050   0.58089   0.00000  Uiso   1.00
C200   C     0.86114   0.19580   0.74079   0.00000  Uiso   1.00
C201   C     0.91763   0.19013   0.73199   0.00000  Uiso   1.00
C202   C     0.78288   0.25051   0.42467   0.00000  Uiso   1.00
C203   C     0.77711   0.30627   0.45322   0.00000  Uiso   1.00
C204   C     0.79516   0.35111   0.31292   0.00000  Uiso   1.00
C205   C     0.71529   0.13119   0.46796   0.00000  Uiso   1.00
C206   C     0.65270   0.08664   0.53288   0.00000  Uiso   1.00
C207   C     0.61383   0.03103   0.42898   0.00000  Uiso   1.00
H208   H     0.82609   0.16741   0.13292   0.00000  Uiso   1.00
H209   H     0.92571   0.16600   0.28284   0.00000  Uiso   1.00
H210   H     0.84168   0.27644   0.99532   0.00000  Uiso   1.00
H211   H     0.71729   0.05684   0.07496   0.00000  Uiso   1.00
H212   H     0.02604   0.16914   0.52089   0.00000  Uiso   1.00
H213   H     0.84884   0.40201   0.91462   0.00000  Uiso   1.00
H214   H     0.58653   0.93894   0.08255   0.00000  Uiso   1.00
H215   H     0.74801   0.20345   0.68652   0.00000  Uiso   1.00
H216   H     0.84335   0.20401   0.86684   0.00000  Uiso   1.00
H217   H     0.75933   0.31446   0.57931   0.00000  Uiso   1.00
H218   H     0.63493   0.09486   0.65895   0.00000  Uiso   1.00
H219   H     0.95920   0.20000   0.99489   0.00000  Uiso   1.00
H220   H     0.78200   0.43286   0.38860   0.00000  Uiso   1.00
H221   H     0.51969   0.96979   0.55654   0.00000  Uiso   1.00
O222   O     0.05676   0.18431   0.86651   0.00000  Uiso   1.00
O223   O     0.82427   0.48982   0.07108   0.00000  Uiso   1.00
O224   O     0.48013   0.88228   0.29141   0.00000  Uiso   1.00
N225   N     0.99722   0.17631   0.60771   0.00000  Uiso   1.00
N226   N     0.83156   0.39403   0.04089   0.00000  Uiso   1.00
N227   N     0.58631   0.96111   0.19787   0.00000  Uiso   1.00
N228   N     0.96125   0.19291   0.86276   0.00000  Uiso   1.00
N229   N     0.79559   0.41064   0.29594   0.00000  Uiso   1.00
N230   N     0.55034   0.97771   0.45292   0.00000  Uiso   1.00
C231   C     0.82434   0.63254   0.25975   0.00000  Uiso   1.00
C232   C     0.82011   0.67161   0.41798   0.00000  Uiso   1.00
C233   C     0.82580   0.73374   0.40894   0.00000  Uiso   1.00
C234   C     0.82050   0.76114   0.56878   0.00000  Uiso   1.00
C235   C     0.81551   0.82690   0.78967   0.00000  Uiso   1.00
C236   C     0.76010   0.56595   0.26177   0.00000  Uiso   1.00
C237   C     0.71533   0.53924   0.12138   0.00000  Uiso   1.00
C238   C     0.65951   0.47769   0.14972   0.00000  Uiso   1.00
C239   C     0.56138   0.37939   0.12804   0.00000  Uiso   1.00
C240   C     0.87942   0.61768   0.30505   0.00000  Uiso   1.00
C241   C     0.93497   0.63446   0.20102   0.00000  Uiso   1.00
C242   C     0.97960   0.61645   0.26578   0.00000  Uiso   1.00
C243   C     0.06673   0.59848   0.31130   0.00000  Uiso   1.00
C244   C     0.80481   0.57071   0.55968   0.00000  Uiso   1.00
C245   C     0.80950   0.63803   0.58089   0.00000  Uiso   1.00
C246   C     0.80420   0.66534   0.74079   0.00000  Uiso   1.00
C247   C     0.80987   0.72750   0.73199   0.00000  Uiso   1.00
C248   C     0.74949   0.53237   0.42467   0.00000  Uiso   1.00
C249   C     0.69373   0.47084   0.45322   0.00000  Uiso   1.00
C250   C     0.64889   0.44405   0.31292   0.00000  Uiso   1.00
C251   C     0.86881   0.58410   0.46796   0.00000  Uiso   1.00
C252   C     0.91336   0.56606   0.53288   0.00000  Uiso   1.00
C253   C     0.96897   0.58281   0.42898   0.00000  Uiso   1.00
H254   H     0.83259   0.65868   0.13292   0.00000  Uiso   1.00
H255   H     0.83400   0.75971   0.28284   0.00000  Uiso   1.00
H256   H     0.72356   0.56524   0.99532   0.00000  Uiso   1.00
H257   H     0.94316   0.66044   0.07496   0.00000  Uiso   1.00
H258   H     0.83086   0.85690   0.52089   0.00000  Uiso   1.00
H259   H     0.59799   0.44684   0.91462   0.00000  Uiso   1.00
H260   H     0.06106   0.64759   0.08255   0.00000  Uiso   1.00
H261   H     0.79655   0.54457   0.68652   0.00000  Uiso   1.00
H262   H     0.79599   0.63934   0.86684   0.00000  Uiso   1.00
H263   H     0.68554   0.44487   0.57931   0.00000  Uiso   1.00
H264   H     0.90514   0.54007   0.65895   0.00000  Uiso   1.00
H265   H     0.80000   0.75920   0.99489   0.00000  Uiso   1.00
H266   H     0.56714   0.34914   0.38860   0.00000  Uiso   1.00
H267   H     0.03021   0.54990   0.55654   0.00000  Uiso   1.00
O268   O     0.81569   0.87245   0.86651   0.00000  Uiso   1.00
O269   O     0.51018   0.33445   0.07108   0.00000  Uiso   1.00
O270   O     0.11772   0.59785   0.29141   0.00000  Uiso   1.00
N271   N     0.82369   0.82091   0.60771   0.00000  Uiso   1.00
N272   N     0.60597   0.43753   0.04089   0.00000  Uiso   1.00
N273   N     0.03889   0.62520   0.19787   0.00000  Uiso   1.00
N274   N     0.80709   0.76834   0.86276   0.00000  Uiso   1.00
N275   N     0.58936   0.38496   0.29594   0.00000  Uiso   1.00
N276   N     0.02229   0.57263   0.45292   0.00000  Uiso   1.00
