data_job_05848
_audit_creation_date              2018-12-19
_audit_creation_method            'Materials Studio'
_symmetry_space_group_name_H-M    'P1'
_symmetry_Int_Tables_number       1
_symmetry_cell_setting            triclinic
loop_
_symmetry_equiv_pos_as_xyz
  x,y,z
_cell_length_a                    18.5533
_cell_length_b                    7.3923
_cell_length_c                    50.9755
_cell_angle_alpha                 90.0000
_cell_angle_beta                  111.3517
_cell_angle_gamma                 90.0000
loop_
_atom_site_label
_atom_site_type_symbol
_atom_site_fract_x
_atom_site_fract_y
_atom_site_fract_z
_atom_site_U_iso_or_equiv
_atom_site_adp_type
_atom_site_occupancy
C1     C     0.89871   0.57550   0.62501   0.00000  Uiso   1.00
C2     C     0.96228   0.65519   0.65067   0.00000  Uiso   1.00
C3     C     0.01574   0.55698   0.67224   0.00000  Uiso   1.00
C4     C     0.06926   0.65504   0.69384   0.00000  Uiso   1.00
C5     C     0.16795   0.74995   0.73368   0.00000  Uiso   1.00
C6     C     0.82289   0.65516   0.62502   0.00000  Uiso   1.00
C7     C     0.75915   0.55692   0.62502   0.00000  Uiso   1.00
C8     C     0.69533   0.65496   0.62502   0.00000  Uiso   1.00
C9     C     0.57760   0.74983   0.62502   0.00000  Uiso   1.00
C10    C     0.91092   0.65518   0.59935   0.00000  Uiso   1.00
C11    C     0.92117   0.55696   0.57777   0.00000  Uiso   1.00
C12    C     0.93144   0.65502   0.55616   0.00000  Uiso   1.00
C13    C     0.95039   0.74991   0.51631   0.00000  Uiso   1.00
C14    C     0.89869   0.92429   0.62501   0.00000  Uiso   1.00
C15    C     0.96227   0.84463   0.65066   0.00000  Uiso   1.00
C16    C     0.01572   0.94287   0.67224   0.00000  Uiso   1.00
C17    C     0.06925   0.84482   0.69384   0.00000  Uiso   1.00
C18    C     0.82288   0.84460   0.62501   0.00000  Uiso   1.00
C19    C     0.75913   0.94281   0.62502   0.00000  Uiso   1.00
C20    C     0.69531   0.84475   0.62502   0.00000  Uiso   1.00
C21    C     0.91091   0.84462   0.59935   0.00000  Uiso   1.00
C22    C     0.92116   0.94285   0.57777   0.00000  Uiso   1.00
C23    C     0.93143   0.84480   0.55616   0.00000  Uiso   1.00
H24    H     0.89871   0.42801   0.62501   0.00000  Uiso   1.00
H25    H     0.01572   0.41037   0.67223   0.00000  Uiso   1.00
H26    H     0.75917   0.41032   0.62502   0.00000  Uiso   1.00
H27    H     0.92118   0.41036   0.57777   0.00000  Uiso   1.00
H28    H     0.14544   0.47436   0.72459   0.00000  Uiso   1.00
H29    H     0.60448   0.47424   0.62503   0.00000  Uiso   1.00
H30    H     0.94608   0.47433   0.52540   0.00000  Uiso   1.00
H31    H     0.89868   0.07178   0.62501   0.00000  Uiso   1.00
H32    H     0.01570   0.08947   0.67223   0.00000  Uiso   1.00
H33    H     0.75915   0.08941   0.62501   0.00000  Uiso   1.00
H34    H     0.92115   0.08945   0.57777   0.00000  Uiso   1.00
H35    H     0.14541   0.02554   0.72459   0.00000  Uiso   1.00
H36    H     0.60445   0.02542   0.62502   0.00000  Uiso   1.00
H37    H     0.94606   0.02551   0.52540   0.00000  Uiso   1.00
O38    O     0.22239   0.74997   0.75566   0.00000  Uiso   1.00
O39    O     0.51267   0.74981   0.62503   0.00000  Uiso   1.00
O40    O     0.96085   0.74992   0.49433   0.00000  Uiso   1.00
N41    N     0.12938   0.60165   0.71811   0.00000  Uiso   1.00
N42    N     0.62362   0.60154   0.62502   0.00000  Uiso   1.00
N43    N     0.94297   0.60162   0.53188   0.00000  Uiso   1.00
N44    N     0.12937   0.89824   0.71811   0.00000  Uiso   1.00
N45    N     0.62361   0.89813   0.62502   0.00000  Uiso   1.00
N46    N     0.94296   0.89820   0.53188   0.00000  Uiso   1.00
C47    C     0.62293   0.42444   0.37498   0.00000  Uiso   1.00
C48    C     0.63518   0.34477   0.34933   0.00000  Uiso   1.00
C49    C     0.64548   0.44299   0.32775   0.00000  Uiso   1.00
C50    C     0.65578   0.34494   0.30615   0.00000  Uiso   1.00
C51    C     0.67476   0.25004   0.26631   0.00000  Uiso   1.00
C52    C     0.54711   0.34478   0.37497   0.00000  Uiso   1.00
C53    C     0.48336   0.44302   0.37497   0.00000  Uiso   1.00
C54    C     0.41952   0.34498   0.37497   0.00000  Uiso   1.00
C55    C     0.30179   0.25011   0.37496   0.00000  Uiso   1.00
C56    C     0.68649   0.34476   0.40064   0.00000  Uiso   1.00
C57    C     0.73992   0.44297   0.42223   0.00000  Uiso   1.00
C58    C     0.79342   0.34490   0.44383   0.00000  Uiso   1.00
C59    C     0.89209   0.24999   0.48368   0.00000  Uiso   1.00
C60    C     0.62292   0.07566   0.37498   0.00000  Uiso   1.00
C61    C     0.63517   0.15532   0.34932   0.00000  Uiso   1.00
C62    C     0.64546   0.05710   0.32775   0.00000  Uiso   1.00
C63    C     0.65577   0.15516   0.30615   0.00000  Uiso   1.00
C64    C     0.54710   0.15535   0.37497   0.00000  Uiso   1.00
C65    C     0.48334   0.05714   0.37497   0.00000  Uiso   1.00
C66    C     0.41951   0.15519   0.37497   0.00000  Uiso   1.00
C67    C     0.68648   0.15531   0.40064   0.00000  Uiso   1.00
C68    C     0.73990   0.05708   0.42222   0.00000  Uiso   1.00
C69    C     0.79341   0.15512   0.44383   0.00000  Uiso   1.00
H70    H     0.62293   0.57193   0.37498   0.00000  Uiso   1.00
H71    H     0.64547   0.58960   0.32776   0.00000  Uiso   1.00
H72    H     0.48339   0.58962   0.37498   0.00000  Uiso   1.00
H73    H     0.73991   0.58957   0.42222   0.00000  Uiso   1.00
H74    H     0.67043   0.52563   0.27540   0.00000  Uiso   1.00
H75    H     0.32867   0.52570   0.37496   0.00000  Uiso   1.00
H76    H     0.86959   0.52558   0.47459   0.00000  Uiso   1.00
H77    H     0.62291   0.92816   0.37498   0.00000  Uiso   1.00
H78    H     0.64545   0.91050   0.32776   0.00000  Uiso   1.00
H79    H     0.48336   0.91053   0.37497   0.00000  Uiso   1.00
H80    H     0.73988   0.91048   0.42221   0.00000  Uiso   1.00
H81    H     0.67041   0.97445   0.27539   0.00000  Uiso   1.00
H82    H     0.32865   0.97452   0.37496   0.00000  Uiso   1.00
H83    H     0.86957   0.97440   0.47458   0.00000  Uiso   1.00
O84    O     0.68522   0.25004   0.24433   0.00000  Uiso   1.00
O85    O     0.23685   0.25013   0.37496   0.00000  Uiso   1.00
O86    O     0.94653   0.24997   0.50566   0.00000  Uiso   1.00
N87    N     0.66735   0.39834   0.28188   0.00000  Uiso   1.00
N88    N     0.34782   0.39840   0.37497   0.00000  Uiso   1.00
N89    N     0.85352   0.39829   0.46811   0.00000  Uiso   1.00
N90    N     0.66734   0.10175   0.28188   0.00000  Uiso   1.00
N91    N     0.34781   0.10181   0.37496   0.00000  Uiso   1.00
N92    N     0.85351   0.10170   0.46811   0.00000  Uiso   1.00
C93    C     0.39871   0.07550   0.62501   0.00000  Uiso   1.00
C94    C     0.46228   0.15519   0.65067   0.00000  Uiso   1.00
C95    C     0.51574   0.05698   0.67224   0.00000  Uiso   1.00
C96    C     0.56926   0.15504   0.69384   0.00000  Uiso   1.00
C97    C     0.66795   0.24995   0.73368   0.00000  Uiso   1.00
C98    C     0.32289   0.15516   0.62502   0.00000  Uiso   1.00
C99    C     0.25915   0.05692   0.62502   0.00000  Uiso   1.00
C100   C     0.19533   0.15496   0.62502   0.00000  Uiso   1.00
C101   C     0.07760   0.24983   0.62502   0.00000  Uiso   1.00
C102   C     0.41092   0.15518   0.59935   0.00000  Uiso   1.00
C103   C     0.42117   0.05696   0.57777   0.00000  Uiso   1.00
C104   C     0.43144   0.15502   0.55616   0.00000  Uiso   1.00
C105   C     0.45039   0.24991   0.51631   0.00000  Uiso   1.00
C106   C     0.39869   0.42429   0.62501   0.00000  Uiso   1.00
C107   C     0.46227   0.34463   0.65066   0.00000  Uiso   1.00
C108   C     0.51572   0.44287   0.67224   0.00000  Uiso   1.00
C109   C     0.56925   0.34482   0.69384   0.00000  Uiso   1.00
C110   C     0.32288   0.34460   0.62501   0.00000  Uiso   1.00
C111   C     0.25913   0.44281   0.62502   0.00000  Uiso   1.00
C112   C     0.19531   0.34475   0.62502   0.00000  Uiso   1.00
C113   C     0.41091   0.34462   0.59935   0.00000  Uiso   1.00
C114   C     0.42116   0.44285   0.57777   0.00000  Uiso   1.00
C115   C     0.43143   0.34480   0.55616   0.00000  Uiso   1.00
H116   H     0.39871   0.92801   0.62501   0.00000  Uiso   1.00
H117   H     0.51572   0.91037   0.67223   0.00000  Uiso   1.00
H118   H     0.25917   0.91032   0.62502   0.00000  Uiso   1.00
H119   H     0.42118   0.91036   0.57777   0.00000  Uiso   1.00
H120   H     0.64544   0.97436   0.72459   0.00000  Uiso   1.00
H121   H     0.10448   0.97424   0.62503   0.00000  Uiso   1.00
H122   H     0.44608   0.97433   0.52540   0.00000  Uiso   1.00
H123   H     0.39868   0.57178   0.62501   0.00000  Uiso   1.00
H124   H     0.51570   0.58947   0.67223   0.00000  Uiso   1.00
H125   H     0.25915   0.58941   0.62501   0.00000  Uiso   1.00
H126   H     0.42115   0.58945   0.57777   0.00000  Uiso   1.00
H127   H     0.64541   0.52554   0.72459   0.00000  Uiso   1.00
H128   H     0.10445   0.52542   0.62502   0.00000  Uiso   1.00
H129   H     0.44606   0.52551   0.52540   0.00000  Uiso   1.00
O130   O     0.72239   0.24997   0.75566   0.00000  Uiso   1.00
O131   O     0.01267   0.24981   0.62503   0.00000  Uiso   1.00
O132   O     0.46085   0.24992   0.49433   0.00000  Uiso   1.00
N133   N     0.62938   0.10165   0.71811   0.00000  Uiso   1.00
N134   N     0.12362   0.10154   0.62502   0.00000  Uiso   1.00
N135   N     0.44297   0.10162   0.53188   0.00000  Uiso   1.00
N136   N     0.62937   0.39824   0.71811   0.00000  Uiso   1.00
N137   N     0.12361   0.39813   0.62502   0.00000  Uiso   1.00
N138   N     0.44296   0.39820   0.53188   0.00000  Uiso   1.00
C139   C     0.12293   0.92444   0.37498   0.00000  Uiso   1.00
C140   C     0.13518   0.84477   0.34933   0.00000  Uiso   1.00
C141   C     0.14548   0.94299   0.32775   0.00000  Uiso   1.00
C142   C     0.15578   0.84494   0.30615   0.00000  Uiso   1.00
C143   C     0.17476   0.75004   0.26631   0.00000  Uiso   1.00
C144   C     0.04711   0.84478   0.37497   0.00000  Uiso   1.00
C145   C     0.98336   0.94302   0.37497   0.00000  Uiso   1.00
C146   C     0.91952   0.84498   0.37497   0.00000  Uiso   1.00
C147   C     0.80179   0.75011   0.37496   0.00000  Uiso   1.00
C148   C     0.18649   0.84476   0.40064   0.00000  Uiso   1.00
C149   C     0.23992   0.94297   0.42223   0.00000  Uiso   1.00
C150   C     0.29342   0.84490   0.44383   0.00000  Uiso   1.00
C151   C     0.39209   0.74999   0.48368   0.00000  Uiso   1.00
C152   C     0.12292   0.57566   0.37498   0.00000  Uiso   1.00
C153   C     0.13517   0.65532   0.34932   0.00000  Uiso   1.00
C154   C     0.14546   0.55710   0.32775   0.00000  Uiso   1.00
C155   C     0.15577   0.65516   0.30615   0.00000  Uiso   1.00
C156   C     0.04710   0.65535   0.37497   0.00000  Uiso   1.00
C157   C     0.98334   0.55714   0.37497   0.00000  Uiso   1.00
C158   C     0.91951   0.65519   0.37497   0.00000  Uiso   1.00
C159   C     0.18648   0.65531   0.40064   0.00000  Uiso   1.00
C160   C     0.23990   0.55708   0.42222   0.00000  Uiso   1.00
C161   C     0.29341   0.65512   0.44383   0.00000  Uiso   1.00
H162   H     0.12293   0.07193   0.37498   0.00000  Uiso   1.00
H163   H     0.14547   0.08960   0.32776   0.00000  Uiso   1.00
H164   H     0.98339   0.08962   0.37498   0.00000  Uiso   1.00
H165   H     0.23991   0.08957   0.42222   0.00000  Uiso   1.00
H166   H     0.17043   0.02563   0.27540   0.00000  Uiso   1.00
H167   H     0.82867   0.02570   0.37496   0.00000  Uiso   1.00
H168   H     0.36959   0.02558   0.47459   0.00000  Uiso   1.00
H169   H     0.12291   0.42816   0.37498   0.00000  Uiso   1.00
H170   H     0.14545   0.41050   0.32776   0.00000  Uiso   1.00
H171   H     0.98336   0.41053   0.37497   0.00000  Uiso   1.00
H172   H     0.23988   0.41048   0.42221   0.00000  Uiso   1.00
H173   H     0.17041   0.47445   0.27539   0.00000  Uiso   1.00
H174   H     0.82865   0.47452   0.37496   0.00000  Uiso   1.00
H175   H     0.36957   0.47440   0.47458   0.00000  Uiso   1.00
O176   O     0.18522   0.75004   0.24433   0.00000  Uiso   1.00
O177   O     0.73685   0.75013   0.37496   0.00000  Uiso   1.00
O178   O     0.44653   0.74997   0.50566   0.00000  Uiso   1.00
N179   N     0.16735   0.89834   0.28188   0.00000  Uiso   1.00
N180   N     0.84782   0.89840   0.37497   0.00000  Uiso   1.00
N181   N     0.35352   0.89829   0.46811   0.00000  Uiso   1.00
N182   N     0.16734   0.60175   0.28188   0.00000  Uiso   1.00
N183   N     0.84781   0.60181   0.37496   0.00000  Uiso   1.00
N184   N     0.35351   0.60170   0.46811   0.00000  Uiso   1.00
C185   C     0.89871   0.42450   0.12501   0.00000  Uiso   1.00
C186   C     0.96228   0.34481   0.15067   0.00000  Uiso   1.00
C187   C     0.01574   0.44302   0.17224   0.00000  Uiso   1.00
C188   C     0.06926   0.34496   0.19384   0.00000  Uiso   1.00
C189   C     0.16795   0.25005   0.23368   0.00000  Uiso   1.00
C190   C     0.82289   0.34484   0.12502   0.00000  Uiso   1.00
C191   C     0.75915   0.44308   0.12502   0.00000  Uiso   1.00
C192   C     0.69533   0.34504   0.12502   0.00000  Uiso   1.00
C193   C     0.57760   0.25017   0.12502   0.00000  Uiso   1.00
C194   C     0.91092   0.34482   0.09935   0.00000  Uiso   1.00
C195   C     0.92117   0.44304   0.07777   0.00000  Uiso   1.00
C196   C     0.93144   0.34498   0.05616   0.00000  Uiso   1.00
C197   C     0.95039   0.25009   0.01631   0.00000  Uiso   1.00
C198   C     0.89869   0.07571   0.12501   0.00000  Uiso   1.00
C199   C     0.96227   0.15537   0.15066   0.00000  Uiso   1.00
C200   C     0.01572   0.05713   0.17224   0.00000  Uiso   1.00
C201   C     0.06925   0.15518   0.19384   0.00000  Uiso   1.00
C202   C     0.82288   0.15540   0.12501   0.00000  Uiso   1.00
C203   C     0.75913   0.05719   0.12502   0.00000  Uiso   1.00
C204   C     0.69531   0.15525   0.12502   0.00000  Uiso   1.00
C205   C     0.91091   0.15538   0.09935   0.00000  Uiso   1.00
C206   C     0.92116   0.05715   0.07777   0.00000  Uiso   1.00
C207   C     0.93143   0.15520   0.05616   0.00000  Uiso   1.00
H208   H     0.89871   0.57199   0.12501   0.00000  Uiso   1.00
H209   H     0.01572   0.58963   0.17223   0.00000  Uiso   1.00
H210   H     0.75917   0.58968   0.12502   0.00000  Uiso   1.00
H211   H     0.92118   0.58964   0.07777   0.00000  Uiso   1.00
H212   H     0.14544   0.52564   0.22459   0.00000  Uiso   1.00
H213   H     0.60448   0.52576   0.12503   0.00000  Uiso   1.00
H214   H     0.94608   0.52567   0.02540   0.00000  Uiso   1.00
H215   H     0.89868   0.92822   0.12501   0.00000  Uiso   1.00
H216   H     0.01570   0.91053   0.17223   0.00000  Uiso   1.00
H217   H     0.75915   0.91059   0.12501   0.00000  Uiso   1.00
H218   H     0.92115   0.91055   0.07777   0.00000  Uiso   1.00
H219   H     0.14541   0.97446   0.22459   0.00000  Uiso   1.00
H220   H     0.60445   0.97458   0.12502   0.00000  Uiso   1.00
H221   H     0.94606   0.97449   0.02540   0.00000  Uiso   1.00
O222   O     0.22239   0.25003   0.25566   0.00000  Uiso   1.00
O223   O     0.51267   0.25019   0.12503   0.00000  Uiso   1.00
O224   O     0.96085   0.25008   0.99433   0.00000  Uiso   1.00
N225   N     0.12938   0.39835   0.21811   0.00000  Uiso   1.00
N226   N     0.62362   0.39846   0.12502   0.00000  Uiso   1.00
N227   N     0.94297   0.39838   0.03188   0.00000  Uiso   1.00
N228   N     0.12937   0.10176   0.21811   0.00000  Uiso   1.00
N229   N     0.62361   0.10187   0.12502   0.00000  Uiso   1.00
N230   N     0.94296   0.10180   0.03188   0.00000  Uiso   1.00
C231   C     0.62293   0.57556   0.87498   0.00000  Uiso   1.00
C232   C     0.63518   0.65523   0.84933   0.00000  Uiso   1.00
C233   C     0.64548   0.55701   0.82775   0.00000  Uiso   1.00
C234   C     0.65578   0.65506   0.80615   0.00000  Uiso   1.00
C235   C     0.67476   0.74996   0.76631   0.00000  Uiso   1.00
C236   C     0.54711   0.65522   0.87497   0.00000  Uiso   1.00
C237   C     0.48336   0.55698   0.87497   0.00000  Uiso   1.00
C238   C     0.41952   0.65502   0.87497   0.00000  Uiso   1.00
C239   C     0.30179   0.74989   0.87496   0.00000  Uiso   1.00
C240   C     0.68649   0.65524   0.90064   0.00000  Uiso   1.00
C241   C     0.73992   0.55703   0.92223   0.00000  Uiso   1.00
C242   C     0.79342   0.65510   0.94383   0.00000  Uiso   1.00
C243   C     0.89209   0.75001   0.98368   0.00000  Uiso   1.00
C244   C     0.62292   0.92434   0.87498   0.00000  Uiso   1.00
C245   C     0.63517   0.84468   0.84932   0.00000  Uiso   1.00
C246   C     0.64546   0.94290   0.82775   0.00000  Uiso   1.00
C247   C     0.65577   0.84484   0.80615   0.00000  Uiso   1.00
C248   C     0.54710   0.84465   0.87497   0.00000  Uiso   1.00
C249   C     0.48334   0.94286   0.87497   0.00000  Uiso   1.00
C250   C     0.41951   0.84481   0.87497   0.00000  Uiso   1.00
C251   C     0.68648   0.84469   0.90064   0.00000  Uiso   1.00
C252   C     0.73990   0.94292   0.92222   0.00000  Uiso   1.00
C253   C     0.79341   0.84488   0.94383   0.00000  Uiso   1.00
H254   H     0.62293   0.42807   0.87498   0.00000  Uiso   1.00
H255   H     0.64547   0.41040   0.82776   0.00000  Uiso   1.00
H256   H     0.48339   0.41038   0.87498   0.00000  Uiso   1.00
H257   H     0.73991   0.41043   0.92222   0.00000  Uiso   1.00
H258   H     0.67043   0.47437   0.77540   0.00000  Uiso   1.00
H259   H     0.32867   0.47430   0.87496   0.00000  Uiso   1.00
H260   H     0.86959   0.47442   0.97459   0.00000  Uiso   1.00
H261   H     0.62291   0.07184   0.87498   0.00000  Uiso   1.00
H262   H     0.64545   0.08950   0.82776   0.00000  Uiso   1.00
H263   H     0.48336   0.08947   0.87497   0.00000  Uiso   1.00
H264   H     0.73988   0.08952   0.92221   0.00000  Uiso   1.00
H265   H     0.67041   0.02555   0.77539   0.00000  Uiso   1.00
H266   H     0.32865   0.02548   0.87496   0.00000  Uiso   1.00
H267   H     0.86957   0.02560   0.97458   0.00000  Uiso   1.00
O268   O     0.68522   0.74996   0.74433   0.00000  Uiso   1.00
O269   O     0.23685   0.74987   0.87496   0.00000  Uiso   1.00
O270   O     0.94653   0.75003   0.00566   0.00000  Uiso   1.00
N271   N     0.66735   0.60166   0.78188   0.00000  Uiso   1.00
N272   N     0.34782   0.60160   0.87497   0.00000  Uiso   1.00
N273   N     0.85352   0.60171   0.96811   0.00000  Uiso   1.00
N274   N     0.66734   0.89825   0.78188   0.00000  Uiso   1.00
N275   N     0.34781   0.89819   0.87496   0.00000  Uiso   1.00
N276   N     0.85351   0.89830   0.96811   0.00000  Uiso   1.00
C277   C     0.39871   0.92450   0.12501   0.00000  Uiso   1.00
C278   C     0.46228   0.84481   0.15067   0.00000  Uiso   1.00
C279   C     0.51574   0.94302   0.17224   0.00000  Uiso   1.00
C280   C     0.56926   0.84496   0.19384   0.00000  Uiso   1.00
C281   C     0.66795   0.75005   0.23368   0.00000  Uiso   1.00
C282   C     0.32289   0.84484   0.12502   0.00000  Uiso   1.00
C283   C     0.25915   0.94308   0.12502   0.00000  Uiso   1.00
C284   C     0.19533   0.84504   0.12502   0.00000  Uiso   1.00
C285   C     0.07760   0.75017   0.12502   0.00000  Uiso   1.00
C286   C     0.41092   0.84482   0.09935   0.00000  Uiso   1.00
C287   C     0.42117   0.94304   0.07777   0.00000  Uiso   1.00
C288   C     0.43144   0.84498   0.05616   0.00000  Uiso   1.00
C289   C     0.45039   0.75009   0.01631   0.00000  Uiso   1.00
C290   C     0.39869   0.57571   0.12501   0.00000  Uiso   1.00
C291   C     0.46227   0.65537   0.15066   0.00000  Uiso   1.00
C292   C     0.51572   0.55713   0.17224   0.00000  Uiso   1.00
C293   C     0.56925   0.65518   0.19384   0.00000  Uiso   1.00
C294   C     0.32288   0.65540   0.12501   0.00000  Uiso   1.00
C295   C     0.25913   0.55719   0.12502   0.00000  Uiso   1.00
C296   C     0.19531   0.65525   0.12502   0.00000  Uiso   1.00
C297   C     0.41091   0.65538   0.09935   0.00000  Uiso   1.00
C298   C     0.42116   0.55715   0.07777   0.00000  Uiso   1.00
C299   C     0.43143   0.65520   0.05616   0.00000  Uiso   1.00
H300   H     0.39871   0.07199   0.12501   0.00000  Uiso   1.00
H301   H     0.51572   0.08963   0.17223   0.00000  Uiso   1.00
H302   H     0.25917   0.08968   0.12502   0.00000  Uiso   1.00
H303   H     0.42118   0.08964   0.07777   0.00000  Uiso   1.00
H304   H     0.64544   0.02564   0.22459   0.00000  Uiso   1.00
H305   H     0.10448   0.02576   0.12503   0.00000  Uiso   1.00
H306   H     0.44608   0.02567   0.02540   0.00000  Uiso   1.00
H307   H     0.39868   0.42822   0.12501   0.00000  Uiso   1.00
H308   H     0.51570   0.41053   0.17223   0.00000  Uiso   1.00
H309   H     0.25915   0.41059   0.12501   0.00000  Uiso   1.00
H310   H     0.42115   0.41055   0.07777   0.00000  Uiso   1.00
H311   H     0.64541   0.47446   0.22459   0.00000  Uiso   1.00
H312   H     0.10445   0.47458   0.12502   0.00000  Uiso   1.00
H313   H     0.44606   0.47449   0.02540   0.00000  Uiso   1.00
O314   O     0.72239   0.75003   0.25566   0.00000  Uiso   1.00
O315   O     0.01267   0.75019   0.12503   0.00000  Uiso   1.00
O316   O     0.46085   0.75008   0.99433   0.00000  Uiso   1.00
N317   N     0.62938   0.89835   0.21811   0.00000  Uiso   1.00
N318   N     0.12362   0.89846   0.12502   0.00000  Uiso   1.00
N319   N     0.44297   0.89838   0.03188   0.00000  Uiso   1.00
N320   N     0.62937   0.60176   0.21811   0.00000  Uiso   1.00
N321   N     0.12361   0.60187   0.12502   0.00000  Uiso   1.00
N322   N     0.44296   0.60180   0.03188   0.00000  Uiso   1.00
C323   C     0.12293   0.07556   0.87498   0.00000  Uiso   1.00
C324   C     0.13518   0.15523   0.84933   0.00000  Uiso   1.00
C325   C     0.14548   0.05701   0.82775   0.00000  Uiso   1.00
C326   C     0.15578   0.15506   0.80615   0.00000  Uiso   1.00
C327   C     0.17476   0.24996   0.76631   0.00000  Uiso   1.00
C328   C     0.04711   0.15522   0.87497   0.00000  Uiso   1.00
C329   C     0.98336   0.05698   0.87497   0.00000  Uiso   1.00
C330   C     0.91952   0.15502   0.87497   0.00000  Uiso   1.00
C331   C     0.80179   0.24989   0.87496   0.00000  Uiso   1.00
C332   C     0.18649   0.15524   0.90064   0.00000  Uiso   1.00
C333   C     0.23992   0.05703   0.92223   0.00000  Uiso   1.00
C334   C     0.29342   0.15510   0.94383   0.00000  Uiso   1.00
C335   C     0.39209   0.25001   0.98368   0.00000  Uiso   1.00
C336   C     0.12292   0.42434   0.87498   0.00000  Uiso   1.00
C337   C     0.13517   0.34468   0.84932   0.00000  Uiso   1.00
C338   C     0.14546   0.44290   0.82775   0.00000  Uiso   1.00
C339   C     0.15577   0.34484   0.80615   0.00000  Uiso   1.00
C340   C     0.04710   0.34465   0.87497   0.00000  Uiso   1.00
C341   C     0.98334   0.44286   0.87497   0.00000  Uiso   1.00
C342   C     0.91951   0.34481   0.87497   0.00000  Uiso   1.00
C343   C     0.18648   0.34469   0.90064   0.00000  Uiso   1.00
C344   C     0.23990   0.44292   0.92222   0.00000  Uiso   1.00
C345   C     0.29341   0.34488   0.94383   0.00000  Uiso   1.00
H346   H     0.12293   0.92807   0.87498   0.00000  Uiso   1.00
H347   H     0.14547   0.91040   0.82776   0.00000  Uiso   1.00
H348   H     0.98339   0.91038   0.87498   0.00000  Uiso   1.00
H349   H     0.23991   0.91043   0.92222   0.00000  Uiso   1.00
H350   H     0.17043   0.97437   0.77540   0.00000  Uiso   1.00
H351   H     0.82867   0.97430   0.87496   0.00000  Uiso   1.00
H352   H     0.36959   0.97442   0.97459   0.00000  Uiso   1.00
H353   H     0.12291   0.57184   0.87498   0.00000  Uiso   1.00
H354   H     0.14545   0.58950   0.82776   0.00000  Uiso   1.00
H355   H     0.98336   0.58947   0.87497   0.00000  Uiso   1.00
H356   H     0.23988   0.58952   0.92221   0.00000  Uiso   1.00
H357   H     0.17041   0.52555   0.77539   0.00000  Uiso   1.00
H358   H     0.82865   0.52548   0.87496   0.00000  Uiso   1.00
H359   H     0.36957   0.52560   0.97458   0.00000  Uiso   1.00
O360   O     0.18522   0.24996   0.74433   0.00000  Uiso   1.00
O361   O     0.73685   0.24987   0.87496   0.00000  Uiso   1.00
O362   O     0.44653   0.25003   0.00566   0.00000  Uiso   1.00
N363   N     0.16735   0.10166   0.78188   0.00000  Uiso   1.00
N364   N     0.84782   0.10160   0.87497   0.00000  Uiso   1.00
N365   N     0.35352   0.10171   0.96811   0.00000  Uiso   1.00
N366   N     0.16734   0.39825   0.78188   0.00000  Uiso   1.00
N367   N     0.84781   0.39819   0.87496   0.00000  Uiso   1.00
N368   N     0.35351   0.39830   0.96811   0.00000  Uiso   1.00
