data_job_04468
_audit_creation_date              2018-12-19
_audit_creation_method            'Materials Studio'
_symmetry_space_group_name_H-M    'P1'
_symmetry_Int_Tables_number       1
_symmetry_cell_setting            triclinic
loop_
_symmetry_equiv_pos_as_xyz
  x,y,z
_cell_length_a                    31.5626
_cell_length_b                    31.5626
_cell_length_c                    7.2850
_cell_angle_alpha                 90.0000
_cell_angle_beta                  90.0000
_cell_angle_gamma                 90.0000
loop_
_atom_site_label
_atom_site_type_symbol
_atom_site_fract_x
_atom_site_fract_y
_atom_site_fract_z
_atom_site_U_iso_or_equiv
_atom_site_adp_type
_atom_site_occupancy
C1     C     0.71730   0.48373   0.17696   0.00000  Uiso   1.00
C2     C     0.72789   0.44044   0.09612   0.00000  Uiso   1.00
C3     C     0.73680   0.40405   0.19579   0.00000  Uiso   1.00
C4     C     0.74571   0.36760   0.09629   0.00000  Uiso   1.00
C5     C     0.74950   0.51455   0.09611   0.00000  Uiso   1.00
C6     C     0.77658   0.54045   0.19579   0.00000  Uiso   1.00
C7     C     0.80369   0.56639   0.09629   0.00000  Uiso   1.00
C8     C     0.67452   0.49622   0.09612   0.00000  Uiso   1.00
C9     C     0.63856   0.50673   0.19579   0.00000  Uiso   1.00
C10    C     0.60254   0.51725   0.09629   0.00000  Uiso   1.00
H11    H     0.71731   0.48374   0.32663   0.00000  Uiso   1.00
H12    H     0.73680   0.40406   0.34455   0.00000  Uiso   1.00
H13    H     0.77657   0.54045   0.34455   0.00000  Uiso   1.00
H14    H     0.63857   0.50672   0.34455   0.00000  Uiso   1.00
H15    H     0.75842   0.31573   0.27965   0.00000  Uiso   1.00
H16    H     0.84227   0.60332   0.27965   0.00000  Uiso   1.00
H17    H     0.55127   0.53221   0.27965   0.00000  Uiso   1.00
N18    N     0.75574   0.32666   0.15048   0.00000  Uiso   1.00
N19    N     0.83414   0.59554   0.15048   0.00000  Uiso   1.00
N20    N     0.56208   0.52906   0.15048   0.00000  Uiso   1.00
C21    C     0.28270   0.51627   0.17696   0.00000  Uiso   1.00
C22    C     0.27211   0.55956   0.09612   0.00000  Uiso   1.00
C23    C     0.26320   0.59595   0.19579   0.00000  Uiso   1.00
C24    C     0.25429   0.63240   0.09629   0.00000  Uiso   1.00
C25    C     0.25050   0.48545   0.09611   0.00000  Uiso   1.00
C26    C     0.22342   0.45955   0.19579   0.00000  Uiso   1.00
C27    C     0.19631   0.43361   0.09629   0.00000  Uiso   1.00
C28    C     0.32548   0.50378   0.09612   0.00000  Uiso   1.00
C29    C     0.36144   0.49327   0.19579   0.00000  Uiso   1.00
C30    C     0.39746   0.48275   0.09629   0.00000  Uiso   1.00
H31    H     0.28269   0.51626   0.32663   0.00000  Uiso   1.00
H32    H     0.26320   0.59594   0.34455   0.00000  Uiso   1.00
H33    H     0.22343   0.45955   0.34455   0.00000  Uiso   1.00
H34    H     0.36143   0.49328   0.34455   0.00000  Uiso   1.00
H35    H     0.24158   0.68427   0.27965   0.00000  Uiso   1.00
H36    H     0.15773   0.39668   0.27965   0.00000  Uiso   1.00
H37    H     0.44873   0.46779   0.27965   0.00000  Uiso   1.00
N38    N     0.24426   0.67334   0.15048   0.00000  Uiso   1.00
N39    N     0.16586   0.40446   0.15048   0.00000  Uiso   1.00
N40    N     0.43792   0.47094   0.15048   0.00000  Uiso   1.00
C41    C     0.51627   0.71730   0.67696   0.00000  Uiso   1.00
C42    C     0.55956   0.72789   0.59612   0.00000  Uiso   1.00
C43    C     0.59595   0.73680   0.69579   0.00000  Uiso   1.00
C44    C     0.63240   0.74571   0.59629   0.00000  Uiso   1.00
C45    C     0.48545   0.74950   0.59611   0.00000  Uiso   1.00
C46    C     0.45955   0.77658   0.69579   0.00000  Uiso   1.00
C47    C     0.43361   0.80369   0.59629   0.00000  Uiso   1.00
C48    C     0.50378   0.67452   0.59612   0.00000  Uiso   1.00
C49    C     0.49327   0.63856   0.69579   0.00000  Uiso   1.00
C50    C     0.48275   0.60254   0.59629   0.00000  Uiso   1.00
H51    H     0.51626   0.71731   0.82663   0.00000  Uiso   1.00
H52    H     0.59594   0.73680   0.84455   0.00000  Uiso   1.00
H53    H     0.45955   0.77657   0.84455   0.00000  Uiso   1.00
H54    H     0.49328   0.63857   0.84455   0.00000  Uiso   1.00
H55    H     0.68427   0.75842   0.77965   0.00000  Uiso   1.00
H56    H     0.39668   0.84227   0.77965   0.00000  Uiso   1.00
H57    H     0.46779   0.55127   0.77965   0.00000  Uiso   1.00
N58    N     0.67334   0.75574   0.65048   0.00000  Uiso   1.00
N59    N     0.40446   0.83414   0.65048   0.00000  Uiso   1.00
N60    N     0.47094   0.56208   0.65048   0.00000  Uiso   1.00
C61    C     0.48373   0.28270   0.67696   0.00000  Uiso   1.00
C62    C     0.44044   0.27211   0.59612   0.00000  Uiso   1.00
C63    C     0.40405   0.26320   0.69579   0.00000  Uiso   1.00
C64    C     0.36760   0.25429   0.59629   0.00000  Uiso   1.00
C65    C     0.51455   0.25050   0.59611   0.00000  Uiso   1.00
C66    C     0.54045   0.22342   0.69579   0.00000  Uiso   1.00
C67    C     0.56639   0.19631   0.59629   0.00000  Uiso   1.00
C68    C     0.49622   0.32548   0.59612   0.00000  Uiso   1.00
C69    C     0.50673   0.36144   0.69579   0.00000  Uiso   1.00
C70    C     0.51725   0.39746   0.59629   0.00000  Uiso   1.00
H71    H     0.48374   0.28269   0.82663   0.00000  Uiso   1.00
H72    H     0.40406   0.26320   0.84455   0.00000  Uiso   1.00
H73    H     0.54045   0.22343   0.84455   0.00000  Uiso   1.00
H74    H     0.50672   0.36143   0.84455   0.00000  Uiso   1.00
H75    H     0.31573   0.24158   0.77965   0.00000  Uiso   1.00
H76    H     0.60332   0.15773   0.77965   0.00000  Uiso   1.00
H77    H     0.53221   0.44873   0.77965   0.00000  Uiso   1.00
N78    N     0.32666   0.24426   0.65048   0.00000  Uiso   1.00
N79    N     0.59554   0.16586   0.65048   0.00000  Uiso   1.00
N80    N     0.52906   0.43792   0.65048   0.00000  Uiso   1.00
C81    C     0.78270   0.98373   0.82304   0.00000  Uiso   1.00
C82    C     0.77211   0.94044   0.90388   0.00000  Uiso   1.00
C83    C     0.76320   0.90405   0.80421   0.00000  Uiso   1.00
C84    C     0.75429   0.86760   0.90371   0.00000  Uiso   1.00
C85    C     0.75050   0.01455   0.90389   0.00000  Uiso   1.00
C86    C     0.72342   0.04045   0.80421   0.00000  Uiso   1.00
C87    C     0.69631   0.06639   0.90371   0.00000  Uiso   1.00
C88    C     0.82548   0.99622   0.90388   0.00000  Uiso   1.00
C89    C     0.86144   0.00673   0.80421   0.00000  Uiso   1.00
C90    C     0.89746   0.01725   0.90371   0.00000  Uiso   1.00
H91    H     0.78269   0.98374   0.67337   0.00000  Uiso   1.00
H92    H     0.76320   0.90406   0.65545   0.00000  Uiso   1.00
H93    H     0.72343   0.04045   0.65545   0.00000  Uiso   1.00
H94    H     0.86143   0.00672   0.65545   0.00000  Uiso   1.00
H95    H     0.74158   0.81573   0.72035   0.00000  Uiso   1.00
H96    H     0.65773   0.10332   0.72035   0.00000  Uiso   1.00
H97    H     0.94873   0.03221   0.72035   0.00000  Uiso   1.00
N98    N     0.74426   0.82666   0.84952   0.00000  Uiso   1.00
N99    N     0.66586   0.09554   0.84952   0.00000  Uiso   1.00
N100   N     0.93792   0.02906   0.84952   0.00000  Uiso   1.00
C101   C     0.21730   0.01627   0.82304   0.00000  Uiso   1.00
C102   C     0.22789   0.05956   0.90388   0.00000  Uiso   1.00
C103   C     0.23680   0.09595   0.80421   0.00000  Uiso   1.00
C104   C     0.24571   0.13240   0.90371   0.00000  Uiso   1.00
C105   C     0.24950   0.98545   0.90389   0.00000  Uiso   1.00
C106   C     0.27658   0.95955   0.80421   0.00000  Uiso   1.00
C107   C     0.30369   0.93361   0.90371   0.00000  Uiso   1.00
C108   C     0.17452   0.00378   0.90388   0.00000  Uiso   1.00
C109   C     0.13856   0.99327   0.80421   0.00000  Uiso   1.00
C110   C     0.10254   0.98275   0.90371   0.00000  Uiso   1.00
H111   H     0.21731   0.01626   0.67337   0.00000  Uiso   1.00
H112   H     0.23680   0.09594   0.65545   0.00000  Uiso   1.00
H113   H     0.27657   0.95955   0.65545   0.00000  Uiso   1.00
H114   H     0.13857   0.99328   0.65545   0.00000  Uiso   1.00
H115   H     0.25842   0.18427   0.72035   0.00000  Uiso   1.00
H116   H     0.34227   0.89668   0.72035   0.00000  Uiso   1.00
H117   H     0.05127   0.96779   0.72035   0.00000  Uiso   1.00
N118   N     0.25574   0.17334   0.84952   0.00000  Uiso   1.00
N119   N     0.33414   0.90446   0.84952   0.00000  Uiso   1.00
N120   N     0.06208   0.97094   0.84952   0.00000  Uiso   1.00
C121   C     0.98373   0.21730   0.32304   0.00000  Uiso   1.00
C122   C     0.94044   0.22789   0.40388   0.00000  Uiso   1.00
C123   C     0.90405   0.23680   0.30421   0.00000  Uiso   1.00
C124   C     0.86760   0.24571   0.40371   0.00000  Uiso   1.00
C125   C     0.01455   0.24950   0.40389   0.00000  Uiso   1.00
C126   C     0.04045   0.27658   0.30421   0.00000  Uiso   1.00
C127   C     0.06639   0.30369   0.40371   0.00000  Uiso   1.00
C128   C     0.99622   0.17452   0.40388   0.00000  Uiso   1.00
C129   C     0.00673   0.13856   0.30421   0.00000  Uiso   1.00
C130   C     0.01725   0.10254   0.40371   0.00000  Uiso   1.00
H131   H     0.98374   0.21731   0.17337   0.00000  Uiso   1.00
H132   H     0.90406   0.23680   0.15545   0.00000  Uiso   1.00
H133   H     0.04045   0.27657   0.15545   0.00000  Uiso   1.00
H134   H     0.00672   0.13857   0.15545   0.00000  Uiso   1.00
H135   H     0.81573   0.25842   0.22035   0.00000  Uiso   1.00
H136   H     0.10332   0.34227   0.22035   0.00000  Uiso   1.00
H137   H     0.03221   0.05127   0.22035   0.00000  Uiso   1.00
N138   N     0.82666   0.25574   0.34952   0.00000  Uiso   1.00
N139   N     0.09554   0.33414   0.34952   0.00000  Uiso   1.00
N140   N     0.02906   0.06208   0.34952   0.00000  Uiso   1.00
C141   C     0.01627   0.78270   0.32304   0.00000  Uiso   1.00
C142   C     0.05956   0.77211   0.40388   0.00000  Uiso   1.00
C143   C     0.09595   0.76320   0.30421   0.00000  Uiso   1.00
C144   C     0.13240   0.75429   0.40371   0.00000  Uiso   1.00
C145   C     0.98545   0.75050   0.40389   0.00000  Uiso   1.00
C146   C     0.95955   0.72342   0.30421   0.00000  Uiso   1.00
C147   C     0.93361   0.69631   0.40371   0.00000  Uiso   1.00
C148   C     0.00378   0.82548   0.40388   0.00000  Uiso   1.00
C149   C     0.99327   0.86144   0.30421   0.00000  Uiso   1.00
C150   C     0.98275   0.89746   0.40371   0.00000  Uiso   1.00
H151   H     0.01626   0.78269   0.17337   0.00000  Uiso   1.00
H152   H     0.09594   0.76320   0.15545   0.00000  Uiso   1.00
H153   H     0.95955   0.72343   0.15545   0.00000  Uiso   1.00
H154   H     0.99328   0.86143   0.15545   0.00000  Uiso   1.00
H155   H     0.18427   0.74158   0.22035   0.00000  Uiso   1.00
H156   H     0.89668   0.65773   0.22035   0.00000  Uiso   1.00
H157   H     0.96779   0.94873   0.22035   0.00000  Uiso   1.00
N158   N     0.17334   0.74426   0.34952   0.00000  Uiso   1.00
N159   N     0.90446   0.66586   0.34952   0.00000  Uiso   1.00
N160   N     0.97094   0.93792   0.34952   0.00000  Uiso   1.00
C161   C     0.28270   0.51627   0.82304   0.00000  Uiso   1.00
C162   C     0.27211   0.55956   0.90388   0.00000  Uiso   1.00
C163   C     0.26320   0.59595   0.80421   0.00000  Uiso   1.00
C164   C     0.25429   0.63240   0.90371   0.00000  Uiso   1.00
C165   C     0.25050   0.48545   0.90389   0.00000  Uiso   1.00
C166   C     0.22342   0.45955   0.80421   0.00000  Uiso   1.00
C167   C     0.19631   0.43361   0.90371   0.00000  Uiso   1.00
C168   C     0.32548   0.50378   0.90388   0.00000  Uiso   1.00
C169   C     0.36144   0.49327   0.80421   0.00000  Uiso   1.00
C170   C     0.39746   0.48275   0.90371   0.00000  Uiso   1.00
H171   H     0.28269   0.51626   0.67337   0.00000  Uiso   1.00
H172   H     0.26320   0.59594   0.65545   0.00000  Uiso   1.00
H173   H     0.22343   0.45955   0.65545   0.00000  Uiso   1.00
H174   H     0.36143   0.49328   0.65545   0.00000  Uiso   1.00
H175   H     0.24158   0.68427   0.72035   0.00000  Uiso   1.00
H176   H     0.15773   0.39668   0.72035   0.00000  Uiso   1.00
H177   H     0.44873   0.46779   0.72035   0.00000  Uiso   1.00
N178   N     0.24426   0.67334   0.84952   0.00000  Uiso   1.00
N179   N     0.16586   0.40446   0.84952   0.00000  Uiso   1.00
N180   N     0.43792   0.47094   0.84952   0.00000  Uiso   1.00
C181   C     0.71730   0.48373   0.82304   0.00000  Uiso   1.00
C182   C     0.72789   0.44044   0.90388   0.00000  Uiso   1.00
C183   C     0.73680   0.40405   0.80421   0.00000  Uiso   1.00
C184   C     0.74571   0.36760   0.90371   0.00000  Uiso   1.00
C185   C     0.74950   0.51455   0.90389   0.00000  Uiso   1.00
C186   C     0.77658   0.54045   0.80421   0.00000  Uiso   1.00
C187   C     0.80369   0.56639   0.90371   0.00000  Uiso   1.00
C188   C     0.67452   0.49622   0.90388   0.00000  Uiso   1.00
C189   C     0.63856   0.50673   0.80421   0.00000  Uiso   1.00
C190   C     0.60254   0.51725   0.90371   0.00000  Uiso   1.00
H191   H     0.71731   0.48374   0.67337   0.00000  Uiso   1.00
H192   H     0.73680   0.40406   0.65545   0.00000  Uiso   1.00
H193   H     0.77657   0.54045   0.65545   0.00000  Uiso   1.00
H194   H     0.63857   0.50672   0.65545   0.00000  Uiso   1.00
H195   H     0.75842   0.31573   0.72035   0.00000  Uiso   1.00
H196   H     0.84227   0.60332   0.72035   0.00000  Uiso   1.00
H197   H     0.55127   0.53221   0.72035   0.00000  Uiso   1.00
N198   N     0.75574   0.32666   0.84952   0.00000  Uiso   1.00
N199   N     0.83414   0.59554   0.84952   0.00000  Uiso   1.00
N200   N     0.56208   0.52906   0.84952   0.00000  Uiso   1.00
C201   C     0.48373   0.28270   0.32304   0.00000  Uiso   1.00
C202   C     0.44044   0.27211   0.40388   0.00000  Uiso   1.00
C203   C     0.40405   0.26320   0.30421   0.00000  Uiso   1.00
C204   C     0.36760   0.25429   0.40371   0.00000  Uiso   1.00
C205   C     0.51455   0.25050   0.40389   0.00000  Uiso   1.00
C206   C     0.54045   0.22342   0.30421   0.00000  Uiso   1.00
C207   C     0.56639   0.19631   0.40371   0.00000  Uiso   1.00
C208   C     0.49622   0.32548   0.40388   0.00000  Uiso   1.00
C209   C     0.50673   0.36144   0.30421   0.00000  Uiso   1.00
C210   C     0.51725   0.39746   0.40371   0.00000  Uiso   1.00
H211   H     0.48374   0.28269   0.17337   0.00000  Uiso   1.00
H212   H     0.40406   0.26320   0.15545   0.00000  Uiso   1.00
H213   H     0.54045   0.22343   0.15545   0.00000  Uiso   1.00
H214   H     0.50672   0.36143   0.15545   0.00000  Uiso   1.00
H215   H     0.31573   0.24158   0.22035   0.00000  Uiso   1.00
H216   H     0.60332   0.15773   0.22035   0.00000  Uiso   1.00
H217   H     0.53221   0.44873   0.22035   0.00000  Uiso   1.00
N218   N     0.32666   0.24426   0.34952   0.00000  Uiso   1.00
N219   N     0.59554   0.16586   0.34952   0.00000  Uiso   1.00
N220   N     0.52906   0.43792   0.34952   0.00000  Uiso   1.00
C221   C     0.51627   0.71730   0.32304   0.00000  Uiso   1.00
C222   C     0.55956   0.72789   0.40388   0.00000  Uiso   1.00
C223   C     0.59595   0.73680   0.30421   0.00000  Uiso   1.00
C224   C     0.63240   0.74571   0.40371   0.00000  Uiso   1.00
C225   C     0.48545   0.74950   0.40389   0.00000  Uiso   1.00
C226   C     0.45955   0.77658   0.30421   0.00000  Uiso   1.00
C227   C     0.43361   0.80369   0.40371   0.00000  Uiso   1.00
C228   C     0.50378   0.67452   0.40388   0.00000  Uiso   1.00
C229   C     0.49327   0.63856   0.30421   0.00000  Uiso   1.00
C230   C     0.48275   0.60254   0.40371   0.00000  Uiso   1.00
H231   H     0.51626   0.71731   0.17337   0.00000  Uiso   1.00
H232   H     0.59594   0.73680   0.15545   0.00000  Uiso   1.00
H233   H     0.45955   0.77657   0.15545   0.00000  Uiso   1.00
H234   H     0.49328   0.63857   0.15545   0.00000  Uiso   1.00
H235   H     0.68427   0.75842   0.22035   0.00000  Uiso   1.00
H236   H     0.39668   0.84227   0.22035   0.00000  Uiso   1.00
H237   H     0.46779   0.55127   0.22035   0.00000  Uiso   1.00
N238   N     0.67334   0.75574   0.34952   0.00000  Uiso   1.00
N239   N     0.40446   0.83414   0.34952   0.00000  Uiso   1.00
N240   N     0.47094   0.56208   0.34952   0.00000  Uiso   1.00
C241   C     0.21730   0.01627   0.17696   0.00000  Uiso   1.00
C242   C     0.22789   0.05956   0.09612   0.00000  Uiso   1.00
C243   C     0.23680   0.09595   0.19579   0.00000  Uiso   1.00
C244   C     0.24571   0.13240   0.09629   0.00000  Uiso   1.00
C245   C     0.24950   0.98545   0.09611   0.00000  Uiso   1.00
C246   C     0.27658   0.95955   0.19579   0.00000  Uiso   1.00
C247   C     0.30369   0.93361   0.09629   0.00000  Uiso   1.00
C248   C     0.17452   0.00378   0.09612   0.00000  Uiso   1.00
C249   C     0.13856   0.99327   0.19579   0.00000  Uiso   1.00
C250   C     0.10254   0.98275   0.09629   0.00000  Uiso   1.00
H251   H     0.21731   0.01626   0.32663   0.00000  Uiso   1.00
H252   H     0.23680   0.09594   0.34455   0.00000  Uiso   1.00
H253   H     0.27657   0.95955   0.34455   0.00000  Uiso   1.00
H254   H     0.13857   0.99328   0.34455   0.00000  Uiso   1.00
H255   H     0.25842   0.18427   0.27965   0.00000  Uiso   1.00
H256   H     0.34227   0.89668   0.27965   0.00000  Uiso   1.00
H257   H     0.05127   0.96779   0.27965   0.00000  Uiso   1.00
N258   N     0.25574   0.17334   0.15048   0.00000  Uiso   1.00
N259   N     0.33414   0.90446   0.15048   0.00000  Uiso   1.00
N260   N     0.06208   0.97094   0.15048   0.00000  Uiso   1.00
C261   C     0.78270   0.98373   0.17696   0.00000  Uiso   1.00
C262   C     0.77211   0.94044   0.09612   0.00000  Uiso   1.00
C263   C     0.76320   0.90405   0.19579   0.00000  Uiso   1.00
C264   C     0.75429   0.86760   0.09629   0.00000  Uiso   1.00
C265   C     0.75050   0.01455   0.09611   0.00000  Uiso   1.00
C266   C     0.72342   0.04045   0.19579   0.00000  Uiso   1.00
C267   C     0.69631   0.06639   0.09629   0.00000  Uiso   1.00
C268   C     0.82548   0.99622   0.09612   0.00000  Uiso   1.00
C269   C     0.86144   0.00673   0.19579   0.00000  Uiso   1.00
C270   C     0.89746   0.01725   0.09629   0.00000  Uiso   1.00
H271   H     0.78269   0.98374   0.32663   0.00000  Uiso   1.00
H272   H     0.76320   0.90406   0.34455   0.00000  Uiso   1.00
H273   H     0.72343   0.04045   0.34455   0.00000  Uiso   1.00
H274   H     0.86143   0.00672   0.34455   0.00000  Uiso   1.00
H275   H     0.74158   0.81573   0.27965   0.00000  Uiso   1.00
H276   H     0.65773   0.10332   0.27965   0.00000  Uiso   1.00
H277   H     0.94873   0.03221   0.27965   0.00000  Uiso   1.00
N278   N     0.74426   0.82666   0.15048   0.00000  Uiso   1.00
N279   N     0.66586   0.09554   0.15048   0.00000  Uiso   1.00
N280   N     0.93792   0.02906   0.15048   0.00000  Uiso   1.00
C281   C     0.01627   0.78270   0.67696   0.00000  Uiso   1.00
C282   C     0.05956   0.77211   0.59612   0.00000  Uiso   1.00
C283   C     0.09595   0.76320   0.69579   0.00000  Uiso   1.00
C284   C     0.13240   0.75429   0.59629   0.00000  Uiso   1.00
C285   C     0.98545   0.75050   0.59611   0.00000  Uiso   1.00
C286   C     0.95955   0.72342   0.69579   0.00000  Uiso   1.00
C287   C     0.93361   0.69631   0.59629   0.00000  Uiso   1.00
C288   C     0.00378   0.82548   0.59612   0.00000  Uiso   1.00
C289   C     0.99327   0.86144   0.69579   0.00000  Uiso   1.00
C290   C     0.98275   0.89746   0.59629   0.00000  Uiso   1.00
H291   H     0.01626   0.78269   0.82663   0.00000  Uiso   1.00
H292   H     0.09594   0.76320   0.84455   0.00000  Uiso   1.00
H293   H     0.95955   0.72343   0.84455   0.00000  Uiso   1.00
H294   H     0.99328   0.86143   0.84455   0.00000  Uiso   1.00
H295   H     0.18427   0.74158   0.77965   0.00000  Uiso   1.00
H296   H     0.89668   0.65773   0.77965   0.00000  Uiso   1.00
H297   H     0.96779   0.94873   0.77965   0.00000  Uiso   1.00
N298   N     0.17334   0.74426   0.65048   0.00000  Uiso   1.00
N299   N     0.90446   0.66586   0.65048   0.00000  Uiso   1.00
N300   N     0.97094   0.93792   0.65048   0.00000  Uiso   1.00
C301   C     0.98373   0.21730   0.67696   0.00000  Uiso   1.00
C302   C     0.94044   0.22789   0.59612   0.00000  Uiso   1.00
C303   C     0.90405   0.23680   0.69579   0.00000  Uiso   1.00
C304   C     0.86760   0.24571   0.59629   0.00000  Uiso   1.00
C305   C     0.01455   0.24950   0.59611   0.00000  Uiso   1.00
C306   C     0.04045   0.27658   0.69579   0.00000  Uiso   1.00
C307   C     0.06639   0.30369   0.59629   0.00000  Uiso   1.00
C308   C     0.99622   0.17452   0.59612   0.00000  Uiso   1.00
C309   C     0.00673   0.13856   0.69579   0.00000  Uiso   1.00
C310   C     0.01725   0.10254   0.59629   0.00000  Uiso   1.00
H311   H     0.98374   0.21731   0.82663   0.00000  Uiso   1.00
H312   H     0.90406   0.23680   0.84455   0.00000  Uiso   1.00
H313   H     0.04045   0.27657   0.84455   0.00000  Uiso   1.00
H314   H     0.00672   0.13857   0.84455   0.00000  Uiso   1.00
H315   H     0.81573   0.25842   0.77965   0.00000  Uiso   1.00
H316   H     0.10332   0.34227   0.77965   0.00000  Uiso   1.00
H317   H     0.03221   0.05127   0.77965   0.00000  Uiso   1.00
N318   N     0.82666   0.25574   0.65048   0.00000  Uiso   1.00
N319   N     0.09554   0.33414   0.65048   0.00000  Uiso   1.00
N320   N     0.02906   0.06208   0.65048   0.00000  Uiso   1.00
C321   C     0.76217   0.30039  -0.00000   0.00000  Uiso   1.00
C322   C     0.85368   0.61424  -0.00000   0.00000  Uiso   1.00
C323   C     0.53611   0.53664  -0.00000   0.00000  Uiso   1.00
O324   O     0.77126   0.26332  -0.00000   0.00000  Uiso   1.00
O325   O     0.88125   0.64064  -0.00000   0.00000  Uiso   1.00
O326   O     0.49947   0.54733  -0.00000   0.00000  Uiso   1.00
C327   C     0.23783   0.69961  -0.00000   0.00000  Uiso   1.00
C328   C     0.14632   0.38576  -0.00000   0.00000  Uiso   1.00
C329   C     0.46389   0.46336  -0.00000   0.00000  Uiso   1.00
O330   O     0.22874   0.73668  -0.00000   0.00000  Uiso   1.00
O331   O     0.11875   0.35936  -0.00000   0.00000  Uiso   1.00
O332   O     0.50053   0.45267  -0.00000   0.00000  Uiso   1.00
C333   C     0.69961   0.76217   0.50000   0.00000  Uiso   1.00
C334   C     0.38576   0.85368   0.50000   0.00000  Uiso   1.00
C335   C     0.46336   0.53611   0.50000   0.00000  Uiso   1.00
O336   O     0.73668   0.77126   0.50000   0.00000  Uiso   1.00
O337   O     0.35936   0.88125   0.50000   0.00000  Uiso   1.00
O338   O     0.45267   0.49947   0.50000   0.00000  Uiso   1.00
C339   C     0.30039   0.23783   0.50000   0.00000  Uiso   1.00
C340   C     0.61424   0.14632   0.50000   0.00000  Uiso   1.00
C341   C     0.53664   0.46389   0.50000   0.00000  Uiso   1.00
O342   O     0.26332   0.22874   0.50000   0.00000  Uiso   1.00
O343   O     0.64064   0.11875   0.50000   0.00000  Uiso   1.00
O344   O     0.54733   0.50053   0.50000   0.00000  Uiso   1.00
C345   C     0.73783   0.80039   0.00000   0.00000  Uiso   1.00
C346   C     0.64632   0.11424   0.00000   0.00000  Uiso   1.00
C347   C     0.96389   0.03664   0.00000   0.00000  Uiso   1.00
O348   O     0.72874   0.76332   0.00000   0.00000  Uiso   1.00
O349   O     0.61875   0.14064   0.00000   0.00000  Uiso   1.00
O350   O     0.00053   0.04733   0.00000   0.00000  Uiso   1.00
C351   C     0.26217   0.19961   0.00000   0.00000  Uiso   1.00
C352   C     0.35368   0.88576   0.00000   0.00000  Uiso   1.00
C353   C     0.03611   0.96336   0.00000   0.00000  Uiso   1.00
O354   O     0.27126   0.23668   0.00000   0.00000  Uiso   1.00
O355   O     0.38125   0.85936   0.00000   0.00000  Uiso   1.00
O356   O     0.99947   0.95267   0.00000   0.00000  Uiso   1.00
C357   C     0.80039   0.26217   0.50000   0.00000  Uiso   1.00
C358   C     0.11424   0.35368   0.50000   0.00000  Uiso   1.00
C359   C     0.03664   0.03611   0.50000   0.00000  Uiso   1.00
O360   O     0.76332   0.27126   0.50000   0.00000  Uiso   1.00
O361   O     0.14064   0.38125   0.50000   0.00000  Uiso   1.00
O362   O     0.04733   0.99947   0.50000   0.00000  Uiso   1.00
C363   C     0.19961   0.73783   0.50000   0.00000  Uiso   1.00
C364   C     0.88576   0.64632   0.50000   0.00000  Uiso   1.00
C365   C     0.96336   0.96389   0.50000   0.00000  Uiso   1.00
O366   O     0.23668   0.72874   0.50000   0.00000  Uiso   1.00
O367   O     0.85936   0.61875   0.50000   0.00000  Uiso   1.00
O368   O     0.95267   0.00053   0.50000   0.00000  Uiso   1.00
