data_job_07018
_audit_creation_date              2018-12-19
_audit_creation_method            'Materials Studio'
_symmetry_space_group_name_H-M    'P1'
_symmetry_Int_Tables_number       1
_symmetry_cell_setting            triclinic
loop_
_symmetry_equiv_pos_as_xyz
  x,y,z
_cell_length_a                    23.5026
_cell_length_b                    23.6784
_cell_length_c                    24.1383
_cell_angle_alpha                 98.8309
_cell_angle_beta                  62.2002
_cell_angle_gamma                 102.8543
loop_
_atom_site_label
_atom_site_type_symbol
_atom_site_fract_x
_atom_site_fract_y
_atom_site_fract_z
_atom_site_U_iso_or_equiv
_atom_site_adp_type
_atom_site_occupancy
C1     C     0.96717   0.51893   0.77035   0.00000  Uiso   1.00
C2     C     0.92604   0.53558   0.83927   0.00000  Uiso   1.00
C3     C     0.94767   0.54788   0.88509   0.00000  Uiso   1.00
C4     C     0.90250   0.56221   0.94538   0.00000  Uiso   1.00
C5     C     0.84844   0.58774   0.05028   0.00000  Uiso   1.00
C6     C     0.93132   0.46080   0.75634   0.00000  Uiso   1.00
C7     C     0.95738   0.41024   0.73242   0.00000  Uiso   1.00
C8     C     0.91666   0.36163   0.72289   0.00000  Uiso   1.00
C9     C     0.87080   0.27108   0.69900   0.00000  Uiso   1.00
C10    C     0.96283   0.56283   0.73300   0.00000  Uiso   1.00
C11    C     0.01539   0.59805   0.68944   0.00000  Uiso   1.00
C12    C     0.00120   0.63533   0.66025   0.00000  Uiso   1.00
C13    C     0.00427   0.70320   0.60012   0.00000  Uiso   1.00
C14    C     0.84851   0.52249   0.79595   0.00000  Uiso   1.00
C15    C     0.86159   0.53751   0.85317   0.00000  Uiso   1.00
C16    C     0.81638   0.55183   0.91341   0.00000  Uiso   1.00
C17    C     0.83794   0.56415   0.95931   0.00000  Uiso   1.00
C18    C     0.86687   0.46274   0.77024   0.00000  Uiso   1.00
C19    C     0.82610   0.41419   0.76074   0.00000  Uiso   1.00
C20    C     0.85209   0.36357   0.73682   0.00000  Uiso   1.00
C21    C     0.89838   0.56478   0.74690   0.00000  Uiso   1.00
C22    C     0.88411   0.60200   0.71777   0.00000  Uiso   1.00
C23    C     0.93663   0.63727   0.67418   0.00000  Uiso   1.00
H24    H     0.01735   0.51741   0.75952   0.00000  Uiso   1.00
H25    H     0.99755   0.54637   0.87431   0.00000  Uiso   1.00
H26    H     0.00726   0.40876   0.72166   0.00000  Uiso   1.00
H27    H     0.06526   0.59654   0.67869   0.00000  Uiso   1.00
H28    H     0.94717   0.57931   0.00771   0.00000  Uiso   1.00
H29    H     0.96766   0.28915   0.68581   0.00000  Uiso   1.00
H30    H     0.08996   0.68512   0.59521   0.00000  Uiso   1.00
H31    H     0.79833   0.52400   0.80678   0.00000  Uiso   1.00
H32    H     0.76651   0.55332   0.92416   0.00000  Uiso   1.00
H33    H     0.77623   0.41571   0.77151   0.00000  Uiso   1.00
H34    H     0.83422   0.60349   0.72854   0.00000  Uiso   1.00
H35    H     0.75965   0.58495   0.04817   0.00000  Uiso   1.00
H36    H     0.78014   0.29479   0.72627   0.00000  Uiso   1.00
H37    H     0.90244   0.69076   0.63567   0.00000  Uiso   1.00
O38    O     0.83642   0.60128   0.10431   0.00000  Uiso   1.00
O39    O     0.86331   0.22060   0.68198   0.00000  Uiso   1.00
O40    O     0.02376   0.74011   0.56311   0.00000  Uiso   1.00
N41    N     0.90740   0.57662   0.00112   0.00000  Uiso   1.00
N42    N     0.92656   0.30534   0.70018   0.00000  Uiso   1.00
N43    N     0.04090   0.67553   0.61546   0.00000  Uiso   1.00
N44    N     0.80650   0.57966   0.02289   0.00000  Uiso   1.00
N45    N     0.82566   0.30837   0.72195   0.00000  Uiso   1.00
N46    N     0.94000   0.67857   0.63723   0.00000  Uiso   1.00
C47    C     0.25087   0.14106   0.33548   0.00000  Uiso   1.00
C48    C     0.29720   0.10959   0.34207   0.00000  Uiso   1.00
C49    C     0.29271   0.04987   0.33917   0.00000  Uiso   1.00
C50    C     0.33985   0.02961   0.34632   0.00000  Uiso   1.00
C51    C     0.40420   0.97494   0.35511   0.00000  Uiso   1.00
C52    C     0.22480   0.18057   0.39478   0.00000  Uiso   1.00
C53    C     0.15944   0.18054   0.43618   0.00000  Uiso   1.00
C54    C     0.14564   0.22004   0.48769   0.00000  Uiso   1.00
C55    C     0.09758   0.27560   0.57829   0.00000  Uiso   1.00
C56    C     0.29345   0.18114   0.28183   0.00000  Uiso   1.00
C57    C     0.28579   0.18160   0.22827   0.00000  Uiso   1.00
C58    C     0.32978   0.22159   0.18469   0.00000  Uiso   1.00
C59    C     0.38830   0.27804   0.09991   0.00000  Uiso   1.00
C60    C     0.34257   0.21129   0.35334   0.00000  Uiso   1.00
C61    C     0.34701   0.14774   0.35177   0.00000  Uiso   1.00
C62    C     0.39417   0.12756   0.35893   0.00000  Uiso   1.00
C63    C     0.38976   0.06782   0.35603   0.00000  Uiso   1.00
C64    C     0.27461   0.21872   0.40448   0.00000  Uiso   1.00
C65    C     0.26090   0.25823   0.45594   0.00000  Uiso   1.00
C66    C     0.19554   0.25825   0.49741   0.00000  Uiso   1.00
C67    C     0.34326   0.21929   0.29153   0.00000  Uiso   1.00
C68    C     0.38725   0.25929   0.24802   0.00000  Uiso   1.00
C69    C     0.37967   0.25981   0.19441   0.00000  Uiso   1.00
H70    H     0.21209   0.11137   0.32793   0.00000  Uiso   1.00
H71    H     0.25416   0.02037   0.33167   0.00000  Uiso   1.00
H72    H     0.12091   0.15102   0.42866   0.00000  Uiso   1.00
H73    H     0.24724   0.15208   0.22078   0.00000  Uiso   1.00
H74    H     0.32275   0.93629   0.34011   0.00000  Uiso   1.00
H75    H     0.04178   0.21179   0.54461   0.00000  Uiso   1.00
H76    H     0.30819   0.21403   0.10625   0.00000  Uiso   1.00
H77    H     0.38135   0.24098   0.36089   0.00000  Uiso   1.00
H78    H     0.43271   0.15709   0.36643   0.00000  Uiso   1.00
H79    H     0.29946   0.28774   0.46343   0.00000  Uiso   1.00
H80    H     0.42579   0.28880   0.25555   0.00000  Uiso   1.00
H81    H     0.46766   0.04726   0.36833   0.00000  Uiso   1.00
H82    H     0.18670   0.32276   0.57283   0.00000  Uiso   1.00
H83    H     0.45310   0.32500   0.13447   0.00000  Uiso   1.00
O84    O     0.42592   0.93425   0.35729   0.00000  Uiso   1.00
O85    O     0.05731   0.29570   0.62558   0.00000  Uiso   1.00
O86    O     0.40682   0.29864   0.05047   0.00000  Uiso   1.00
N87    N     0.34981   0.97392   0.34598   0.00000  Uiso   1.00
N88    N     0.08713   0.23149   0.53718   0.00000  Uiso   1.00
N89    N     0.33618   0.23359   0.12736   0.00000  Uiso   1.00
N90    N     0.42779   0.03364   0.36116   0.00000  Uiso   1.00
N91    N     0.16511   0.29120   0.55236   0.00000  Uiso   1.00
N92    N     0.41416   0.29331   0.14254   0.00000  Uiso   1.00
C93    C     0.67041   0.00793   0.82913   0.00000  Uiso   1.00
C94    C     0.65240   0.95053   0.85953   0.00000  Uiso   1.00
C95    C     0.62894   0.94391   0.92305   0.00000  Uiso   1.00
C96    C     0.61534   0.88778   0.94152   0.00000  Uiso   1.00
C97    C     0.58595   0.80592   0.99534   0.00000  Uiso   1.00
C98    C     0.74117   0.01137   0.77919   0.00000  Uiso   1.00
C99    C     0.79234   0.05591   0.77515   0.00000  Uiso   1.00
C100   C     0.85347   0.05099   0.72598   0.00000  Uiso   1.00
C101   C     0.96189   0.06359   0.65504   0.00000  Uiso   1.00
C102   C     0.62972   0.00165   0.79377   0.00000  Uiso   1.00
C103   C     0.58719   0.03803   0.80197   0.00000  Uiso   1.00
C104   C     0.55450   0.02493   0.76506   0.00000  Uiso   1.00
C105   C     0.48987   0.02245   0.71675   0.00000  Uiso   1.00
C106   C     0.68798   0.92001   0.74900   0.00000  Uiso   1.00
C107   C     0.66194   0.90277   0.81600   0.00000  Uiso   1.00
C108   C     0.64837   0.84664   0.83438   0.00000  Uiso   1.00
C109   C     0.62490   0.83994   0.89792   0.00000  Uiso   1.00
C110   C     0.75071   0.96361   0.73566   0.00000  Uiso   1.00
C111   C     0.81178   0.95863   0.68649   0.00000  Uiso   1.00
C112   C     0.86304   0.00315   0.68238   0.00000  Uiso   1.00
C113   C     0.63926   0.95389   0.75024   0.00000  Uiso   1.00
C114   C     0.60663   0.94074   0.71331   0.00000  Uiso   1.00
C115   C     0.56406   0.97709   0.72145   0.00000  Uiso   1.00
H116   H     0.66299   0.04511   0.86302   0.00000  Uiso   1.00
H117   H     0.62157   0.98088   0.95672   0.00000  Uiso   1.00
H118   H     0.78494   0.09286   0.80884   0.00000  Uiso   1.00
H119   H     0.57982   0.07498   0.83565   0.00000  Uiso   1.00
H120   H     0.57987   0.88861   0.04140   0.00000  Uiso   1.00
H121   H     0.92436   0.12473   0.72957   0.00000  Uiso   1.00
H122   H     0.49182   0.08703   0.78612   0.00000  Uiso   1.00
H123   H     0.69541   0.88283   0.71511   0.00000  Uiso   1.00
H124   H     0.65576   0.80969   0.80069   0.00000  Uiso   1.00
H125   H     0.81915   0.92167   0.65281   0.00000  Uiso   1.00
H126   H     0.61402   0.90378   0.67963   0.00000  Uiso   1.00
H127   H     0.60763   0.74967   0.91476   0.00000  Uiso   1.00
H128   H     0.95212   0.98579   0.60293   0.00000  Uiso   1.00
H129   H     0.51958   0.94808   0.65949   0.00000  Uiso   1.00
O130   O     0.56711   0.77396   0.03704   0.00000  Uiso   1.00
O131   O     0.01906   0.08374   0.62794   0.00000  Uiso   1.00
O132   O     0.45158   0.03427   0.70213   0.00000  Uiso   1.00
N133   N     0.59184   0.86595   0.99985   0.00000  Uiso   1.00
N134   N     0.91391   0.08670   0.70832   0.00000  Uiso   1.00
N135   N     0.50954   0.05146   0.76118   0.00000  Uiso   1.00
N136   N     0.60677   0.79118   0.93171   0.00000  Uiso   1.00
N137   N     0.92885   0.01193   0.64018   0.00000  Uiso   1.00
N138   N     0.52447   0.97669   0.69303   0.00000  Uiso   1.00
C139   C     0.15332   0.80931   0.33395   0.00000  Uiso   1.00
C140   C     0.17885   0.82096   0.38298   0.00000  Uiso   1.00
C141   C     0.14078   0.81942   0.44742   0.00000  Uiso   1.00
C142   C     0.17343   0.83134   0.48435   0.00000  Uiso   1.00
C143   C     0.20268   0.84743   0.56453   0.00000  Uiso   1.00
C144   C     0.18584   0.76032   0.28960   0.00000  Uiso   1.00
C145   C     0.15365   0.70780   0.27551   0.00000  Uiso   1.00
C146   C     0.19219   0.66869   0.23382   0.00000  Uiso   1.00
C147   C     0.23230   0.59065   0.16899   0.00000  Uiso   1.00
C148   C     0.18141   0.86303   0.29568   0.00000  Uiso   1.00
C149   C     0.14549   0.89685   0.28670   0.00000  Uiso   1.00
C150   C     0.18030   0.94420   0.25012   0.00000  Uiso   1.00
C151   C     0.21352   0.02563   0.19474   0.00000  Uiso   1.00
C152   C     0.27901   0.83323   0.28495   0.00000  Uiso   1.00
C153   C     0.24712   0.83395   0.35637   0.00000  Uiso   1.00
C154   C     0.27983   0.84589   0.39321   0.00000  Uiso   1.00
C155   C     0.24182   0.84437   0.45769   0.00000  Uiso   1.00
C156   C     0.25411   0.77332   0.26298   0.00000  Uiso   1.00
C157   C     0.29270   0.73427   0.22130   0.00000  Uiso   1.00
C158   C     0.26058   0.68170   0.20716   0.00000  Uiso   1.00
C159   C     0.24968   0.87602   0.26907   0.00000  Uiso   1.00
C160   C     0.28455   0.92332   0.23249   0.00000  Uiso   1.00
C161   C     0.24869   0.95722   0.22346   0.00000  Uiso   1.00
H162   H     0.10018   0.79918   0.35466   0.00000  Uiso   1.00
H163   H     0.08795   0.80935   0.46800   0.00000  Uiso   1.00
H164   H     0.10082   0.69776   0.29611   0.00000  Uiso   1.00
H165   H     0.09266   0.88678   0.30730   0.00000  Uiso   1.00
H166   H     0.10450   0.82634   0.58191   0.00000  Uiso   1.00
H167   H     0.13164   0.59104   0.21946   0.00000  Uiso   1.00
H168   H     0.11444   0.98963   0.24305   0.00000  Uiso   1.00
H169   H     0.33216   0.84335   0.26423   0.00000  Uiso   1.00
H170   H     0.33266   0.85594   0.37260   0.00000  Uiso   1.00
H171   H     0.34553   0.74435   0.20071   0.00000  Uiso   1.00
H172   H     0.33737   0.93337   0.21190   0.00000  Uiso   1.00
H173   H     0.30312   0.86415   0.50448   0.00000  Uiso   1.00
H174   H     0.33026   0.62885   0.14203   0.00000  Uiso   1.00
H175   H     0.31306   0.02744   0.16563   0.00000  Uiso   1.00
O176   O     0.19996   0.85271   0.61611   0.00000  Uiso   1.00
O177   O     0.23556   0.54402   0.14059   0.00000  Uiso   1.00
O178   O     0.21299   0.06696   0.17155   0.00000  Uiso   1.00
N179   N     0.15118   0.83352   0.54881   0.00000  Uiso   1.00
N180   N     0.17655   0.61353   0.20996   0.00000  Uiso   1.00
N181   N     0.16047   0.98617   0.23200   0.00000  Uiso   1.00
N182   N     0.25805   0.85387   0.50715   0.00000  Uiso   1.00
N183   N     0.28342   0.63387   0.16829   0.00000  Uiso   1.00
N184   N     0.26734   0.00651   0.19034   0.00000  Uiso   1.00
C185   C     0.67157   0.49330   0.28811   0.00000  Uiso   1.00
C186   C     0.63936   0.49866   0.35962   0.00000  Uiso   1.00
C187   C     0.61236   0.45282   0.39884   0.00000  Uiso   1.00
C188   C     0.58524   0.46677   0.46296   0.00000  Uiso   1.00
C189   C     0.53526   0.46632   0.57036   0.00000  Uiso   1.00
C190   C     0.74018   0.52875   0.26670   0.00000  Uiso   1.00
C191   C     0.79795   0.50822   0.22778   0.00000  Uiso   1.00
C192   C     0.85569   0.54751   0.21368   0.00000  Uiso   1.00
C193   C     0.96223   0.59379   0.17677   0.00000  Uiso   1.00
C194   C     0.63507   0.52532   0.26825   0.00000  Uiso   1.00
C195   C     0.60448   0.50190   0.23063   0.00000  Uiso   1.00
C196   C     0.57374   0.53831   0.21782   0.00000  Uiso   1.00
C197   C     0.51710   0.57926   0.18333   0.00000  Uiso   1.00
C198   C     0.67140   0.59960   0.33224   0.00000  Uiso   1.00
C199   C     0.63927   0.55640   0.38359   0.00000  Uiso   1.00
C200   C     0.61217   0.57043   0.44767   0.00000  Uiso   1.00
C201   C     0.58514   0.52461   0.48698   0.00000  Uiso   1.00
C202   C     0.74009   0.58649   0.29067   0.00000  Uiso   1.00
C203   C     0.79776   0.62583   0.27661   0.00000  Uiso   1.00
C204   C     0.85560   0.60535   0.23769   0.00000  Uiso   1.00
C205   C     0.63498   0.58306   0.29223   0.00000  Uiso   1.00
C206   C     0.60429   0.61951   0.27947   0.00000  Uiso   1.00
C207   C     0.57365   0.59615   0.24184   0.00000  Uiso   1.00
H208   H     0.67165   0.44834   0.26945   0.00000  Uiso   1.00
H209   H     0.61245   0.40814   0.38027   0.00000  Uiso   1.00
H210   H     0.79800   0.46353   0.20924   0.00000  Uiso   1.00
H211   H     0.60456   0.45722   0.21209   0.00000  Uiso   1.00
H212   H     0.54680   0.38903   0.51372   0.00000  Uiso   1.00
H213   H     0.93804   0.50584   0.15306   0.00000  Uiso   1.00
H214   H     0.53014   0.49252   0.15908   0.00000  Uiso   1.00
H215   H     0.67133   0.64455   0.35090   0.00000  Uiso   1.00
H216   H     0.61211   0.61511   0.46621   0.00000  Uiso   1.00
H217   H     0.79766   0.67051   0.29517   0.00000  Uiso   1.00
H218   H     0.60423   0.66419   0.29802   0.00000  Uiso   1.00
H219   H     0.54652   0.55701   0.58346   0.00000  Uiso   1.00
H220   H     0.93777   0.67382   0.22280   0.00000  Uiso   1.00
H221   H     0.52987   0.66051   0.22882   0.00000  Uiso   1.00
O222   O     0.50773   0.45012   0.62297   0.00000  Uiso   1.00
O223   O     0.02103   0.60336   0.14979   0.00000  Uiso   1.00
O224   O     0.48587   0.58589   0.15769   0.00000  Uiso   1.00
N225   N     0.55485   0.43260   0.51431   0.00000  Uiso   1.00
N226   N     0.92064   0.54181   0.17712   0.00000  Uiso   1.00
N227   N     0.53930   0.52936   0.18273   0.00000  Uiso   1.00
N228   N     0.55470   0.52300   0.55184   0.00000  Uiso   1.00
N229   N     0.92049   0.63220   0.21465   0.00000  Uiso   1.00
N230   N     0.53915   0.61976   0.22026   0.00000  Uiso   1.00
C231   C     0.32908   0.55229   0.97817   0.00000  Uiso   1.00
C232   C     0.36110   0.51641   0.99934   0.00000  Uiso   1.00
C233   C     0.38948   0.53616   0.03945   0.00000  Uiso   1.00
C234   C     0.41615   0.49660   0.05311   0.00000  Uiso   1.00
C235   C     0.46609   0.44959   0.08990   0.00000  Uiso   1.00
C236   C     0.25972   0.51959   0.99624   0.00000  Uiso   1.00
C237   C     0.20288   0.54202   0.03374   0.00000  Uiso   1.00
C238   C     0.14422   0.50514   0.04478   0.00000  Uiso   1.00
C239   C     0.03678   0.46309   0.07672   0.00000  Uiso   1.00
C240   C     0.36427   0.54864   0.90666   0.00000  Uiso   1.00
C241   C     0.39532   0.59549   0.86883   0.00000  Uiso   1.00
C242   C     0.42467   0.58306   0.80445   0.00000  Uiso   1.00
C243   C     0.47956   0.58611   0.69730   0.00000  Uiso   1.00
C244   C     0.32596   0.44692   0.93109   0.00000  Uiso   1.00
C245   C     0.35940   0.45918   0.97377   0.00000  Uiso   1.00
C246   C     0.38603   0.41958   0.98737   0.00000  Uiso   1.00
C247   C     0.41446   0.43926   0.02749   0.00000  Uiso   1.00
C248   C     0.25803   0.46236   0.97067   0.00000  Uiso   1.00
C249   C     0.19943   0.42544   0.98165   0.00000  Uiso   1.00
C250   C     0.14252   0.44780   0.01916   0.00000  Uiso   1.00
C251   C     0.36258   0.49141   0.88109   0.00000  Uiso   1.00
C252   C     0.39188   0.47890   0.81675   0.00000  Uiso   1.00
C253   C     0.42297   0.52572   0.77883   0.00000  Uiso   1.00
H254   H     0.33039   0.59684   0.99808   0.00000  Uiso   1.00
H255   H     0.39078   0.58045   0.05924   0.00000  Uiso   1.00
H256   H     0.20421   0.58631   0.05352   0.00000  Uiso   1.00
H257   H     0.39662   0.63977   0.88864   0.00000  Uiso   1.00
H258   H     0.45696   0.53703   0.11579   0.00000  Uiso   1.00
H259   H     0.06357   0.54940   0.10371   0.00000  Uiso   1.00
H260   H     0.46931   0.66213   0.75603   0.00000  Uiso   1.00
H261   H     0.32464   0.40236   0.91118   0.00000  Uiso   1.00
H262   H     0.38472   0.37529   0.96757   0.00000  Uiso   1.00
H263   H     0.19814   0.38115   0.96185   0.00000  Uiso   1.00
H264   H     0.39056   0.43461   0.79697   0.00000  Uiso   1.00
H265   H     0.45203   0.37052   0.04139   0.00000  Uiso   1.00
H266   H     0.05864   0.38289   0.02931   0.00000  Uiso   1.00
H267   H     0.46439   0.49561   0.68163   0.00000  Uiso   1.00
O268   O     0.49410   0.43948   0.11727   0.00000  Uiso   1.00
O269   O     0.97799   0.45571   0.10141   0.00000  Uiso   1.00
O270   O     0.51031   0.60360   0.64526   0.00000  Uiso   1.00
N271   N     0.44757   0.50156   0.09053   0.00000  Uiso   1.00
N272   N     0.07977   0.51312   0.07924   0.00000  Uiso   1.00
N273   N     0.45909   0.61851   0.75419   0.00000  Uiso   1.00
N274   N     0.44492   0.41196   0.05049   0.00000  Uiso   1.00
N275   N     0.07712   0.42352   0.03921   0.00000  Uiso   1.00
N276   N     0.45644   0.52891   0.71416   0.00000  Uiso   1.00
C277   C     0.96734   0.24408   0.16565   0.00000  Uiso   1.00
C278   C     0.98479   0.23423   0.09604   0.00000  Uiso   1.00
C279   C     0.94062   0.22037   0.07095   0.00000  Uiso   1.00
C280   C     0.96633   0.21314   0.00608   0.00000  Uiso   1.00
C281   C     0.98316   0.19691   0.90382   0.00000  Uiso   1.00
C282   C     0.00337   0.30447   0.17348   0.00000  Uiso   1.00
C283   C     0.97482   0.34966   0.21352   0.00000  Uiso   1.00
C284   C     0.01618   0.40156   0.21385   0.00000  Uiso   1.00
C285   C     0.06185   0.49436   0.23187   0.00000  Uiso   1.00
C286   C     0.99900   0.20163   0.17904   0.00000  Uiso   1.00
C287   C     0.96678   0.16035   0.22376   0.00000  Uiso   1.00
C288   C     0.00447   0.12566   0.22877   0.00000  Uiso   1.00
C289   C     0.04336   0.05878   0.25541   0.00000  Uiso   1.00
C290   C     0.09156   0.25589   0.09505   0.00000  Uiso   1.00
C291   C     0.05226   0.24065   0.05769   0.00000  Uiso   1.00
C292   C     0.07805   0.23344   0.99284   0.00000  Uiso   1.00
C293   C     0.03392   0.21957   0.96766   0.00000  Uiso   1.00
C294   C     0.07083   0.31089   0.13514   0.00000  Uiso   1.00
C295   C     0.11225   0.36273   0.13541   0.00000  Uiso   1.00
C296   C     0.08377   0.40799   0.17543   0.00000  Uiso   1.00
C297   C     0.06647   0.20804   0.14069   0.00000  Uiso   1.00
C298   C     0.10421   0.17342   0.14564   0.00000  Uiso   1.00
C299   C     0.07206   0.13209   0.19036   0.00000  Uiso   1.00
H300   H     0.91482   0.23908   0.19550   0.00000  Uiso   1.00
H301   H     0.88841   0.21541   0.10064   0.00000  Uiso   1.00
H302   H     0.92261   0.34468   0.24319   0.00000  Uiso   1.00
H303   H     0.91457   0.15540   0.25342   0.00000  Uiso   1.00
H304   H     0.88888   0.19202   0.97855   0.00000  Uiso   1.00
H305   H     0.96099   0.46458   0.27915   0.00000  Uiso   1.00
H306   H     0.94405   0.06544   0.30073   0.00000  Uiso   1.00
H307   H     0.14409   0.26089   0.06520   0.00000  Uiso   1.00
H308   H     0.13026   0.23841   0.96318   0.00000  Uiso   1.00
H309   H     0.16446   0.36768   0.10573   0.00000  Uiso   1.00
H310   H     0.15642   0.17840   0.11596   0.00000  Uiso   1.00
H311   H     0.08518   0.21069   0.86699   0.00000  Uiso   1.00
H312   H     0.15729   0.48325   0.16759   0.00000  Uiso   1.00
H313   H     0.14035   0.08411   0.18916   0.00000  Uiso   1.00
O314   O     0.97380   0.18619   0.85801   0.00000  Uiso   1.00
O315   O     0.06841   0.54378   0.25239   0.00000  Uiso   1.00
O316   O     0.04617   0.02011   0.28070   0.00000  Uiso   1.00
N317   N     0.93698   0.19949   0.96630   0.00000  Uiso   1.00
N318   N     0.00440   0.45432   0.24733   0.00000  Uiso   1.00
N319   N     0.98856   0.08116   0.26751   0.00000  Uiso   1.00
N320   N     0.04260   0.20953   0.90626   0.00000  Uiso   1.00
N321   N     0.11002   0.46437   0.18730   0.00000  Uiso   1.00
N322   N     0.09418   0.09121   0.20748   0.00000  Uiso   1.00
C323   C     0.77384   0.70711   0.60064   0.00000  Uiso   1.00
C324   C     0.72780   0.73829   0.59320   0.00000  Uiso   1.00
C325   C     0.73974   0.79644   0.58161   0.00000  Uiso   1.00
C326   C     0.69149   0.81670   0.57634   0.00000  Uiso   1.00
C327   C     0.62885   0.87068   0.56383   0.00000  Uiso   1.00
C328   C     0.78546   0.65610   0.55198   0.00000  Uiso   1.00
C329   C     0.84587   0.64513   0.50573   0.00000  Uiso   1.00
C330   C     0.84615   0.59619   0.46576   0.00000  Uiso   1.00
C331   C     0.87303   0.52254   0.38928   0.00000  Uiso   1.00
C332   C     0.73501   0.68075   0.66444   0.00000  Uiso   1.00
C333   C     0.75300   0.69050   0.71275   0.00000  Uiso   1.00
C334   C     0.71081   0.66230   0.76746   0.00000  Uiso   1.00
C335   C     0.65935   0.62692   0.86560   0.00000  Uiso   1.00
C336   C     0.66693   0.63969   0.61189   0.00000  Uiso   1.00
C337   C     0.66973   0.70167   0.59931   0.00000  Uiso   1.00
C338   C     0.62145   0.72185   0.59406   0.00000  Uiso   1.00
C339   C     0.63331   0.78002   0.58246   0.00000  Uiso   1.00
C340   C     0.72739   0.61948   0.55809   0.00000  Uiso   1.00
C341   C     0.72759   0.57054   0.51818   0.00000  Uiso   1.00
C342   C     0.78798   0.55951   0.47189   0.00000  Uiso   1.00
C343   C     0.67693   0.64413   0.67055   0.00000  Uiso   1.00
C344   C     0.63471   0.61591   0.72520   0.00000  Uiso   1.00
C345   C     0.65264   0.62561   0.77359   0.00000  Uiso   1.00
H346   H     0.81906   0.73562   0.59587   0.00000  Uiso   1.00
H347   H     0.78469   0.82476   0.57687   0.00000  Uiso   1.00
H348   H     0.89080   0.67347   0.50101   0.00000  Uiso   1.00
H349   H     0.79794   0.71884   0.70800   0.00000  Uiso   1.00
H350   H     0.72099   0.90744   0.55848   0.00000  Uiso   1.00
H351   H     0.94473   0.58843   0.39854   0.00000  Uiso   1.00
H352   H     0.74893   0.68408   0.83501   0.00000  Uiso   1.00
H353   H     0.62172   0.61118   0.61665   0.00000  Uiso   1.00
H354   H     0.57652   0.69350   0.59879   0.00000  Uiso   1.00
H355   H     0.68264   0.54221   0.52293   0.00000  Uiso   1.00
H356   H     0.58978   0.58757   0.72992   0.00000  Uiso   1.00
H357   H     0.55203   0.80090   0.57627   0.00000  Uiso   1.00
H358   H     0.77578   0.48189   0.41633   0.00000  Uiso   1.00
H359   H     0.57997   0.57754   0.85280   0.00000  Uiso   1.00
O360   O     0.61035   0.91057   0.55523   0.00000  Uiso   1.00
O361   O     0.90390   0.49203   0.34540   0.00000  Uiso   1.00
O362   O     0.64700   0.61752   0.91804   0.00000  Uiso   1.00
N363   N     0.68742   0.87107   0.56513   0.00000  Uiso   1.00
N364   N     0.89661   0.57282   0.41559   0.00000  Uiso   1.00
N365   N     0.71356   0.66224   0.82365   0.00000  Uiso   1.00
N366   N     0.59651   0.81375   0.57470   0.00000  Uiso   1.00
N367   N     0.80570   0.51549   0.42516   0.00000  Uiso   1.00
N368   N     0.62264   0.60491   0.83322   0.00000  Uiso   1.00
C369   C     0.35430   0.62943   0.30064   0.00000  Uiso   1.00
C370   C     0.39427   0.68961   0.28171   0.00000  Uiso   1.00
C371   C     0.43600   0.70554   0.22081   0.00000  Uiso   1.00
C372   C     0.46812   0.76270   0.21330   0.00000  Uiso   1.00
C373   C     0.53158   0.85010   0.17606   0.00000  Uiso   1.00
C374   C     0.28340   0.63792   0.33874   0.00000  Uiso   1.00
C375   C     0.23191   0.61039   0.32581   0.00000  Uiso   1.00
C376   C     0.17070   0.62403   0.36632   0.00000  Uiso   1.00
C377   C     0.06202   0.63115   0.41765   0.00000  Uiso   1.00
C378   C     0.37346   0.61092   0.34654   0.00000  Uiso   1.00
C379   C     0.39768   0.56068   0.34017   0.00000  Uiso   1.00
C380   C     0.41228   0.55158   0.38725   0.00000  Uiso   1.00
C381   C     0.44344   0.51677   0.45069   0.00000  Uiso   1.00
C382   C     0.33715   0.70260   0.39560   0.00000  Uiso   1.00
C383   C     0.38496   0.72935   0.33329   0.00000  Uiso   1.00
C384   C     0.41703   0.78650   0.32587   0.00000  Uiso   1.00
C385   C     0.45879   0.80252   0.26497   0.00000  Uiso   1.00
C386   C     0.27409   0.67766   0.39032   0.00000  Uiso   1.00
C387   C     0.21294   0.69134   0.43087   0.00000  Uiso   1.00
C388   C     0.16137   0.66384   0.41799   0.00000  Uiso   1.00
C389   C     0.36415   0.65066   0.39812   0.00000  Uiso   1.00
C390   C     0.37871   0.64163   0.44522   0.00000  Uiso   1.00
C391   C     0.40295   0.59139   0.43892   0.00000  Uiso   1.00
H392   H     0.36155   0.59849   0.26049   0.00000  Uiso   1.00
H393   H     0.44319   0.67478   0.18091   0.00000  Uiso   1.00
H394   H     0.23913   0.57963   0.28589   0.00000  Uiso   1.00
H395   H     0.40488   0.52993   0.30025   0.00000  Uiso   1.00
H396   H     0.52958   0.77689   0.11543   0.00000  Uiso   1.00
H397   H     0.09931   0.57625   0.33680   0.00000  Uiso   1.00
H398   H     0.44882   0.47145   0.36707   0.00000  Uiso   1.00
H399   H     0.32990   0.73354   0.43576   0.00000  Uiso   1.00
H400   H     0.40981   0.81724   0.36579   0.00000  Uiso   1.00
H401   H     0.20575   0.72209   0.47078   0.00000  Uiso   1.00
H402   H     0.37150   0.67239   0.48513   0.00000  Uiso   1.00
H403   H     0.50248   0.89252   0.26549   0.00000  Uiso   1.00
H404   H     0.07221   0.69188   0.48686   0.00000  Uiso   1.00
H405   H     0.42173   0.58708   0.51713   0.00000  Uiso   1.00
O406   O     0.56915   0.88733   0.14127   0.00000  Uiso   1.00
O407   O     0.00465   0.62410   0.43171   0.00000  Uiso   1.00
O408   O     0.46321   0.48660   0.47142   0.00000  Uiso   1.00
N409   N     0.51225   0.79261   0.16034   0.00000  Uiso   1.00
N410   N     0.10997   0.60504   0.36731   0.00000  Uiso   1.00
N411   N     0.43672   0.50705   0.39562   0.00000  Uiso   1.00
N412   N     0.49767   0.85483   0.24109   0.00000  Uiso   1.00
N413   N     0.09539   0.66725   0.44806   0.00000  Uiso   1.00
N414   N     0.42214   0.56926   0.47637   0.00000  Uiso   1.00
C415   C     0.01000   0.91491   0.70131   0.00000  Uiso   1.00
C416   C     0.98953   0.89572   0.64899   0.00000  Uiso   1.00
C417   C     0.02579   0.91085   0.58713   0.00000  Uiso   1.00
C418   C     0.99853   0.88885   0.54644   0.00000  Uiso   1.00
C419   C     0.97607   0.86454   0.46210   0.00000  Uiso   1.00
C420   C     0.95561   0.94443   0.75315   0.00000  Uiso   1.00
C421   C     0.96334   0.00050   0.77886   0.00000  Uiso   1.00
C422   C     0.90753   0.01949   0.82585   0.00000  Uiso   1.00
C423   C     0.83240   0.07078   0.90324   0.00000  Uiso   1.00
C424   C     0.00749   0.85936   0.72765   0.00000  Uiso   1.00
C425   C     0.05885   0.84392   0.73195   0.00000  Uiso   1.00
C426   C     0.04672   0.79130   0.75749   0.00000  Uiso   1.00
C427   C     0.05215   0.71051   0.79530   0.00000  Uiso   1.00
C428   C     0.89712   0.84892   0.73906   0.00000  Uiso   1.00
C429   C     0.92822   0.85988   0.66950   0.00000  Uiso   1.00
C430   C     0.90090   0.83785   0.62890   0.00000  Uiso   1.00
C431   C     0.93711   0.85294   0.56698   0.00000  Uiso   1.00
C432   C     0.89430   0.90859   0.77365   0.00000  Uiso   1.00
C433   C     0.83845   0.92750   0.82062   0.00000  Uiso   1.00
C434   C     0.84610   0.98359   0.84640   0.00000  Uiso   1.00
C435   C     0.94618   0.82352   0.74816   0.00000  Uiso   1.00
C436   C     0.93396   0.77092   0.77371   0.00000  Uiso   1.00
C437   C     0.98529   0.75540   0.77804   0.00000  Uiso   1.00
H438   H     0.05773   0.94281   0.68535   0.00000  Uiso   1.00
H439   H     0.07324   0.93860   0.57128   0.00000  Uiso   1.00
H440   H     0.01080   0.02823   0.76298   0.00000  Uiso   1.00
H441   H     0.10629   0.87167   0.71607   0.00000  Uiso   1.00
H442   H     0.06338   0.91813   0.45387   0.00000  Uiso   1.00
H443   H     0.93173   0.10712   0.85810   0.00000  Uiso   1.00
H444   H     0.13310   0.77698   0.75918   0.00000  Uiso   1.00
H445   H     0.84938   0.82102   0.75502   0.00000  Uiso   1.00
H446   H     0.85345   0.81012   0.64478   0.00000  Uiso   1.00
H447   H     0.79102   0.89975   0.83648   0.00000  Uiso   1.00
H448   H     0.88651   0.74319   0.78957   0.00000  Uiso   1.00
H449   H     0.88499   0.81385   0.51352   0.00000  Uiso   1.00
H450   H     0.75334   0.00284   0.91775   0.00000  Uiso   1.00
H451   H     0.95471   0.67271   0.81883   0.00000  Uiso   1.00
O452   O     0.98061   0.86103   0.40992   0.00000  Uiso   1.00
O453   O     0.80790   0.10897   0.94026   0.00000  Uiso   1.00
O454   O     0.07209   0.67584   0.81048   0.00000  Uiso   1.00
N455   N     0.02084   0.89508   0.48303   0.00000  Uiso   1.00
N456   N     0.89775   0.07177   0.86096   0.00000  Uiso   1.00
N457   N     0.08601   0.76313   0.76849   0.00000  Uiso   1.00
N458   N     0.92485   0.83896   0.51513   0.00000  Uiso   1.00
N459   N     0.80177   0.01566   0.89305   0.00000  Uiso   1.00
N460   N     0.99003   0.70702   0.80059   0.00000  Uiso   1.00
C461   C     0.31915   0.29238   0.65297   0.00000  Uiso   1.00
C462   C     0.36088   0.29446   0.58218   0.00000  Uiso   1.00
C463   C     0.39509   0.34426   0.54970   0.00000  Uiso   1.00
C464   C     0.43037   0.33700   0.48503   0.00000  Uiso   1.00
C465   C     0.49499   0.34860   0.37982   0.00000  Uiso   1.00
C466   C     0.25140   0.26074   0.66275   0.00000  Uiso   1.00
C467   C     0.19355   0.28220   0.69802   0.00000  Uiso   1.00
C468   C     0.13668   0.24655   0.70118   0.00000  Uiso   1.00
C469   C     0.03132   0.20580   0.72110   0.00000  Uiso   1.00
C470   C     0.34643   0.25242   0.67487   0.00000  Uiso   1.00
C471   C     0.36847   0.26687   0.72033   0.00000  Uiso   1.00
C472   C     0.39159   0.22421   0.73370   0.00000  Uiso   1.00
C473   C     0.43377   0.17053   0.77243   0.00000  Uiso   1.00
C474   C     0.32099   0.19091   0.59589   0.00000  Uiso   1.00
C475   C     0.36188   0.23934   0.55118   0.00000  Uiso   1.00
C476   C     0.39713   0.23200   0.48654   0.00000  Uiso   1.00
C477   C     0.43138   0.28178   0.45397   0.00000  Uiso   1.00
C478   C     0.25240   0.20563   0.63175   0.00000  Uiso   1.00
C479   C     0.19560   0.16994   0.63486   0.00000  Uiso   1.00
C480   C     0.13768   0.19134   0.67012   0.00000  Uiso   1.00
C481   C     0.34743   0.19730   0.64386   0.00000  Uiso   1.00
C482   C     0.37051   0.15461   0.65717   0.00000  Uiso   1.00
C483   C     0.39259   0.16899   0.70264   0.00000  Uiso   1.00
H484   H     0.31836   0.33529   0.67712   0.00000  Uiso   1.00
H485   H     0.39429   0.38691   0.57371   0.00000  Uiso   1.00
H486   H     0.19279   0.32485   0.72202   0.00000  Uiso   1.00
H487   H     0.36768   0.30952   0.74432   0.00000  Uiso   1.00
H488   H     0.47890   0.41983   0.44540   0.00000  Uiso   1.00
H489   H     0.05402   0.28897   0.75812   0.00000  Uiso   1.00
H490   H     0.42281   0.25665   0.80515   0.00000  Uiso   1.00
H491   H     0.32177   0.14800   0.57175   0.00000  Uiso   1.00
H492   H     0.39789   0.18934   0.46256   0.00000  Uiso   1.00
H493   H     0.19639   0.12729   0.61086   0.00000  Uiso   1.00
H494   H     0.37128   0.11196   0.63316   0.00000  Uiso   1.00
H495   H     0.48181   0.25947   0.35518   0.00000  Uiso   1.00
H496   H     0.05694   0.12862   0.66790   0.00000  Uiso   1.00
H497   H     0.42573   0.09630   0.71493   0.00000  Uiso   1.00
O498   O     0.53035   0.37022   0.33036   0.00000  Uiso   1.00
O499   O     0.97293   0.19855   0.74065   0.00000  Uiso   1.00
O500   O     0.45677   0.15615   0.80235   0.00000  Uiso   1.00
N501   N     0.46915   0.37641   0.43915   0.00000  Uiso   1.00
N502   N     0.07191   0.25408   0.73152   0.00000  Uiso   1.00
N503   N     0.41668   0.22386   0.77550   0.00000  Uiso   1.00
N504   N     0.47072   0.29013   0.39060   0.00000  Uiso   1.00
N505   N     0.07349   0.16779   0.68297   0.00000  Uiso   1.00
N506   N     0.41826   0.13757   0.72695   0.00000  Uiso   1.00
C507   C     0.67892   0.30646   0.95950   0.00000  Uiso   1.00
C508   C     0.65502   0.35699   0.94932   0.00000  Uiso   1.00
C509   C     0.62167   0.35414   0.91403   0.00000  Uiso   1.00
C510   C     0.60405   0.40518   0.91046   0.00000  Uiso   1.00
C511   C     0.56465   0.47573   0.88996   0.00000  Uiso   1.00
C512   C     0.75219   0.32551   0.93748   0.00000  Uiso   1.00
C513   C     0.80053   0.29619   0.89225   0.00000  Uiso   1.00
C514   C     0.86470   0.32073   0.87872   0.00000  Uiso   1.00
C515   C     0.97615   0.34240   0.83988   0.00000  Uiso   1.00
C516   C     0.64875   0.30247   0.03035   0.00000  Uiso   1.00
C517   C     0.61013   0.25377   0.06320   0.00000  Uiso   1.00
C518   C     0.58723   0.25890   0.12787   0.00000  Uiso   1.00
C519   C     0.53808   0.24479   0.23322   0.00000  Uiso   1.00
C520   C     0.70692   0.40217   0.01591   0.00000  Uiso   1.00
C521   C     0.67023   0.40897   0.97995   0.00000  Uiso   1.00
C522   C     0.65265   0.46003   0.97644   0.00000  Uiso   1.00
C523   C     0.61928   0.45725   0.94115   0.00000  Uiso   1.00
C524   C     0.76740   0.37749   0.96812   0.00000  Uiso   1.00
C525   C     0.83151   0.40208   0.95465   0.00000  Uiso   1.00
C526   C     0.87994   0.37281   0.90941   0.00000  Uiso   1.00
C527   C     0.66395   0.35445   0.06099   0.00000  Uiso   1.00
C528   C     0.64111   0.35966   0.12561   0.00000  Uiso   1.00
C529   C     0.60246   0.31098   0.15856   0.00000  Uiso   1.00
H530   H     0.66708   0.26598   0.93564   0.00000  Uiso   1.00
H531   H     0.60992   0.31390   0.89032   0.00000  Uiso   1.00
H532   H     0.78875   0.25596   0.86855   0.00000  Uiso   1.00
H533   H     0.59837   0.21355   0.03948   0.00000  Uiso   1.00
H534   H     0.55326   0.38995   0.85357   0.00000  Uiso   1.00
H535   H     0.93033   0.26777   0.80767   0.00000  Uiso   1.00
H536   H     0.52890   0.17833   0.16811   0.00000  Uiso   1.00
H537   H     0.71876   0.44264   0.03976   0.00000  Uiso   1.00
H538   H     0.66443   0.50025   0.00015   0.00000  Uiso   1.00
H539   H     0.84326   0.44231   0.97838   0.00000  Uiso   1.00
H540   H     0.65289   0.39990   0.14931   0.00000  Uiso   1.00
H541   H     0.59751   0.54120   0.94271   0.00000  Uiso   1.00
H542   H     0.97458   0.41902   0.89681   0.00000  Uiso   1.00
H543   H     0.57315   0.32958   0.25725   0.00000  Uiso   1.00
O544   O     0.53873   0.50029   0.87019   0.00000  Uiso   1.00
O545   O     0.03343   0.33999   0.80998   0.00000  Uiso   1.00
O546   O     0.50676   0.22265   0.28287   0.00000  Uiso   1.00
N547   N     0.57112   0.41764   0.87999   0.00000  Uiso   1.00
N548   N     0.92366   0.30341   0.83708   0.00000  Uiso   1.00
N549   N     0.54837   0.21979   0.17405   0.00000  Uiso   1.00
N550   N     0.59493   0.49903   0.92796   0.00000  Uiso   1.00
N551   N     0.94747   0.38480   0.88504   0.00000  Uiso   1.00
N552   N     0.57218   0.30118   0.22202   0.00000  Uiso   1.00
