data_job_06151
_audit_creation_date              2018-12-19
_audit_creation_method            'Materials Studio'
_symmetry_space_group_name_H-M    'P1'
_symmetry_Int_Tables_number       1
_symmetry_cell_setting            triclinic
loop_
_symmetry_equiv_pos_as_xyz
  x,y,z
_cell_length_a                    21.6870
_cell_length_b                    21.8778
_cell_length_c                    21.8812
_cell_angle_alpha                 109.6800
_cell_angle_beta                  109.1533
_cell_angle_gamma                 109.3722
loop_
_atom_site_label
_atom_site_type_symbol
_atom_site_fract_x
_atom_site_fract_y
_atom_site_fract_z
_atom_site_U_iso_or_equiv
_atom_site_adp_type
_atom_site_occupancy
C1     C     0.39512   0.68816   0.07705   0.00000  Uiso   1.00
C2     C     0.39481   0.76014   0.08553   0.00000  Uiso   1.00
C3     C     0.45070   0.82055   0.09229   0.00000  Uiso   1.00
C4     C     0.43992   0.88118   0.09952   0.00000  Uiso   1.00
C5     C     0.44925   0.99294   0.11267   0.00000  Uiso   1.00
C6     C     0.38664   0.67991   0.14076   0.00000  Uiso   1.00
C7     C     0.43566   0.67285   0.19394   0.00000  Uiso   1.00
C8     C     0.41800   0.66593   0.24765   0.00000  Uiso   1.00
C9     C     0.41462   0.65308   0.34650   0.00000  Uiso   1.00
C10    C     0.32268   0.62459   0.00543   0.00000  Uiso   1.00
C11    C     0.31791   0.57101   0.94482   0.00000  Uiso   1.00
C12    C     0.24639   0.51750   0.88459   0.00000  Uiso   1.00
C13    C     0.14371   0.41877   0.77331   0.00000  Uiso   1.00
C14    C     0.27659   0.68840   0.07787   0.00000  Uiso   1.00
C15    C     0.33043   0.76027   0.08598   0.00000  Uiso   1.00
C16    C     0.31956   0.82082   0.09320   0.00000  Uiso   1.00
C17    C     0.37542   0.88131   0.09996   0.00000  Uiso   1.00
C18    C     0.32226   0.68004   0.14121   0.00000  Uiso   1.00
C19    C     0.30452   0.67312   0.19485   0.00000  Uiso   1.00
C20    C     0.35350   0.66606   0.24810   0.00000  Uiso   1.00
C21    C     0.25830   0.62472   0.00587   0.00000  Uiso   1.00
C22    C     0.18677   0.57128   0.94573   0.00000  Uiso   1.00
C23    C     0.18190   0.51763   0.88504   0.00000  Uiso   1.00
H24    H     0.44524   0.68805   0.07671   0.00000  Uiso   1.00
H25    H     0.50052   0.82043   0.09195   0.00000  Uiso   1.00
H26    H     0.48547   0.67274   0.19358   0.00000  Uiso   1.00
H27    H     0.36775   0.57093   0.94449   0.00000  Uiso   1.00
H28    H     0.53342   0.96726   0.10908   0.00000  Uiso   1.00
H29    H     0.50169   0.65584   0.32335   0.00000  Uiso   1.00
H30    H     0.25344   0.44113   0.79811   0.00000  Uiso   1.00
H31    H     0.22646   0.68850   0.07822   0.00000  Uiso   1.00
H32    H     0.26973   0.82090   0.09354   0.00000  Uiso   1.00
H33    H     0.25469   0.67322   0.19518   0.00000  Uiso   1.00
H34    H     0.13696   0.57140   0.94609   0.00000  Uiso   1.00
H35    H     0.34611   0.96765   0.11037   0.00000  Uiso   1.00
H36    H     0.31437   0.65622   0.32465   0.00000  Uiso   1.00
H37    H     0.06612   0.44151   0.79940   0.00000  Uiso   1.00
O38    O     0.47219   0.05456   0.11980   0.00000  Uiso   1.00
O39    O     0.43055   0.64597   0.40091   0.00000  Uiso   1.00
O40    O     0.10485   0.36427   0.71181   0.00000  Uiso   1.00
N41    N     0.48339   0.94918   0.10726   0.00000  Uiso   1.00
N42    N     0.45373   0.65802   0.30760   0.00000  Uiso   1.00
N43    N     0.22163   0.45728   0.81655   0.00000  Uiso   1.00
N44    N     0.38260   0.94938   0.10796   0.00000  Uiso   1.00
N45    N     0.35294   0.65823   0.30830   0.00000  Uiso   1.00
N46    N     0.12084   0.45748   0.81725   0.00000  Uiso   1.00
C47    C     0.31752   0.92231   0.61047   0.00000  Uiso   1.00
C48    C     0.30860   0.91385   0.67393   0.00000  Uiso   1.00
C49    C     0.35757   0.90704   0.72741   0.00000  Uiso   1.00
C50    C     0.33947   0.89984   0.78080   0.00000  Uiso   1.00
C51    C     0.33546   0.88672   0.87934   0.00000  Uiso   1.00
C52    C     0.24545   0.85853   0.53859   0.00000  Uiso   1.00
C53    C     0.24132   0.80523   0.47827   0.00000  Uiso   1.00
C54    C     0.17007   0.75148   0.41773   0.00000  Uiso   1.00
C55    C     0.06802   0.65252   0.30613   0.00000  Uiso   1.00
C56    C     0.31680   0.99407   0.61869   0.00000  Uiso   1.00
C57    C     0.37265   0.05473   0.62571   0.00000  Uiso   1.00
C58    C     0.36145   0.11508   0.63260   0.00000  Uiso   1.00
C59    C     0.37018   0.22656   0.64537   0.00000  Uiso   1.00
C60    C     0.19831   0.92162   0.61019   0.00000  Uiso   1.00
C61    C     0.24385   0.91347   0.67377   0.00000  Uiso   1.00
C62    C     0.22568   0.90628   0.72710   0.00000  Uiso   1.00
C63    C     0.27461   0.89947   0.78065   0.00000  Uiso   1.00
C64    C     0.18071   0.85816   0.53843   0.00000  Uiso   1.00
C65    C     0.10944   0.80447   0.47797   0.00000  Uiso   1.00
C66    C     0.10520   0.75110   0.41758   0.00000  Uiso   1.00
C67    C     0.25205   0.99370   0.61854   0.00000  Uiso   1.00
C68    C     0.24076   0.05397   0.62541   0.00000  Uiso   1.00
C69    C     0.29658   0.11471   0.63245   0.00000  Uiso   1.00
H70    H     0.36792   0.92260   0.61058   0.00000  Uiso   1.00
H71    H     0.40767   0.90733   0.72750   0.00000  Uiso   1.00
H72    H     0.29144   0.80554   0.47840   0.00000  Uiso   1.00
H73    H     0.42275   0.05500   0.62583   0.00000  Uiso   1.00
H74    H     0.42316   0.89021   0.85705   0.00000  Uiso   1.00
H75    H     0.17810   0.67560   0.33180   0.00000  Uiso   1.00
H76    H     0.45498   0.20163   0.64267   0.00000  Uiso   1.00
H77    H     0.14790   0.92133   0.61007   0.00000  Uiso   1.00
H78    H     0.17557   0.90599   0.72697   0.00000  Uiso   1.00
H79    H     0.05934   0.80420   0.47787   0.00000  Uiso   1.00
H80    H     0.19065   0.05366   0.62529   0.00000  Uiso   1.00
H81    H     0.23478   0.88912   0.85661   0.00000  Uiso   1.00
H82    H     0.98972   0.67451   0.33136   0.00000  Uiso   1.00
H83    H     0.26660   0.20054   0.64223   0.00000  Uiso   1.00
O84    O     0.35113   0.87957   0.93372   0.00000  Uiso   1.00
O85    O     0.02962   0.59803   0.24462   0.00000  Uiso   1.00
O86    O     0.39288   0.28816   0.65247   0.00000  Uiso   1.00
N87    N     0.37503   0.89207   0.84091   0.00000  Uiso   1.00
N88    N     0.14592   0.69142   0.34984   0.00000  Uiso   1.00
N89    N     0.40477   0.18320   0.64046   0.00000  Uiso   1.00
N90    N     0.27367   0.89148   0.84068   0.00000  Uiso   1.00
N91    N     0.04455   0.69083   0.34961   0.00000  Uiso   1.00
N92    N     0.30340   0.18262   0.64022   0.00000  Uiso   1.00
C93    C     0.70647   0.38954   0.31235   0.00000  Uiso   1.00
C94    C     0.63422   0.32601   0.24051   0.00000  Uiso   1.00
C95    C     0.62974   0.27241   0.18015   0.00000  Uiso   1.00
C96    C     0.55837   0.21898   0.11965   0.00000  Uiso   1.00
C97    C     0.45600   0.12033   0.00808   0.00000  Uiso   1.00
C98    C     0.70638   0.46156   0.32062   0.00000  Uiso   1.00
C99    C     0.76258   0.52192   0.32763   0.00000  Uiso   1.00
C100   C     0.75196   0.58259   0.33458   0.00000  Uiso   1.00
C101   C     0.76165   0.69439   0.34745   0.00000  Uiso   1.00
C102   C     0.69741   0.38133   0.37585   0.00000  Uiso   1.00
C103   C     0.74607   0.37427   0.42932   0.00000  Uiso   1.00
C104   C     0.72790   0.36741   0.48278   0.00000  Uiso   1.00
C105   C     0.72365   0.35466   0.58141   0.00000  Uiso   1.00
C106   C     0.58769   0.38995   0.31225   0.00000  Uiso   1.00
C107   C     0.56970   0.32624   0.24045   0.00000  Uiso   1.00
C108   C     0.49832   0.27287   0.18003   0.00000  Uiso   1.00
C109   C     0.49373   0.21920   0.11959   0.00000  Uiso   1.00
C110   C     0.64187   0.46178   0.32056   0.00000  Uiso   1.00
C111   C     0.63116   0.52238   0.32751   0.00000  Uiso   1.00
C112   C     0.68732   0.58281   0.33452   0.00000  Uiso   1.00
C113   C     0.63289   0.38156   0.37579   0.00000  Uiso   1.00
C114   C     0.61464   0.37472   0.42919   0.00000  Uiso   1.00
C115   C     0.66326   0.36764   0.48272   0.00000  Uiso   1.00
H116   H     0.75670   0.38937   0.31240   0.00000  Uiso   1.00
H117   H     0.67968   0.27226   0.18021   0.00000  Uiso   1.00
H118   H     0.81251   0.52173   0.32768   0.00000  Uiso   1.00
H119   H     0.79599   0.37410   0.42934   0.00000  Uiso   1.00
H120   H     0.56584   0.14255   0.03362   0.00000  Uiso   1.00
H121   H     0.84592   0.66858   0.34459   0.00000  Uiso   1.00
H122   H     0.81110   0.35726   0.55897   0.00000  Uiso   1.00
H123   H     0.53746   0.39013   0.31220   0.00000  Uiso   1.00
H124   H     0.44840   0.27306   0.18000   0.00000  Uiso   1.00
H125   H     0.58123   0.52253   0.32747   0.00000  Uiso   1.00
H126   H     0.56471   0.37489   0.42913   0.00000  Uiso   1.00
H127   H     0.37813   0.14319   0.03344   0.00000  Uiso   1.00
H128   H     0.65820   0.66923   0.34442   0.00000  Uiso   1.00
H129   H     0.62338   0.35791   0.55880   0.00000  Uiso   1.00
O130   O     0.41736   0.06586   0.94656   0.00000  Uiso   1.00
O131   O     0.78481   0.75600   0.35456   0.00000  Uiso   1.00
O132   O     0.73913   0.34755   0.63581   0.00000  Uiso   1.00
N133   N     0.53388   0.15876   0.05173   0.00000  Uiso   1.00
N134   N     0.79573   0.65056   0.34246   0.00000  Uiso   1.00
N135   N     0.76319   0.35952   0.54290   0.00000  Uiso   1.00
N136   N     0.43288   0.15910   0.05163   0.00000  Uiso   1.00
N137   N     0.69472   0.65091   0.34236   0.00000  Uiso   1.00
N138   N     0.66218   0.35987   0.54280   0.00000  Uiso   1.00
C139   C     0.60488   0.31184   0.92295   0.00000  Uiso   1.00
C140   C     0.60519   0.23986   0.91447   0.00000  Uiso   1.00
C141   C     0.54930   0.17945   0.90771   0.00000  Uiso   1.00
C142   C     0.56008   0.11882   0.90048   0.00000  Uiso   1.00
C143   C     0.55075   0.00706   0.88734   0.00000  Uiso   1.00
C144   C     0.61336   0.32009   0.85924   0.00000  Uiso   1.00
C145   C     0.56434   0.32715   0.80606   0.00000  Uiso   1.00
C146   C     0.58200   0.33407   0.75235   0.00000  Uiso   1.00
C147   C     0.58538   0.34692   0.65350   0.00000  Uiso   1.00
C148   C     0.67732   0.37541   0.99458   0.00000  Uiso   1.00
C149   C     0.68209   0.42899   0.05518   0.00000  Uiso   1.00
C150   C     0.75361   0.48250   0.11541   0.00000  Uiso   1.00
C151   C     0.85629   0.58123   0.22669   0.00000  Uiso   1.00
C152   C     0.72341   0.31160   0.92213   0.00000  Uiso   1.00
C153   C     0.66957   0.23973   0.91402   0.00000  Uiso   1.00
C154   C     0.68044   0.17918   0.90680   0.00000  Uiso   1.00
C155   C     0.62458   0.11869   0.90004   0.00000  Uiso   1.00
C156   C     0.67774   0.31996   0.85879   0.00000  Uiso   1.00
C157   C     0.69548   0.32688   0.80515   0.00000  Uiso   1.00
C158   C     0.64650   0.33394   0.75190   0.00000  Uiso   1.00
C159   C     0.74170   0.37528   0.99413   0.00000  Uiso   1.00
C160   C     0.81323   0.42872   0.05427   0.00000  Uiso   1.00
C161   C     0.81810   0.48237   0.11496   0.00000  Uiso   1.00
H162   H     0.55476   0.31195   0.92330   0.00000  Uiso   1.00
H163   H     0.49948   0.17957   0.90805   0.00000  Uiso   1.00
H164   H     0.51453   0.32726   0.80642   0.00000  Uiso   1.00
H165   H     0.63225   0.42907   0.05551   0.00000  Uiso   1.00
H166   H     0.46658   0.03274   0.89093   0.00000  Uiso   1.00
H167   H     0.49831   0.34416   0.67665   0.00000  Uiso   1.00
H168   H     0.74656   0.55887   0.20189   0.00000  Uiso   1.00
H169   H     0.77354   0.31150   0.92178   0.00000  Uiso   1.00
H170   H     0.73027   0.17910   0.90646   0.00000  Uiso   1.00
H171   H     0.74531   0.32678   0.80483   0.00000  Uiso   1.00
H172   H     0.86304   0.42860   0.05391   0.00000  Uiso   1.00
H173   H     0.65389   0.03235   0.88963   0.00000  Uiso   1.00
H174   H     0.68563   0.34378   0.67535   0.00000  Uiso   1.00
H175   H     0.93388   0.55849   0.20060   0.00000  Uiso   1.00
O176   O     0.52781   0.94544   0.88020   0.00000  Uiso   1.00
O177   O     0.56945   0.35404   0.59909   0.00000  Uiso   1.00
O178   O     0.89515   0.63573   0.28819   0.00000  Uiso   1.00
N179   N     0.51661   0.05082   0.89274   0.00000  Uiso   1.00
N180   N     0.54627   0.34198   0.69240   0.00000  Uiso   1.00
N181   N     0.77837   0.54272   0.18345   0.00000  Uiso   1.00
N182   N     0.61740   0.05062   0.89204   0.00000  Uiso   1.00
N183   N     0.64706   0.34177   0.69170   0.00000  Uiso   1.00
N184   N     0.87916   0.54252   0.18275   0.00000  Uiso   1.00
C185   C     0.68248   0.07769   0.38953   0.00000  Uiso   1.00
C186   C     0.69140   0.08615   0.32607   0.00000  Uiso   1.00
C187   C     0.64243   0.09296   0.27259   0.00000  Uiso   1.00
C188   C     0.66053   0.10016   0.21920   0.00000  Uiso   1.00
C189   C     0.66454   0.11328   0.12066   0.00000  Uiso   1.00
C190   C     0.75455   0.14147   0.46141   0.00000  Uiso   1.00
C191   C     0.75868   0.19477   0.52173   0.00000  Uiso   1.00
C192   C     0.82993   0.24852   0.58227   0.00000  Uiso   1.00
C193   C     0.93198   0.34749   0.69387   0.00000  Uiso   1.00
C194   C     0.68320   0.00593   0.38131   0.00000  Uiso   1.00
C195   C     0.62735   0.94527   0.37429   0.00000  Uiso   1.00
C196   C     0.63855   0.88492   0.36740   0.00000  Uiso   1.00
C197   C     0.62982   0.77344   0.35463   0.00000  Uiso   1.00
C198   C     0.80169   0.07838   0.38981   0.00000  Uiso   1.00
C199   C     0.75615   0.08653   0.32623   0.00000  Uiso   1.00
C200   C     0.77432   0.09372   0.27290   0.00000  Uiso   1.00
C201   C     0.72539   0.10053   0.21935   0.00000  Uiso   1.00
C202   C     0.81930   0.14184   0.46157   0.00000  Uiso   1.00
C203   C     0.89056   0.19553   0.52203   0.00000  Uiso   1.00
C204   C     0.89480   0.24890   0.58242   0.00000  Uiso   1.00
C205   C     0.74795   0.00630   0.38146   0.00000  Uiso   1.00
C206   C     0.75924   0.94603   0.37459   0.00000  Uiso   1.00
C207   C     0.70342   0.88529   0.36756   0.00000  Uiso   1.00
H208   H     0.63208   0.07740   0.38942   0.00000  Uiso   1.00
H209   H     0.59233   0.09267   0.27250   0.00000  Uiso   1.00
H210   H     0.70856   0.19446   0.52160   0.00000  Uiso   1.00
H211   H     0.57725   0.94500   0.37417   0.00000  Uiso   1.00
H212   H     0.57684   0.10979   0.14295   0.00000  Uiso   1.00
H213   H     0.82190   0.32440   0.66820   0.00000  Uiso   1.00
H214   H     0.54502   0.79837   0.35733   0.00000  Uiso   1.00
H215   H     0.85210   0.07867   0.38993   0.00000  Uiso   1.00
H216   H     0.82443   0.09401   0.27303   0.00000  Uiso   1.00
H217   H     0.94066   0.19580   0.52213   0.00000  Uiso   1.00
H218   H     0.80935   0.94634   0.37471   0.00000  Uiso   1.00
H219   H     0.76522   0.11088   0.14339   0.00000  Uiso   1.00
H220   H     0.01028   0.32549   0.66864   0.00000  Uiso   1.00
H221   H     0.73340   0.79946   0.35777   0.00000  Uiso   1.00
O222   O     0.64887   0.12043   0.06628   0.00000  Uiso   1.00
O223   O     0.97038   0.40197   0.75538   0.00000  Uiso   1.00
O224   O     0.60712   0.71184   0.34753   0.00000  Uiso   1.00
N225   N     0.62497   0.10793   0.15909   0.00000  Uiso   1.00
N226   N     0.85409   0.30858   0.65016   0.00000  Uiso   1.00
N227   N     0.59523   0.81680   0.35954   0.00000  Uiso   1.00
N228   N     0.72633   0.10852   0.15932   0.00000  Uiso   1.00
N229   N     0.95545   0.30917   0.65039   0.00000  Uiso   1.00
N230   N     0.69660   0.81738   0.35978   0.00000  Uiso   1.00
C231   C     0.29353   0.61046   0.68765   0.00000  Uiso   1.00
C232   C     0.36578   0.67399   0.75949   0.00000  Uiso   1.00
C233   C     0.37026   0.72759   0.81985   0.00000  Uiso   1.00
C234   C     0.44163   0.78102   0.88035   0.00000  Uiso   1.00
C235   C     0.54400   0.87967   0.99192   0.00000  Uiso   1.00
C236   C     0.29362   0.53844   0.67938   0.00000  Uiso   1.00
C237   C     0.23742   0.47808   0.67237   0.00000  Uiso   1.00
C238   C     0.24804   0.41741   0.66542   0.00000  Uiso   1.00
C239   C     0.23835   0.30561   0.65255   0.00000  Uiso   1.00
C240   C     0.30259   0.61867   0.62415   0.00000  Uiso   1.00
C241   C     0.25393   0.62573   0.57068   0.00000  Uiso   1.00
C242   C     0.27210   0.63259   0.51722   0.00000  Uiso   1.00
C243   C     0.27635   0.64534   0.41859   0.00000  Uiso   1.00
C244   C     0.41231   0.61005   0.68776   0.00000  Uiso   1.00
C245   C     0.43030   0.67376   0.75955   0.00000  Uiso   1.00
C246   C     0.50168   0.72713   0.81997   0.00000  Uiso   1.00
C247   C     0.50627   0.78080   0.88041   0.00000  Uiso   1.00
C248   C     0.35813   0.53822   0.67944   0.00000  Uiso   1.00
C249   C     0.36884   0.47762   0.67249   0.00000  Uiso   1.00
C250   C     0.31268   0.41719   0.66548   0.00000  Uiso   1.00
C251   C     0.36711   0.61844   0.62421   0.00000  Uiso   1.00
C252   C     0.38536   0.62528   0.57081   0.00000  Uiso   1.00
C253   C     0.33674   0.63236   0.51728   0.00000  Uiso   1.00
H254   H     0.24330   0.61063   0.68760   0.00000  Uiso   1.00
H255   H     0.32032   0.72774   0.81979   0.00000  Uiso   1.00
H256   H     0.18749   0.47827   0.67232   0.00000  Uiso   1.00
H257   H     0.20401   0.62590   0.57066   0.00000  Uiso   1.00
H258   H     0.43416   0.85745   0.96638   0.00000  Uiso   1.00
H259   H     0.15408   0.33142   0.65541   0.00000  Uiso   1.00
H260   H     0.18890   0.64274   0.44103   0.00000  Uiso   1.00
H261   H     0.46254   0.60987   0.68780   0.00000  Uiso   1.00
H262   H     0.55160   0.72694   0.82000   0.00000  Uiso   1.00
H263   H     0.41877   0.47747   0.67253   0.00000  Uiso   1.00
H264   H     0.43529   0.62511   0.57087   0.00000  Uiso   1.00
H265   H     0.62187   0.85681   0.96656   0.00000  Uiso   1.00
H266   H     0.34180   0.33077   0.65558   0.00000  Uiso   1.00
H267   H     0.37662   0.64209   0.44120   0.00000  Uiso   1.00
O268   O     0.58264   0.93414   0.05344   0.00000  Uiso   1.00
O269   O     0.21519   0.24400   0.64544   0.00000  Uiso   1.00
O270   O     0.26087   0.65245   0.36419   0.00000  Uiso   1.00
N271   N     0.46612   0.84124   0.94827   0.00000  Uiso   1.00
N272   N     0.20427   0.34944   0.65754   0.00000  Uiso   1.00
N273   N     0.23681   0.64048   0.45710   0.00000  Uiso   1.00
N274   N     0.56713   0.84090   0.94837   0.00000  Uiso   1.00
N275   N     0.30528   0.34909   0.65764   0.00000  Uiso   1.00
N276   N     0.33782   0.64013   0.45720   0.00000  Uiso   1.00
