data_job_01292
_audit_creation_date              2018-12-19
_audit_creation_method            'Materials Studio'
_symmetry_space_group_name_H-M    'P1'
_symmetry_Int_Tables_number       1
_symmetry_cell_setting            triclinic
loop_
_symmetry_equiv_pos_as_xyz
  x,y,z
_cell_length_a                    15.7294
_cell_length_b                    7.0958
_cell_length_c                    24.1621
_cell_angle_alpha                 90.0000
_cell_angle_beta                  82.5147
_cell_angle_gamma                 90.0000
loop_
_atom_site_label
_atom_site_type_symbol
_atom_site_fract_x
_atom_site_fract_y
_atom_site_fract_z
_atom_site_U_iso_or_equiv
_atom_site_adp_type
_atom_site_occupancy
C1     C     0.68710   0.00626   0.08323   0.00000  Uiso   1.00
C2     C     0.73428   0.99097   0.02413   0.00000  Uiso   1.00
C3     C     0.74763   0.13717   0.98584   0.00000  Uiso   1.00
C4     C     0.79227   0.09447   0.93395   0.00000  Uiso   1.00
C5     C     0.86090   0.09844   0.84416   0.00000  Uiso   1.00
C6     C     0.61531   0.86054   0.08717   0.00000  Uiso   1.00
C7     C     0.52863   0.89708   0.10188   0.00000  Uiso   1.00
C8     C     0.47313   0.74457   0.10305   0.00000  Uiso   1.00
C9     C     0.35706   0.54604   0.11116   0.00000  Uiso   1.00
C10    C     0.74977   0.93713   0.12190   0.00000  Uiso   1.00
C11    C     0.77612   0.03806   0.16583   0.00000  Uiso   1.00
C12    C     0.83380   0.95002   0.19626   0.00000  Uiso   1.00
C13    C     0.92650   0.87041   0.25831   0.00000  Uiso   1.00
C14    C     0.74265   0.67043   0.05917   0.00000  Uiso   1.00
C15    C     0.76445   0.80855   0.01106   0.00000  Uiso   1.00
C16    C     0.80908   0.76561   0.95922   0.00000  Uiso   1.00
C17    C     0.82250   0.91173   0.92085   0.00000  Uiso   1.00
C18    C     0.64548   0.67813   0.07410   0.00000  Uiso   1.00
C19    C     0.59009   0.52553   0.07525   0.00000  Uiso   1.00
C20    C     0.50335   0.56183   0.08996   0.00000  Uiso   1.00
C21    C     0.77994   0.75472   0.10883   0.00000  Uiso   1.00
C22    C     0.83758   0.66650   0.13921   0.00000  Uiso   1.00
C23    C     0.86403   0.76728   0.18317   0.00000  Uiso   1.00
H24    H     0.66361   0.14827   0.09341   0.00000  Uiso   1.00
H25    H     0.72427   0.27831   0.99597   0.00000  Uiso   1.00
H26    H     0.50531   0.03826   0.11199   0.00000  Uiso   1.00
H27    H     0.75276   0.17921   0.17594   0.00000  Uiso   1.00
H28    H     0.80480   0.34203   0.88217   0.00000  Uiso   1.00
H29    H     0.34311   0.83585   0.12683   0.00000  Uiso   1.00
H30    H     0.86492   0.13308   0.26167   0.00000  Uiso   1.00
H31    H     0.76613   0.52841   0.04899   0.00000  Uiso   1.00
H32    H     0.83242   0.62444   0.94911   0.00000  Uiso   1.00
H33    H     0.61346   0.38439   0.06514   0.00000  Uiso   1.00
H34    H     0.86091   0.52534   0.12908   0.00000  Uiso   1.00
H35    H     0.89257   0.81133   0.84414   0.00000  Uiso   1.00
H36    H     0.43088   0.30514   0.08881   0.00000  Uiso   1.00
H37    H     0.95269   0.60237   0.22364   0.00000  Uiso   1.00
O38    O     0.89042   0.15102   0.79824   0.00000  Uiso   1.00
O39    O     0.28470   0.48693   0.11924   0.00000  Uiso   1.00
O40    O     0.96930   0.87690   0.29614   0.00000  Uiso   1.00
N41    N     0.81637   0.20396   0.88693   0.00000  Uiso   1.00
N42    N     0.38472   0.73072   0.11567   0.00000  Uiso   1.00
N43    N     0.87255   0.00858   0.24174   0.00000  Uiso   1.00
N44    N     0.86361   0.91839   0.86646   0.00000  Uiso   1.00
N45    N     0.43195   0.44515   0.09520   0.00000  Uiso   1.00
N46    N     0.91978   0.72301   0.22127   0.00000  Uiso   1.00
C47    C     0.31290   0.50626   0.41677   0.00000  Uiso   1.00
C48    C     0.26572   0.49097   0.47587   0.00000  Uiso   1.00
C49    C     0.25237   0.63717   0.51416   0.00000  Uiso   1.00
C50    C     0.20773   0.59447   0.56605   0.00000  Uiso   1.00
C51    C     0.13910   0.59844   0.65584   0.00000  Uiso   1.00
C52    C     0.38469   0.36054   0.41283   0.00000  Uiso   1.00
C53    C     0.47137   0.39708   0.39812   0.00000  Uiso   1.00
C54    C     0.52687   0.24457   0.39695   0.00000  Uiso   1.00
C55    C     0.64294   0.04604   0.38884   0.00000  Uiso   1.00
C56    C     0.25023   0.43713   0.37810   0.00000  Uiso   1.00
C57    C     0.22388   0.53806   0.33417   0.00000  Uiso   1.00
C58    C     0.16620   0.45002   0.30374   0.00000  Uiso   1.00
C59    C     0.07350   0.37041   0.24169   0.00000  Uiso   1.00
C60    C     0.25735   0.17043   0.44083   0.00000  Uiso   1.00
C61    C     0.23555   0.30855   0.48894   0.00000  Uiso   1.00
C62    C     0.19092   0.26561   0.54078   0.00000  Uiso   1.00
C63    C     0.17750   0.41173   0.57915   0.00000  Uiso   1.00
C64    C     0.35452   0.17813   0.42590   0.00000  Uiso   1.00
C65    C     0.40991   0.02553   0.42475   0.00000  Uiso   1.00
C66    C     0.49665   0.06183   0.41004   0.00000  Uiso   1.00
C67    C     0.22006   0.25472   0.39117   0.00000  Uiso   1.00
C68    C     0.16242   0.16650   0.36079   0.00000  Uiso   1.00
C69    C     0.13597   0.26728   0.31683   0.00000  Uiso   1.00
H70    H     0.33639   0.64827   0.40659   0.00000  Uiso   1.00
H71    H     0.27573   0.77831   0.50403   0.00000  Uiso   1.00
H72    H     0.49469   0.53826   0.38801   0.00000  Uiso   1.00
H73    H     0.24724   0.67921   0.32406   0.00000  Uiso   1.00
H74    H     0.19520   0.84203   0.61783   0.00000  Uiso   1.00
H75    H     0.65689   0.33585   0.37317   0.00000  Uiso   1.00
H76    H     0.13508   0.63308   0.23833   0.00000  Uiso   1.00
H77    H     0.23387   0.02841   0.45101   0.00000  Uiso   1.00
H78    H     0.16758   0.12444   0.55089   0.00000  Uiso   1.00
H79    H     0.38654   0.88439   0.43486   0.00000  Uiso   1.00
H80    H     0.13909   0.02534   0.37092   0.00000  Uiso   1.00
H81    H     0.10743   0.31133   0.65586   0.00000  Uiso   1.00
H82    H     0.56912   0.80514   0.41119   0.00000  Uiso   1.00
H83    H     0.04731   0.10237   0.27636   0.00000  Uiso   1.00
O84    O     0.10958   0.65102   0.70176   0.00000  Uiso   1.00
O85    O     0.71530   0.98693   0.38076   0.00000  Uiso   1.00
O86    O     0.03070   0.37690   0.20386   0.00000  Uiso   1.00
N87    N     0.18363   0.70396   0.61307   0.00000  Uiso   1.00
N88    N     0.61528   0.23072   0.38433   0.00000  Uiso   1.00
N89    N     0.12745   0.50858   0.25826   0.00000  Uiso   1.00
N90    N     0.13639   0.41839   0.63354   0.00000  Uiso   1.00
N91    N     0.56805   0.94515   0.40480   0.00000  Uiso   1.00
N92    N     0.08022   0.22301   0.27873   0.00000  Uiso   1.00
C93    C     0.31290   0.99374   0.91677   0.00000  Uiso   1.00
C94    C     0.26572   0.00903   0.97587   0.00000  Uiso   1.00
C95    C     0.25237   0.86283   0.01416   0.00000  Uiso   1.00
C96    C     0.20773   0.90553   0.06605   0.00000  Uiso   1.00
C97    C     0.13910   0.90156   0.15584   0.00000  Uiso   1.00
C98    C     0.38469   0.13946   0.91283   0.00000  Uiso   1.00
C99    C     0.47137   0.10292   0.89812   0.00000  Uiso   1.00
C100   C     0.52687   0.25543   0.89695   0.00000  Uiso   1.00
C101   C     0.64294   0.45396   0.88884   0.00000  Uiso   1.00
C102   C     0.25023   0.06287   0.87810   0.00000  Uiso   1.00
C103   C     0.22388   0.96194   0.83417   0.00000  Uiso   1.00
C104   C     0.16620   0.04998   0.80374   0.00000  Uiso   1.00
C105   C     0.07350   0.12959   0.74169   0.00000  Uiso   1.00
C106   C     0.25735   0.32957   0.94083   0.00000  Uiso   1.00
C107   C     0.23555   0.19145   0.98894   0.00000  Uiso   1.00
C108   C     0.19092   0.23439   0.04078   0.00000  Uiso   1.00
C109   C     0.17750   0.08827   0.07915   0.00000  Uiso   1.00
C110   C     0.35452   0.32187   0.92590   0.00000  Uiso   1.00
C111   C     0.40991   0.47447   0.92475   0.00000  Uiso   1.00
C112   C     0.49665   0.43817   0.91004   0.00000  Uiso   1.00
C113   C     0.22006   0.24528   0.89117   0.00000  Uiso   1.00
C114   C     0.16242   0.33350   0.86079   0.00000  Uiso   1.00
C115   C     0.13597   0.23272   0.81683   0.00000  Uiso   1.00
H116   H     0.33639   0.85173   0.90659   0.00000  Uiso   1.00
H117   H     0.27573   0.72169   0.00403   0.00000  Uiso   1.00
H118   H     0.49469   0.96174   0.88801   0.00000  Uiso   1.00
H119   H     0.24724   0.82079   0.82406   0.00000  Uiso   1.00
H120   H     0.19520   0.65797   0.11783   0.00000  Uiso   1.00
H121   H     0.65689   0.16415   0.87317   0.00000  Uiso   1.00
H122   H     0.13508   0.86692   0.73833   0.00000  Uiso   1.00
H123   H     0.23387   0.47159   0.95101   0.00000  Uiso   1.00
H124   H     0.16758   0.37556   0.05089   0.00000  Uiso   1.00
H125   H     0.38654   0.61561   0.93486   0.00000  Uiso   1.00
H126   H     0.13909   0.47466   0.87092   0.00000  Uiso   1.00
H127   H     0.10743   0.18867   0.15586   0.00000  Uiso   1.00
H128   H     0.56912   0.69486   0.91119   0.00000  Uiso   1.00
H129   H     0.04731   0.39763   0.77636   0.00000  Uiso   1.00
O130   O     0.10958   0.84898   0.20176   0.00000  Uiso   1.00
O131   O     0.71530   0.51307   0.88076   0.00000  Uiso   1.00
O132   O     0.03070   0.12310   0.70386   0.00000  Uiso   1.00
N133   N     0.18363   0.79604   0.11307   0.00000  Uiso   1.00
N134   N     0.61528   0.26928   0.88433   0.00000  Uiso   1.00
N135   N     0.12745   0.99142   0.75826   0.00000  Uiso   1.00
N136   N     0.13639   0.08161   0.13354   0.00000  Uiso   1.00
N137   N     0.56805   0.55485   0.90480   0.00000  Uiso   1.00
N138   N     0.08022   0.27699   0.77873   0.00000  Uiso   1.00
C139   C     0.68710   0.49374   0.58323   0.00000  Uiso   1.00
C140   C     0.73428   0.50903   0.52413   0.00000  Uiso   1.00
C141   C     0.74763   0.36283   0.48584   0.00000  Uiso   1.00
C142   C     0.79227   0.40553   0.43395   0.00000  Uiso   1.00
C143   C     0.86090   0.40156   0.34416   0.00000  Uiso   1.00
C144   C     0.61531   0.63946   0.58717   0.00000  Uiso   1.00
C145   C     0.52863   0.60292   0.60188   0.00000  Uiso   1.00
C146   C     0.47313   0.75543   0.60305   0.00000  Uiso   1.00
C147   C     0.35706   0.95396   0.61116   0.00000  Uiso   1.00
C148   C     0.74977   0.56287   0.62190   0.00000  Uiso   1.00
C149   C     0.77612   0.46194   0.66583   0.00000  Uiso   1.00
C150   C     0.83380   0.54998   0.69626   0.00000  Uiso   1.00
C151   C     0.92650   0.62959   0.75831   0.00000  Uiso   1.00
C152   C     0.74265   0.82957   0.55917   0.00000  Uiso   1.00
C153   C     0.76445   0.69145   0.51106   0.00000  Uiso   1.00
C154   C     0.80908   0.73439   0.45922   0.00000  Uiso   1.00
C155   C     0.82250   0.58827   0.42085   0.00000  Uiso   1.00
C156   C     0.64548   0.82187   0.57410   0.00000  Uiso   1.00
C157   C     0.59009   0.97447   0.57525   0.00000  Uiso   1.00
C158   C     0.50335   0.93817   0.58996   0.00000  Uiso   1.00
C159   C     0.77994   0.74528   0.60883   0.00000  Uiso   1.00
C160   C     0.83758   0.83350   0.63921   0.00000  Uiso   1.00
C161   C     0.86403   0.73272   0.68317   0.00000  Uiso   1.00
H162   H     0.66361   0.35173   0.59341   0.00000  Uiso   1.00
H163   H     0.72427   0.22169   0.49597   0.00000  Uiso   1.00
H164   H     0.50531   0.46174   0.61199   0.00000  Uiso   1.00
H165   H     0.75276   0.32079   0.67594   0.00000  Uiso   1.00
H166   H     0.80480   0.15797   0.38217   0.00000  Uiso   1.00
H167   H     0.34311   0.66415   0.62683   0.00000  Uiso   1.00
H168   H     0.86492   0.36692   0.76167   0.00000  Uiso   1.00
H169   H     0.76613   0.97159   0.54899   0.00000  Uiso   1.00
H170   H     0.83242   0.87556   0.44911   0.00000  Uiso   1.00
H171   H     0.61346   0.11561   0.56514   0.00000  Uiso   1.00
H172   H     0.86091   0.97466   0.62908   0.00000  Uiso   1.00
H173   H     0.89257   0.68867   0.34414   0.00000  Uiso   1.00
H174   H     0.43088   0.19486   0.58881   0.00000  Uiso   1.00
H175   H     0.95269   0.89763   0.72364   0.00000  Uiso   1.00
O176   O     0.89042   0.34898   0.29824   0.00000  Uiso   1.00
O177   O     0.28470   0.01307   0.61924   0.00000  Uiso   1.00
O178   O     0.96930   0.62310   0.79614   0.00000  Uiso   1.00
N179   N     0.81637   0.29604   0.38693   0.00000  Uiso   1.00
N180   N     0.38472   0.76928   0.61567   0.00000  Uiso   1.00
N181   N     0.87255   0.49142   0.74174   0.00000  Uiso   1.00
N182   N     0.86361   0.58161   0.36646   0.00000  Uiso   1.00
N183   N     0.43195   0.05485   0.59520   0.00000  Uiso   1.00
N184   N     0.91978   0.77699   0.72127   0.00000  Uiso   1.00
