data_job_05784
_audit_creation_date              2018-12-19
_audit_creation_method            'Materials Studio'
_symmetry_space_group_name_H-M    'P1'
_symmetry_Int_Tables_number       1
_symmetry_cell_setting            triclinic
loop_
_symmetry_equiv_pos_as_xyz
  x,y,z
_cell_length_a                    19.5184
_cell_length_b                    19.5184
_cell_length_c                    12.7774
_cell_angle_alpha                 90.0000
_cell_angle_beta                  90.0000
_cell_angle_gamma                 90.0000
loop_
_atom_site_label
_atom_site_type_symbol
_atom_site_fract_x
_atom_site_fract_y
_atom_site_fract_z
_atom_site_U_iso_or_equiv
_atom_site_adp_type
_atom_site_occupancy
C1     C     0.82271   0.98570   0.82445   0.00000  Uiso   1.00
C2     C     0.77070   0.95006   0.89493   0.00000  Uiso   1.00
C3     C     0.73714   0.97958   0.97939   0.00000  Uiso   1.00
C4     C     0.69145   0.93842   0.03401   0.00000  Uiso   1.00
C5     C     0.61249   0.89345   0.14787   0.00000  Uiso   1.00
C6     C     0.88749   0.94212   0.82876   0.00000  Uiso   1.00
C7     C     0.95213   0.96497   0.85757   0.00000  Uiso   1.00
C8     C     0.00476   0.91713   0.85647   0.00000  Uiso   1.00
C9     C     0.10713   0.85984   0.86753   0.00000  Uiso   1.00
C10    C     0.79524   0.97885   0.71322   0.00000  Uiso   1.00
C11    C     0.78234   0.03258   0.64487   0.00000  Uiso   1.00
C12    C     0.75732   0.01566   0.54649   0.00000  Uiso   1.00
C13    C     0.71646   0.01540   0.37815   0.00000  Uiso   1.00
C14    C     0.80126   0.86010   0.77125   0.00000  Uiso   1.00
C15    C     0.75905   0.88184   0.86603   0.00000  Uiso   1.00
C16    C     0.71340   0.84062   0.92053   0.00000  Uiso   1.00
C17    C     0.67978   0.87008   0.00506   0.00000  Uiso   1.00
C18    C     0.87584   0.87390   0.79986   0.00000  Uiso   1.00
C19    C     0.92839   0.82601   0.79871   0.00000  Uiso   1.00
C20    C     0.99309   0.84878   0.82752   0.00000  Uiso   1.00
C21    C     0.78359   0.91063   0.68432   0.00000  Uiso   1.00
C22    C     0.75860   0.89362   0.58602   0.00000  Uiso   1.00
C23    C     0.74565   0.94731   0.51754   0.00000  Uiso   1.00
H24    H     0.83179   0.03882   0.84695   0.00000  Uiso   1.00
H25    H     0.74617   0.03238   0.00173   0.00000  Uiso   1.00
H26    H     0.96113   0.01777   0.87992   0.00000  Uiso   1.00
H27    H     0.79136   0.08537   0.66726   0.00000  Uiso   1.00
H28    H     0.64614   0.99515   0.16062   0.00000  Uiso   1.00
H29    H     0.09939   0.96436   0.90374   0.00000  Uiso   1.00
H30    H     0.74140   0.10690   0.45530   0.00000  Uiso   1.00
H31    H     0.79219   0.80698   0.74875   0.00000  Uiso   1.00
H32    H     0.70440   0.78783   0.89815   0.00000  Uiso   1.00
H33    H     0.91936   0.77322   0.77634   0.00000  Uiso   1.00
H34    H     0.74959   0.84082   0.56368   0.00000  Uiso   1.00
H35    H     0.61223   0.79666   0.07655   0.00000  Uiso   1.00
H36    H     0.06549   0.76587   0.81967   0.00000  Uiso   1.00
H37    H     0.70749   0.90841   0.37124   0.00000  Uiso   1.00
O38    O     0.57217   0.88748   0.21866   0.00000  Uiso   1.00
O39    O     0.16681   0.84709   0.88162   0.00000  Uiso   1.00
O40    O     0.69714   0.03410   0.29329   0.00000  Uiso   1.00
N41    N     0.65019   0.95107   0.12032   0.00000  Uiso   1.00
N42    N     0.07396   0.92228   0.88017   0.00000  Uiso   1.00
N43    N     0.73928   0.05554   0.46091   0.00000  Uiso   1.00
N44    N     0.63195   0.84427   0.07508   0.00000  Uiso   1.00
N45    N     0.05571   0.81547   0.83493   0.00000  Uiso   1.00
N46    N     0.72104   0.94874   0.41567   0.00000  Uiso   1.00
C47    C     0.17729   0.01430   0.32445   0.00000  Uiso   1.00
C48    C     0.22930   0.04994   0.39493   0.00000  Uiso   1.00
C49    C     0.26286   0.02042   0.47939   0.00000  Uiso   1.00
C50    C     0.30855   0.06158   0.53401   0.00000  Uiso   1.00
C51    C     0.38751   0.10655   0.64787   0.00000  Uiso   1.00
C52    C     0.11251   0.05788   0.32876   0.00000  Uiso   1.00
C53    C     0.04787   0.03503   0.35757   0.00000  Uiso   1.00
C54    C     0.99524   0.08287   0.35647   0.00000  Uiso   1.00
C55    C     0.89287   0.14016   0.36753   0.00000  Uiso   1.00
C56    C     0.20476   0.02115   0.21322   0.00000  Uiso   1.00
C57    C     0.21766   0.96742   0.14487   0.00000  Uiso   1.00
C58    C     0.24268   0.98434   0.04649   0.00000  Uiso   1.00
C59    C     0.28354   0.98460   0.87815   0.00000  Uiso   1.00
C60    C     0.19874   0.13990   0.27125   0.00000  Uiso   1.00
C61    C     0.24095   0.11816   0.36603   0.00000  Uiso   1.00
C62    C     0.28660   0.15938   0.42053   0.00000  Uiso   1.00
C63    C     0.32022   0.12992   0.50506   0.00000  Uiso   1.00
C64    C     0.12416   0.12610   0.29986   0.00000  Uiso   1.00
C65    C     0.07161   0.17399   0.29871   0.00000  Uiso   1.00
C66    C     0.00691   0.15122   0.32752   0.00000  Uiso   1.00
C67    C     0.21641   0.08937   0.18432   0.00000  Uiso   1.00
C68    C     0.24140   0.10638   0.08602   0.00000  Uiso   1.00
C69    C     0.25435   0.05269   0.01754   0.00000  Uiso   1.00
H70    H     0.16821   0.96118   0.34695   0.00000  Uiso   1.00
H71    H     0.25383   0.96762   0.50173   0.00000  Uiso   1.00
H72    H     0.03887   0.98223   0.37992   0.00000  Uiso   1.00
H73    H     0.20864   0.91463   0.16726   0.00000  Uiso   1.00
H74    H     0.35386   0.00485   0.66062   0.00000  Uiso   1.00
H75    H     0.90061   0.03564   0.40374   0.00000  Uiso   1.00
H76    H     0.25860   0.89310   0.95530   0.00000  Uiso   1.00
H77    H     0.20781   0.19302   0.24875   0.00000  Uiso   1.00
H78    H     0.29560   0.21217   0.39815   0.00000  Uiso   1.00
H79    H     0.08064   0.22678   0.27634   0.00000  Uiso   1.00
H80    H     0.25041   0.15918   0.06368   0.00000  Uiso   1.00
H81    H     0.38777   0.20334   0.57655   0.00000  Uiso   1.00
H82    H     0.93451   0.23413   0.31967   0.00000  Uiso   1.00
H83    H     0.29251   0.09159   0.87124   0.00000  Uiso   1.00
O84    O     0.42783   0.11252   0.71866   0.00000  Uiso   1.00
O85    O     0.83319   0.15291   0.38162   0.00000  Uiso   1.00
O86    O     0.30286   0.96590   0.79329   0.00000  Uiso   1.00
N87    N     0.34981   0.04893   0.62032   0.00000  Uiso   1.00
N88    N     0.92604   0.07772   0.38017   0.00000  Uiso   1.00
N89    N     0.26072   0.94446   0.96091   0.00000  Uiso   1.00
N90    N     0.36805   0.15573   0.57508   0.00000  Uiso   1.00
N91    N     0.94429   0.18453   0.33493   0.00000  Uiso   1.00
N92    N     0.27896   0.05126   0.91567   0.00000  Uiso   1.00
C93    C     0.51430   0.32271   0.57445   0.00000  Uiso   1.00
C94    C     0.54994   0.27070   0.64493   0.00000  Uiso   1.00
C95    C     0.52042   0.23714   0.72939   0.00000  Uiso   1.00
C96    C     0.56158   0.19145   0.78401   0.00000  Uiso   1.00
C97    C     0.60655   0.11249   0.89787   0.00000  Uiso   1.00
C98    C     0.55788   0.38749   0.57876   0.00000  Uiso   1.00
C99    C     0.53503   0.45213   0.60757   0.00000  Uiso   1.00
C100   C     0.58287   0.50476   0.60647   0.00000  Uiso   1.00
C101   C     0.64016   0.60713   0.61753   0.00000  Uiso   1.00
C102   C     0.52115   0.29524   0.46322   0.00000  Uiso   1.00
C103   C     0.46742   0.28234   0.39487   0.00000  Uiso   1.00
C104   C     0.48434   0.25732   0.29649   0.00000  Uiso   1.00
C105   C     0.48460   0.21646   0.12815   0.00000  Uiso   1.00
C106   C     0.63990   0.30126   0.52125   0.00000  Uiso   1.00
C107   C     0.61816   0.25905   0.61603   0.00000  Uiso   1.00
C108   C     0.65938   0.21340   0.67053   0.00000  Uiso   1.00
C109   C     0.62992   0.17978   0.75506   0.00000  Uiso   1.00
C110   C     0.62610   0.37584   0.54986   0.00000  Uiso   1.00
C111   C     0.67399   0.42839   0.54871   0.00000  Uiso   1.00
C112   C     0.65122   0.49309   0.57752   0.00000  Uiso   1.00
C113   C     0.58937   0.28359   0.43432   0.00000  Uiso   1.00
C114   C     0.60638   0.25860   0.33602   0.00000  Uiso   1.00
C115   C     0.55269   0.24565   0.26754   0.00000  Uiso   1.00
H116   H     0.46118   0.33179   0.59695   0.00000  Uiso   1.00
H117   H     0.46762   0.24617   0.75173   0.00000  Uiso   1.00
H118   H     0.48223   0.46113   0.62992   0.00000  Uiso   1.00
H119   H     0.41463   0.29136   0.41726   0.00000  Uiso   1.00
H120   H     0.50485   0.14614   0.91062   0.00000  Uiso   1.00
H121   H     0.53564   0.59939   0.65374   0.00000  Uiso   1.00
H122   H     0.39310   0.24140   0.20530   0.00000  Uiso   1.00
H123   H     0.69302   0.29219   0.49875   0.00000  Uiso   1.00
H124   H     0.71217   0.20440   0.64815   0.00000  Uiso   1.00
H125   H     0.72678   0.41936   0.52634   0.00000  Uiso   1.00
H126   H     0.65918   0.24959   0.31368   0.00000  Uiso   1.00
H127   H     0.70334   0.11223   0.82655   0.00000  Uiso   1.00
H128   H     0.73413   0.56549   0.56967   0.00000  Uiso   1.00
H129   H     0.59159   0.20749   0.12124   0.00000  Uiso   1.00
O130   O     0.61252   0.07217   0.96866   0.00000  Uiso   1.00
O131   O     0.65291   0.66681   0.63162   0.00000  Uiso   1.00
O132   O     0.46590   0.19714   0.04329   0.00000  Uiso   1.00
N133   N     0.54893   0.15019   0.87032   0.00000  Uiso   1.00
N134   N     0.57772   0.57396   0.63017   0.00000  Uiso   1.00
N135   N     0.44446   0.23928   0.21091   0.00000  Uiso   1.00
N136   N     0.65573   0.13195   0.82508   0.00000  Uiso   1.00
N137   N     0.68453   0.55571   0.58493   0.00000  Uiso   1.00
N138   N     0.55126   0.22104   0.16567   0.00000  Uiso   1.00
C139   C     0.48570   0.67729   0.07445   0.00000  Uiso   1.00
C140   C     0.45006   0.72930   0.14493   0.00000  Uiso   1.00
C141   C     0.47958   0.76286   0.22939   0.00000  Uiso   1.00
C142   C     0.43842   0.80855   0.28401   0.00000  Uiso   1.00
C143   C     0.39345   0.88751   0.39787   0.00000  Uiso   1.00
C144   C     0.44212   0.61251   0.07876   0.00000  Uiso   1.00
C145   C     0.46497   0.54787   0.10757   0.00000  Uiso   1.00
C146   C     0.41713   0.49524   0.10647   0.00000  Uiso   1.00
C147   C     0.35984   0.39287   0.11753   0.00000  Uiso   1.00
C148   C     0.47885   0.70476   0.96322   0.00000  Uiso   1.00
C149   C     0.53258   0.71766   0.89487   0.00000  Uiso   1.00
C150   C     0.51566   0.74268   0.79649   0.00000  Uiso   1.00
C151   C     0.51540   0.78354   0.62815   0.00000  Uiso   1.00
C152   C     0.36010   0.69874   0.02125   0.00000  Uiso   1.00
C153   C     0.38184   0.74095   0.11603   0.00000  Uiso   1.00
C154   C     0.34062   0.78660   0.17053   0.00000  Uiso   1.00
C155   C     0.37008   0.82022   0.25506   0.00000  Uiso   1.00
C156   C     0.37390   0.62416   0.04986   0.00000  Uiso   1.00
C157   C     0.32601   0.57161   0.04871   0.00000  Uiso   1.00
C158   C     0.34878   0.50691   0.07752   0.00000  Uiso   1.00
C159   C     0.41063   0.71641   0.93432   0.00000  Uiso   1.00
C160   C     0.39362   0.74140   0.83602   0.00000  Uiso   1.00
C161   C     0.44731   0.75435   0.76754   0.00000  Uiso   1.00
H162   H     0.53882   0.66821   0.09695   0.00000  Uiso   1.00
H163   H     0.53238   0.75383   0.25173   0.00000  Uiso   1.00
H164   H     0.51777   0.53887   0.12992   0.00000  Uiso   1.00
H165   H     0.58537   0.70864   0.91726   0.00000  Uiso   1.00
H166   H     0.49515   0.85386   0.41062   0.00000  Uiso   1.00
H167   H     0.46436   0.40061   0.15374   0.00000  Uiso   1.00
H168   H     0.60690   0.75860   0.70530   0.00000  Uiso   1.00
H169   H     0.30698   0.70781   0.99875   0.00000  Uiso   1.00
H170   H     0.28783   0.79560   0.14815   0.00000  Uiso   1.00
H171   H     0.27322   0.58064   0.02634   0.00000  Uiso   1.00
H172   H     0.34082   0.75041   0.81368   0.00000  Uiso   1.00
H173   H     0.29666   0.88777   0.32655   0.00000  Uiso   1.00
H174   H     0.26587   0.43451   0.06967   0.00000  Uiso   1.00
H175   H     0.40841   0.79251   0.62124   0.00000  Uiso   1.00
O176   O     0.38748   0.92783   0.46866   0.00000  Uiso   1.00
O177   O     0.34709   0.33319   0.13162   0.00000  Uiso   1.00
O178   O     0.53410   0.80286   0.54329   0.00000  Uiso   1.00
N179   N     0.45107   0.84981   0.37032   0.00000  Uiso   1.00
N180   N     0.42228   0.42604   0.13017   0.00000  Uiso   1.00
N181   N     0.55554   0.76072   0.71091   0.00000  Uiso   1.00
N182   N     0.34427   0.86805   0.32508   0.00000  Uiso   1.00
N183   N     0.31547   0.44429   0.08493   0.00000  Uiso   1.00
N184   N     0.44874   0.77896   0.66567   0.00000  Uiso   1.00
C185   C     0.67729   0.48570   0.92555   0.00000  Uiso   1.00
C186   C     0.72930   0.45006   0.85507   0.00000  Uiso   1.00
C187   C     0.76286   0.47958   0.77061   0.00000  Uiso   1.00
C188   C     0.80855   0.43842   0.71599   0.00000  Uiso   1.00
C189   C     0.88751   0.39345   0.60213   0.00000  Uiso   1.00
C190   C     0.61251   0.44212   0.92124   0.00000  Uiso   1.00
C191   C     0.54787   0.46497   0.89243   0.00000  Uiso   1.00
C192   C     0.49524   0.41713   0.89353   0.00000  Uiso   1.00
C193   C     0.39287   0.35984   0.88247   0.00000  Uiso   1.00
C194   C     0.70476   0.47885   0.03678   0.00000  Uiso   1.00
C195   C     0.71766   0.53258   0.10513   0.00000  Uiso   1.00
C196   C     0.74268   0.51566   0.20351   0.00000  Uiso   1.00
C197   C     0.78354   0.51540   0.37185   0.00000  Uiso   1.00
C198   C     0.69874   0.36010   0.97875   0.00000  Uiso   1.00
C199   C     0.74095   0.38184   0.88397   0.00000  Uiso   1.00
C200   C     0.78660   0.34062   0.82947   0.00000  Uiso   1.00
C201   C     0.82022   0.37008   0.74494   0.00000  Uiso   1.00
C202   C     0.62416   0.37390   0.95014   0.00000  Uiso   1.00
C203   C     0.57161   0.32601   0.95129   0.00000  Uiso   1.00
C204   C     0.50691   0.34878   0.92248   0.00000  Uiso   1.00
C205   C     0.71641   0.41063   0.06568   0.00000  Uiso   1.00
C206   C     0.74140   0.39362   0.16398   0.00000  Uiso   1.00
C207   C     0.75435   0.44731   0.23246   0.00000  Uiso   1.00
H208   H     0.66821   0.53882   0.90305   0.00000  Uiso   1.00
H209   H     0.75383   0.53238   0.74827   0.00000  Uiso   1.00
H210   H     0.53887   0.51777   0.87008   0.00000  Uiso   1.00
H211   H     0.70864   0.58537   0.08274   0.00000  Uiso   1.00
H212   H     0.85386   0.49515   0.58938   0.00000  Uiso   1.00
H213   H     0.40061   0.46436   0.84626   0.00000  Uiso   1.00
H214   H     0.75860   0.60690   0.29470   0.00000  Uiso   1.00
H215   H     0.70781   0.30698   0.00125   0.00000  Uiso   1.00
H216   H     0.79560   0.28783   0.85185   0.00000  Uiso   1.00
H217   H     0.58064   0.27322   0.97366   0.00000  Uiso   1.00
H218   H     0.75041   0.34082   0.18632   0.00000  Uiso   1.00
H219   H     0.88777   0.29666   0.67345   0.00000  Uiso   1.00
H220   H     0.43451   0.26587   0.93033   0.00000  Uiso   1.00
H221   H     0.79251   0.40841   0.37876   0.00000  Uiso   1.00
O222   O     0.92783   0.38748   0.53134   0.00000  Uiso   1.00
O223   O     0.33319   0.34709   0.86838   0.00000  Uiso   1.00
O224   O     0.80286   0.53410   0.45671   0.00000  Uiso   1.00
N225   N     0.84981   0.45107   0.62968   0.00000  Uiso   1.00
N226   N     0.42604   0.42228   0.86983   0.00000  Uiso   1.00
N227   N     0.76072   0.55554   0.28909   0.00000  Uiso   1.00
N228   N     0.86805   0.34427   0.67492   0.00000  Uiso   1.00
N229   N     0.44429   0.31547   0.91507   0.00000  Uiso   1.00
N230   N     0.77896   0.44874   0.33433   0.00000  Uiso   1.00
C231   C     0.32271   0.51430   0.42555   0.00000  Uiso   1.00
C232   C     0.27070   0.54994   0.35507   0.00000  Uiso   1.00
C233   C     0.23714   0.52042   0.27061   0.00000  Uiso   1.00
C234   C     0.19145   0.56158   0.21599   0.00000  Uiso   1.00
C235   C     0.11249   0.60655   0.10213   0.00000  Uiso   1.00
C236   C     0.38749   0.55788   0.42124   0.00000  Uiso   1.00
C237   C     0.45213   0.53503   0.39243   0.00000  Uiso   1.00
C238   C     0.50476   0.58287   0.39353   0.00000  Uiso   1.00
C239   C     0.60713   0.64016   0.38247   0.00000  Uiso   1.00
C240   C     0.29524   0.52115   0.53678   0.00000  Uiso   1.00
C241   C     0.28234   0.46742   0.60513   0.00000  Uiso   1.00
C242   C     0.25732   0.48434   0.70351   0.00000  Uiso   1.00
C243   C     0.21646   0.48460   0.87185   0.00000  Uiso   1.00
C244   C     0.30126   0.63990   0.47875   0.00000  Uiso   1.00
C245   C     0.25905   0.61816   0.38397   0.00000  Uiso   1.00
C246   C     0.21340   0.65938   0.32947   0.00000  Uiso   1.00
C247   C     0.17978   0.62992   0.24494   0.00000  Uiso   1.00
C248   C     0.37584   0.62610   0.45014   0.00000  Uiso   1.00
C249   C     0.42839   0.67399   0.45129   0.00000  Uiso   1.00
C250   C     0.49309   0.65122   0.42248   0.00000  Uiso   1.00
C251   C     0.28359   0.58937   0.56568   0.00000  Uiso   1.00
C252   C     0.25860   0.60638   0.66398   0.00000  Uiso   1.00
C253   C     0.24565   0.55269   0.73246   0.00000  Uiso   1.00
H254   H     0.33179   0.46118   0.40305   0.00000  Uiso   1.00
H255   H     0.24617   0.46762   0.24827   0.00000  Uiso   1.00
H256   H     0.46113   0.48223   0.37008   0.00000  Uiso   1.00
H257   H     0.29136   0.41463   0.58274   0.00000  Uiso   1.00
H258   H     0.14614   0.50485   0.08938   0.00000  Uiso   1.00
H259   H     0.59939   0.53564   0.34626   0.00000  Uiso   1.00
H260   H     0.24140   0.39310   0.79470   0.00000  Uiso   1.00
H261   H     0.29219   0.69302   0.50125   0.00000  Uiso   1.00
H262   H     0.20440   0.71217   0.35185   0.00000  Uiso   1.00
H263   H     0.41936   0.72678   0.47366   0.00000  Uiso   1.00
H264   H     0.24959   0.65918   0.68632   0.00000  Uiso   1.00
H265   H     0.11223   0.70334   0.17345   0.00000  Uiso   1.00
H266   H     0.56549   0.73413   0.43033   0.00000  Uiso   1.00
H267   H     0.20749   0.59159   0.87876   0.00000  Uiso   1.00
O268   O     0.07217   0.61252   0.03134   0.00000  Uiso   1.00
O269   O     0.66681   0.65291   0.36838   0.00000  Uiso   1.00
O270   O     0.19714   0.46590   0.95671   0.00000  Uiso   1.00
N271   N     0.15019   0.54893   0.12968   0.00000  Uiso   1.00
N272   N     0.57396   0.57772   0.36983   0.00000  Uiso   1.00
N273   N     0.23928   0.44446   0.78909   0.00000  Uiso   1.00
N274   N     0.13195   0.65573   0.17492   0.00000  Uiso   1.00
N275   N     0.55571   0.68453   0.41507   0.00000  Uiso   1.00
N276   N     0.22104   0.55126   0.83433   0.00000  Uiso   1.00
C277   C     0.98570   0.82271   0.17555   0.00000  Uiso   1.00
C278   C     0.95006   0.77070   0.10507   0.00000  Uiso   1.00
C279   C     0.97958   0.73714   0.02061   0.00000  Uiso   1.00
C280   C     0.93842   0.69145   0.96599   0.00000  Uiso   1.00
C281   C     0.89345   0.61249   0.85213   0.00000  Uiso   1.00
C282   C     0.94212   0.88749   0.17124   0.00000  Uiso   1.00
C283   C     0.96497   0.95213   0.14243   0.00000  Uiso   1.00
C284   C     0.91713   0.00476   0.14353   0.00000  Uiso   1.00
C285   C     0.85984   0.10713   0.13247   0.00000  Uiso   1.00
C286   C     0.97885   0.79524   0.28678   0.00000  Uiso   1.00
C287   C     0.03258   0.78234   0.35513   0.00000  Uiso   1.00
C288   C     0.01566   0.75732   0.45351   0.00000  Uiso   1.00
C289   C     0.01540   0.71646   0.62185   0.00000  Uiso   1.00
C290   C     0.86010   0.80126   0.22875   0.00000  Uiso   1.00
C291   C     0.88184   0.75905   0.13397   0.00000  Uiso   1.00
C292   C     0.84062   0.71340   0.07947   0.00000  Uiso   1.00
C293   C     0.87008   0.67978   0.99494   0.00000  Uiso   1.00
C294   C     0.87390   0.87584   0.20014   0.00000  Uiso   1.00
C295   C     0.82601   0.92839   0.20129   0.00000  Uiso   1.00
C296   C     0.84878   0.99309   0.17248   0.00000  Uiso   1.00
C297   C     0.91063   0.78359   0.31568   0.00000  Uiso   1.00
C298   C     0.89362   0.75860   0.41398   0.00000  Uiso   1.00
C299   C     0.94731   0.74565   0.48246   0.00000  Uiso   1.00
H300   H     0.03882   0.83179   0.15305   0.00000  Uiso   1.00
H301   H     0.03238   0.74617   0.99827   0.00000  Uiso   1.00
H302   H     0.01777   0.96113   0.12008   0.00000  Uiso   1.00
H303   H     0.08537   0.79136   0.33274   0.00000  Uiso   1.00
H304   H     0.99515   0.64614   0.83938   0.00000  Uiso   1.00
H305   H     0.96436   0.09939   0.09626   0.00000  Uiso   1.00
H306   H     0.10690   0.74140   0.54470   0.00000  Uiso   1.00
H307   H     0.80698   0.79219   0.25125   0.00000  Uiso   1.00
H308   H     0.78783   0.70440   0.10185   0.00000  Uiso   1.00
H309   H     0.77322   0.91936   0.22366   0.00000  Uiso   1.00
H310   H     0.84082   0.74959   0.43632   0.00000  Uiso   1.00
H311   H     0.79666   0.61223   0.92345   0.00000  Uiso   1.00
H312   H     0.76587   0.06549   0.18033   0.00000  Uiso   1.00
H313   H     0.90841   0.70749   0.62876   0.00000  Uiso   1.00
O314   O     0.88748   0.57217   0.78134   0.00000  Uiso   1.00
O315   O     0.84709   0.16681   0.11838   0.00000  Uiso   1.00
O316   O     0.03410   0.69714   0.70671   0.00000  Uiso   1.00
N317   N     0.95107   0.65019   0.87968   0.00000  Uiso   1.00
N318   N     0.92228   0.07396   0.11983   0.00000  Uiso   1.00
N319   N     0.05554   0.73928   0.53909   0.00000  Uiso   1.00
N320   N     0.84427   0.63195   0.92492   0.00000  Uiso   1.00
N321   N     0.81547   0.05571   0.16507   0.00000  Uiso   1.00
N322   N     0.94874   0.72104   0.58433   0.00000  Uiso   1.00
C323   C     0.01430   0.17729   0.67555   0.00000  Uiso   1.00
C324   C     0.04994   0.22930   0.60507   0.00000  Uiso   1.00
C325   C     0.02042   0.26286   0.52061   0.00000  Uiso   1.00
C326   C     0.06158   0.30855   0.46599   0.00000  Uiso   1.00
C327   C     0.10655   0.38751   0.35213   0.00000  Uiso   1.00
C328   C     0.05788   0.11251   0.67124   0.00000  Uiso   1.00
C329   C     0.03503   0.04787   0.64243   0.00000  Uiso   1.00
C330   C     0.08287   0.99524   0.64353   0.00000  Uiso   1.00
C331   C     0.14016   0.89287   0.63247   0.00000  Uiso   1.00
C332   C     0.02115   0.20476   0.78678   0.00000  Uiso   1.00
C333   C     0.96742   0.21766   0.85513   0.00000  Uiso   1.00
C334   C     0.98434   0.24268   0.95351   0.00000  Uiso   1.00
C335   C     0.98460   0.28354   0.12185   0.00000  Uiso   1.00
C336   C     0.13990   0.19874   0.72875   0.00000  Uiso   1.00
C337   C     0.11816   0.24095   0.63397   0.00000  Uiso   1.00
C338   C     0.15938   0.28660   0.57947   0.00000  Uiso   1.00
C339   C     0.12992   0.32022   0.49494   0.00000  Uiso   1.00
C340   C     0.12610   0.12416   0.70014   0.00000  Uiso   1.00
C341   C     0.17399   0.07161   0.70129   0.00000  Uiso   1.00
C342   C     0.15122   0.00691   0.67248   0.00000  Uiso   1.00
C343   C     0.08937   0.21641   0.81568   0.00000  Uiso   1.00
C344   C     0.10638   0.24140   0.91398   0.00000  Uiso   1.00
C345   C     0.05269   0.25435   0.98246   0.00000  Uiso   1.00
H346   H     0.96118   0.16821   0.65305   0.00000  Uiso   1.00
H347   H     0.96762   0.25383   0.49827   0.00000  Uiso   1.00
H348   H     0.98223   0.03887   0.62008   0.00000  Uiso   1.00
H349   H     0.91463   0.20864   0.83274   0.00000  Uiso   1.00
H350   H     0.00485   0.35386   0.33938   0.00000  Uiso   1.00
H351   H     0.03564   0.90061   0.59626   0.00000  Uiso   1.00
H352   H     0.89310   0.25860   0.04470   0.00000  Uiso   1.00
H353   H     0.19302   0.20781   0.75125   0.00000  Uiso   1.00
H354   H     0.21217   0.29560   0.60185   0.00000  Uiso   1.00
H355   H     0.22678   0.08064   0.72366   0.00000  Uiso   1.00
H356   H     0.15918   0.25041   0.93632   0.00000  Uiso   1.00
H357   H     0.20334   0.38777   0.42345   0.00000  Uiso   1.00
H358   H     0.23413   0.93451   0.68033   0.00000  Uiso   1.00
H359   H     0.09159   0.29251   0.12876   0.00000  Uiso   1.00
O360   O     0.11252   0.42783   0.28134   0.00000  Uiso   1.00
O361   O     0.15291   0.83319   0.61838   0.00000  Uiso   1.00
O362   O     0.96590   0.30286   0.20671   0.00000  Uiso   1.00
N363   N     0.04893   0.34981   0.37968   0.00000  Uiso   1.00
N364   N     0.07772   0.92604   0.61983   0.00000  Uiso   1.00
N365   N     0.94446   0.26072   0.03909   0.00000  Uiso   1.00
N366   N     0.15573   0.36805   0.42492   0.00000  Uiso   1.00
N367   N     0.18453   0.94429   0.66507   0.00000  Uiso   1.00
N368   N     0.05126   0.27896   0.08433   0.00000  Uiso   1.00
