data_job_02781
_audit_creation_date              2018-12-19
_audit_creation_method            'Materials Studio'
_symmetry_space_group_name_H-M    'P1'
_symmetry_Int_Tables_number       1
_symmetry_cell_setting            triclinic
loop_
_symmetry_equiv_pos_as_xyz
  x,y,z
_cell_length_a                    10.9890
_cell_length_b                    12.5623
_cell_length_c                    28.5760
_cell_angle_alpha                 90.0000
_cell_angle_beta                  116.7821
_cell_angle_gamma                 90.0000
loop_
_atom_site_label
_atom_site_type_symbol
_atom_site_fract_x
_atom_site_fract_y
_atom_site_fract_z
_atom_site_U_iso_or_equiv
_atom_site_adp_type
_atom_site_occupancy
C1     C     0.42409   0.36806   0.36645   0.00000  Uiso   1.00
C2     C     0.54192   0.29150   0.39574   0.00000  Uiso   1.00
C3     C     0.53692   0.20127   0.42283   0.00000  Uiso   1.00
C4     C     0.65564   0.14167   0.44703   0.00000  Uiso   1.00
C5     C     0.82047   0.01831   0.49295   0.00000  Uiso   1.00
C6     C     0.47525   0.47789   0.38975   0.00000  Uiso   1.00
C7     C     0.41417   0.54437   0.41180   0.00000  Uiso   1.00
C8     C     0.47676   0.64168   0.43095   0.00000  Uiso   1.00
C9     C     0.53802   0.80772   0.46754   0.00000  Uiso   1.00
C10    C     0.40568   0.37224   0.31031   0.00000  Uiso   1.00
C11    C     0.28610   0.34991   0.26557   0.00000  Uiso   1.00
C12    C     0.29011   0.35830   0.21783   0.00000  Uiso   1.00
C13    C     0.24335   0.36030   0.13108   0.00000  Uiso   1.00
C14    C     0.64382   0.42269   0.36124   0.00000  Uiso   1.00
C15    C     0.66127   0.32118   0.39291   0.00000  Uiso   1.00
C16    C     0.78003   0.26171   0.41707   0.00000  Uiso   1.00
C17    C     0.77520   0.17140   0.44419   0.00000  Uiso   1.00
C18    C     0.59459   0.50756   0.38692   0.00000  Uiso   1.00
C19    C     0.65728   0.60481   0.40604   0.00000  Uiso   1.00
C20    C     0.59632   0.67141   0.42812   0.00000  Uiso   1.00
C21    C     0.52503   0.40191   0.30748   0.00000  Uiso   1.00
C22    C     0.52921   0.41035   0.25980   0.00000  Uiso   1.00
C23    C     0.40967   0.38803   0.21500   0.00000  Uiso   1.00
H24    H     0.33117   0.34497   0.36866   0.00000  Uiso   1.00
H25    H     0.44454   0.17834   0.42502   0.00000  Uiso   1.00
H26    H     0.32181   0.52139   0.41398   0.00000  Uiso   1.00
H27    H     0.19376   0.32696   0.26777   0.00000  Uiso   1.00
H28    H     0.62288   0.00670   0.48627   0.00000  Uiso   1.00
H29    H     0.36406   0.73005   0.46299   0.00000  Uiso   1.00
H30    H     0.09405   0.32006   0.15467   0.00000  Uiso   1.00
H31    H     0.73674   0.44580   0.35904   0.00000  Uiso   1.00
H32    H     0.87237   0.28469   0.41487   0.00000  Uiso   1.00
H33    H     0.74963   0.62774   0.40384   0.00000  Uiso   1.00
H34    H     0.62159   0.43331   0.25763   0.00000  Uiso   1.00
H35    H     0.97013   0.09302   0.47804   0.00000  Uiso   1.00
H36    H     0.71130   0.81638   0.45475   0.00000  Uiso   1.00
H37    H     0.44129   0.40639   0.14644   0.00000  Uiso   1.00
O38    O     0.87842   0.94208   0.51907   0.00000  Uiso   1.00
O39    O     0.53884   0.89110   0.48851   0.00000  Uiso   1.00
O40    O     0.18459   0.35320   0.08401   0.00000  Uiso   1.00
N41    N     0.68599   0.04911   0.47666   0.00000  Uiso   1.00
N42    N     0.44402   0.72540   0.45490   0.00000  Uiso   1.00
N43    N     0.19156   0.34212   0.16665   0.00000  Uiso   1.00
N44    N     0.87284   0.09556   0.47223   0.00000  Uiso   1.00
N45    N     0.63087   0.77185   0.45047   0.00000  Uiso   1.00
N46    N     0.37841   0.38857   0.16222   0.00000  Uiso   1.00
C47    C     0.57591   0.86806   0.13355   0.00000  Uiso   1.00
C48    C     0.45808   0.79150   0.10426   0.00000  Uiso   1.00
C49    C     0.46308   0.70127   0.07717   0.00000  Uiso   1.00
C50    C     0.34436   0.64167   0.05297   0.00000  Uiso   1.00
C51    C     0.17953   0.51831   0.00705   0.00000  Uiso   1.00
C52    C     0.52475   0.97789   0.11025   0.00000  Uiso   1.00
C53    C     0.58583   0.04437   0.08820   0.00000  Uiso   1.00
C54    C     0.52324   0.14168   0.06905   0.00000  Uiso   1.00
C55    C     0.46198   0.30772   0.03246   0.00000  Uiso   1.00
C56    C     0.59432   0.87224   0.18969   0.00000  Uiso   1.00
C57    C     0.71390   0.84991   0.23443   0.00000  Uiso   1.00
C58    C     0.70989   0.85830   0.28217   0.00000  Uiso   1.00
C59    C     0.75665   0.86030   0.36892   0.00000  Uiso   1.00
C60    C     0.35618   0.92269   0.13876   0.00000  Uiso   1.00
C61    C     0.33873   0.82118   0.10709   0.00000  Uiso   1.00
C62    C     0.21997   0.76171   0.08293   0.00000  Uiso   1.00
C63    C     0.22480   0.67140   0.05581   0.00000  Uiso   1.00
C64    C     0.40541   0.00756   0.11308   0.00000  Uiso   1.00
C65    C     0.34272   0.10481   0.09396   0.00000  Uiso   1.00
C66    C     0.40368   0.17141   0.07188   0.00000  Uiso   1.00
C67    C     0.47497   0.90191   0.19252   0.00000  Uiso   1.00
C68    C     0.47079   0.91035   0.24020   0.00000  Uiso   1.00
C69    C     0.59033   0.88803   0.28500   0.00000  Uiso   1.00
H70    H     0.66883   0.84497   0.13134   0.00000  Uiso   1.00
H71    H     0.55546   0.67834   0.07498   0.00000  Uiso   1.00
H72    H     0.67819   0.02139   0.08602   0.00000  Uiso   1.00
H73    H     0.80624   0.82696   0.23223   0.00000  Uiso   1.00
H74    H     0.37712   0.50670   0.01373   0.00000  Uiso   1.00
H75    H     0.63594   0.23005   0.03701   0.00000  Uiso   1.00
H76    H     0.90595   0.82006   0.34533   0.00000  Uiso   1.00
H77    H     0.26326   0.94580   0.14096   0.00000  Uiso   1.00
H78    H     0.12763   0.78469   0.08513   0.00000  Uiso   1.00
H79    H     0.25037   0.12774   0.09616   0.00000  Uiso   1.00
H80    H     0.37841   0.93331   0.24237   0.00000  Uiso   1.00
H81    H     0.02987   0.59302   0.02196   0.00000  Uiso   1.00
H82    H     0.28870   0.31638   0.04525   0.00000  Uiso   1.00
H83    H     0.55871   0.90639   0.35356   0.00000  Uiso   1.00
O84    O     0.12158   0.44208   0.98093   0.00000  Uiso   1.00
O85    O     0.46116   0.39110   0.01149   0.00000  Uiso   1.00
O86    O     0.81541   0.85320   0.41599   0.00000  Uiso   1.00
N87    N     0.31401   0.54911   0.02334   0.00000  Uiso   1.00
N88    N     0.55598   0.22540   0.04510   0.00000  Uiso   1.00
N89    N     0.80844   0.84212   0.33335   0.00000  Uiso   1.00
N90    N     0.12716   0.59556   0.02777   0.00000  Uiso   1.00
N91    N     0.36913   0.27185   0.04953   0.00000  Uiso   1.00
N92    N     0.62159   0.88857   0.33778   0.00000  Uiso   1.00
C93    C     0.57591   0.63194   0.63355   0.00000  Uiso   1.00
C94    C     0.45808   0.70850   0.60426   0.00000  Uiso   1.00
C95    C     0.46308   0.79873   0.57717   0.00000  Uiso   1.00
C96    C     0.34436   0.85833   0.55297   0.00000  Uiso   1.00
C97    C     0.17953   0.98169   0.50705   0.00000  Uiso   1.00
C98    C     0.52475   0.52211   0.61025   0.00000  Uiso   1.00
C99    C     0.58583   0.45563   0.58820   0.00000  Uiso   1.00
C100   C     0.52324   0.35832   0.56905   0.00000  Uiso   1.00
C101   C     0.46198   0.19228   0.53246   0.00000  Uiso   1.00
C102   C     0.59432   0.62776   0.68969   0.00000  Uiso   1.00
C103   C     0.71390   0.65009   0.73443   0.00000  Uiso   1.00
C104   C     0.70989   0.64170   0.78217   0.00000  Uiso   1.00
C105   C     0.75665   0.63970   0.86892   0.00000  Uiso   1.00
C106   C     0.35618   0.57731   0.63876   0.00000  Uiso   1.00
C107   C     0.33873   0.67882   0.60709   0.00000  Uiso   1.00
C108   C     0.21997   0.73829   0.58293   0.00000  Uiso   1.00
C109   C     0.22480   0.82860   0.55581   0.00000  Uiso   1.00
C110   C     0.40541   0.49244   0.61308   0.00000  Uiso   1.00
C111   C     0.34272   0.39519   0.59396   0.00000  Uiso   1.00
C112   C     0.40368   0.32859   0.57188   0.00000  Uiso   1.00
C113   C     0.47497   0.59809   0.69252   0.00000  Uiso   1.00
C114   C     0.47079   0.58965   0.74020   0.00000  Uiso   1.00
C115   C     0.59033   0.61197   0.78500   0.00000  Uiso   1.00
H116   H     0.66883   0.65503   0.63134   0.00000  Uiso   1.00
H117   H     0.55546   0.82166   0.57498   0.00000  Uiso   1.00
H118   H     0.67819   0.47861   0.58602   0.00000  Uiso   1.00
H119   H     0.80624   0.67304   0.73223   0.00000  Uiso   1.00
H120   H     0.37712   0.99330   0.51373   0.00000  Uiso   1.00
H121   H     0.63594   0.26995   0.53701   0.00000  Uiso   1.00
H122   H     0.90595   0.67994   0.84533   0.00000  Uiso   1.00
H123   H     0.26326   0.55420   0.64096   0.00000  Uiso   1.00
H124   H     0.12763   0.71531   0.58513   0.00000  Uiso   1.00
H125   H     0.25037   0.37226   0.59616   0.00000  Uiso   1.00
H126   H     0.37841   0.56669   0.74237   0.00000  Uiso   1.00
H127   H     0.02987   0.90698   0.52196   0.00000  Uiso   1.00
H128   H     0.28870   0.18362   0.54525   0.00000  Uiso   1.00
H129   H     0.55871   0.59361   0.85356   0.00000  Uiso   1.00
O130   O     0.12158   0.05792   0.48093   0.00000  Uiso   1.00
O131   O     0.46116   0.10890   0.51149   0.00000  Uiso   1.00
O132   O     0.81541   0.64680   0.91599   0.00000  Uiso   1.00
N133   N     0.31401   0.95089   0.52334   0.00000  Uiso   1.00
N134   N     0.55598   0.27460   0.54510   0.00000  Uiso   1.00
N135   N     0.80844   0.65788   0.83335   0.00000  Uiso   1.00
N136   N     0.12716   0.90444   0.52777   0.00000  Uiso   1.00
N137   N     0.36913   0.22815   0.54953   0.00000  Uiso   1.00
N138   N     0.62159   0.61143   0.83778   0.00000  Uiso   1.00
C139   C     0.42409   0.13194   0.86645   0.00000  Uiso   1.00
C140   C     0.54192   0.20850   0.89574   0.00000  Uiso   1.00
C141   C     0.53692   0.29873   0.92283   0.00000  Uiso   1.00
C142   C     0.65564   0.35833   0.94703   0.00000  Uiso   1.00
C143   C     0.82047   0.48169   0.99295   0.00000  Uiso   1.00
C144   C     0.47525   0.02211   0.88975   0.00000  Uiso   1.00
C145   C     0.41417   0.95563   0.91180   0.00000  Uiso   1.00
C146   C     0.47676   0.85832   0.93095   0.00000  Uiso   1.00
C147   C     0.53802   0.69228   0.96754   0.00000  Uiso   1.00
C148   C     0.40568   0.12776   0.81031   0.00000  Uiso   1.00
C149   C     0.28610   0.15009   0.76557   0.00000  Uiso   1.00
C150   C     0.29011   0.14170   0.71783   0.00000  Uiso   1.00
C151   C     0.24335   0.13970   0.63108   0.00000  Uiso   1.00
C152   C     0.64382   0.07731   0.86124   0.00000  Uiso   1.00
C153   C     0.66127   0.17882   0.89291   0.00000  Uiso   1.00
C154   C     0.78003   0.23829   0.91707   0.00000  Uiso   1.00
C155   C     0.77520   0.32860   0.94419   0.00000  Uiso   1.00
C156   C     0.59459   0.99244   0.88692   0.00000  Uiso   1.00
C157   C     0.65728   0.89519   0.90604   0.00000  Uiso   1.00
C158   C     0.59632   0.82859   0.92812   0.00000  Uiso   1.00
C159   C     0.52503   0.09809   0.80748   0.00000  Uiso   1.00
C160   C     0.52921   0.08965   0.75980   0.00000  Uiso   1.00
C161   C     0.40967   0.11197   0.71500   0.00000  Uiso   1.00
H162   H     0.33117   0.15503   0.86866   0.00000  Uiso   1.00
H163   H     0.44454   0.32166   0.92502   0.00000  Uiso   1.00
H164   H     0.32181   0.97861   0.91398   0.00000  Uiso   1.00
H165   H     0.19376   0.17304   0.76777   0.00000  Uiso   1.00
H166   H     0.62288   0.49330   0.98627   0.00000  Uiso   1.00
H167   H     0.36406   0.76995   0.96299   0.00000  Uiso   1.00
H168   H     0.09405   0.17994   0.65467   0.00000  Uiso   1.00
H169   H     0.73674   0.05420   0.85904   0.00000  Uiso   1.00
H170   H     0.87237   0.21531   0.91487   0.00000  Uiso   1.00
H171   H     0.74963   0.87226   0.90384   0.00000  Uiso   1.00
H172   H     0.62159   0.06669   0.75763   0.00000  Uiso   1.00
H173   H     0.97013   0.40698   0.97804   0.00000  Uiso   1.00
H174   H     0.71130   0.68362   0.95475   0.00000  Uiso   1.00
H175   H     0.44129   0.09361   0.64644   0.00000  Uiso   1.00
O176   O     0.87842   0.55792   0.01907   0.00000  Uiso   1.00
O177   O     0.53884   0.60890   0.98851   0.00000  Uiso   1.00
O178   O     0.18459   0.14680   0.58401   0.00000  Uiso   1.00
N179   N     0.68599   0.45089   0.97666   0.00000  Uiso   1.00
N180   N     0.44402   0.77460   0.95490   0.00000  Uiso   1.00
N181   N     0.19156   0.15788   0.66665   0.00000  Uiso   1.00
N182   N     0.87284   0.40444   0.97223   0.00000  Uiso   1.00
N183   N     0.63087   0.72815   0.95047   0.00000  Uiso   1.00
N184   N     0.37841   0.11143   0.66222   0.00000  Uiso   1.00
