data_job_01019
_audit_creation_date              2018-12-19
_audit_creation_method            'Materials Studio'
_symmetry_space_group_name_H-M    'P1'
_symmetry_Int_Tables_number       1
_symmetry_cell_setting            triclinic
loop_
_symmetry_equiv_pos_as_xyz
  x,y,z
_cell_length_a                    20.8925
_cell_length_b                    22.0244
_cell_length_c                    13.1763
_cell_angle_alpha                 90.0000
_cell_angle_beta                  90.0000
_cell_angle_gamma                 90.0000
loop_
_atom_site_label
_atom_site_type_symbol
_atom_site_fract_x
_atom_site_fract_y
_atom_site_fract_z
_atom_site_U_iso_or_equiv
_atom_site_adp_type
_atom_site_occupancy
C1     C     0.46573   0.14623   0.60490   0.00000  Uiso   1.00
C2     C     0.49504   0.20688   0.63583   0.00000  Uiso   1.00
C3     C     0.47624   0.26351   0.60056   0.00000  Uiso   1.00
C4     C     0.50906   0.31351   0.63808   0.00000  Uiso   1.00
C5     C     0.54702   0.40866   0.67538   0.00000  Uiso   1.00
C6     C     0.52084   0.10783   0.56440   0.00000  Uiso   1.00
C7     C     0.52371   0.08117   0.46907   0.00000  Uiso   1.00
C8     C     0.57825   0.04779   0.44646   0.00000  Uiso   1.00
C9     C     0.65622   0.98912   0.37289   0.00000  Uiso   1.00
C10    C     0.44419   0.11583   0.70310   0.00000  Uiso   1.00
C11    C     0.38263   0.09588   0.72438   0.00000  Uiso   1.00
C12    C     0.37264   0.06921   0.81855   0.00000  Uiso   1.00
C13    C     0.33162   0.02297   0.96034   0.00000  Uiso   1.00
C14    C     0.55747   0.13433   0.73426   0.00000  Uiso   1.00
C15    C     0.54487   0.20041   0.70609   0.00000  Uiso   1.00
C16    C     0.57774   0.25034   0.74368   0.00000  Uiso   1.00
C17    C     0.55898   0.30704   0.70847   0.00000  Uiso   1.00
C18    C     0.57066   0.10137   0.63466   0.00000  Uiso   1.00
C19    C     0.62521   0.06801   0.61219   0.00000  Uiso   1.00
C20    C     0.62817   0.04131   0.51685   0.00000  Uiso   1.00
C21    C     0.49402   0.10936   0.77337   0.00000  Uiso   1.00
C22    C     0.48413   0.08272   0.86751   0.00000  Uiso   1.00
C23    C     0.42256   0.06274   0.88894   0.00000  Uiso   1.00
H24    H     0.42694   0.15126   0.55019   0.00000  Uiso   1.00
H25    H     0.43768   0.26849   0.54617   0.00000  Uiso   1.00
H26    H     0.48514   0.08618   0.41471   0.00000  Uiso   1.00
H27    H     0.34408   0.10088   0.66999   0.00000  Uiso   1.00
H28    H     0.47157   0.39561   0.57268   0.00000  Uiso   1.00
H29    H     0.57164   0.01118   0.29550   0.00000  Uiso   1.00
H30    H     0.27419   0.04219   0.83380   0.00000  Uiso   1.00
H31    H     0.59627   0.12930   0.78896   0.00000  Uiso   1.00
H32    H     0.61630   0.24533   0.79805   0.00000  Uiso   1.00
H33    H     0.66376   0.06301   0.66658   0.00000  Uiso   1.00
H34    H     0.52270   0.07772   0.92187   0.00000  Uiso   1.00
H35    H     0.61655   0.37681   0.77711   0.00000  Uiso   1.00
H36    H     0.71661   0.99237   0.49992   0.00000  Uiso   1.00
H37    H     0.41916   0.02339   0.03824   0.00000  Uiso   1.00
O38    O     0.55419   0.46293   0.67654   0.00000  Uiso   1.00
O39    O     0.68547   0.95856   0.31289   0.00000  Uiso   1.00
O40    O     0.29522   0.99925   0.01914   0.00000  Uiso   1.00
N41    N     0.50293   0.37526   0.61956   0.00000  Uiso   1.00
N42    N     0.59650   0.01585   0.36040   0.00000  Uiso   1.00
N43    N     0.31841   0.04483   0.86367   0.00000  Uiso   1.00
N44    N     0.58094   0.36515   0.72957   0.00000  Uiso   1.00
N45    N     0.67451   0.00573   0.47041   0.00000  Uiso   1.00
N46    N     0.39642   0.03471   0.97367   0.00000  Uiso   1.00
C47    C     0.46573   0.64623   0.10490   0.00000  Uiso   1.00
C48    C     0.49504   0.70688   0.13583   0.00000  Uiso   1.00
C49    C     0.47624   0.76351   0.10056   0.00000  Uiso   1.00
C50    C     0.50906   0.81351   0.13808   0.00000  Uiso   1.00
C51    C     0.54702   0.90866   0.17538   0.00000  Uiso   1.00
C52    C     0.52084   0.60783   0.06440   0.00000  Uiso   1.00
C53    C     0.52371   0.58117   0.96907   0.00000  Uiso   1.00
C54    C     0.57825   0.54779   0.94646   0.00000  Uiso   1.00
C55    C     0.65622   0.48912   0.87289   0.00000  Uiso   1.00
C56    C     0.44419   0.61583   0.20310   0.00000  Uiso   1.00
C57    C     0.38263   0.59588   0.22438   0.00000  Uiso   1.00
C58    C     0.37264   0.56921   0.31855   0.00000  Uiso   1.00
C59    C     0.33162   0.52297   0.46034   0.00000  Uiso   1.00
C60    C     0.55747   0.63433   0.23426   0.00000  Uiso   1.00
C61    C     0.54487   0.70041   0.20609   0.00000  Uiso   1.00
C62    C     0.57774   0.75034   0.24368   0.00000  Uiso   1.00
C63    C     0.55898   0.80704   0.20847   0.00000  Uiso   1.00
C64    C     0.57066   0.60137   0.13466   0.00000  Uiso   1.00
C65    C     0.62521   0.56801   0.11219   0.00000  Uiso   1.00
C66    C     0.62817   0.54131   0.01685   0.00000  Uiso   1.00
C67    C     0.49402   0.60936   0.27337   0.00000  Uiso   1.00
C68    C     0.48413   0.58272   0.36751   0.00000  Uiso   1.00
C69    C     0.42256   0.56274   0.38894   0.00000  Uiso   1.00
H70    H     0.42694   0.65126   0.05019   0.00000  Uiso   1.00
H71    H     0.43768   0.76849   0.04617   0.00000  Uiso   1.00
H72    H     0.48514   0.58618   0.91471   0.00000  Uiso   1.00
H73    H     0.34408   0.60088   0.16999   0.00000  Uiso   1.00
H74    H     0.47157   0.89561   0.07268   0.00000  Uiso   1.00
H75    H     0.57164   0.51118   0.79550   0.00000  Uiso   1.00
H76    H     0.27419   0.54219   0.33380   0.00000  Uiso   1.00
H77    H     0.59627   0.62930   0.28896   0.00000  Uiso   1.00
H78    H     0.61630   0.74533   0.29805   0.00000  Uiso   1.00
H79    H     0.66376   0.56301   0.16658   0.00000  Uiso   1.00
H80    H     0.52270   0.57772   0.42187   0.00000  Uiso   1.00
H81    H     0.61655   0.87681   0.27711   0.00000  Uiso   1.00
H82    H     0.71661   0.49237   0.99992   0.00000  Uiso   1.00
H83    H     0.41916   0.52339   0.53824   0.00000  Uiso   1.00
O84    O     0.55419   0.96293   0.17654   0.00000  Uiso   1.00
O85    O     0.68547   0.45856   0.81289   0.00000  Uiso   1.00
O86    O     0.29522   0.49925   0.51914   0.00000  Uiso   1.00
N87    N     0.50293   0.87526   0.11956   0.00000  Uiso   1.00
N88    N     0.59650   0.51585   0.86040   0.00000  Uiso   1.00
N89    N     0.31841   0.54483   0.36367   0.00000  Uiso   1.00
N90    N     0.58094   0.86515   0.22957   0.00000  Uiso   1.00
N91    N     0.67451   0.50573   0.97041   0.00000  Uiso   1.00
N92    N     0.39642   0.53471   0.47367   0.00000  Uiso   1.00
C93    C     0.53427   0.85377   0.60490   0.00000  Uiso   1.00
C94    C     0.50496   0.79312   0.63583   0.00000  Uiso   1.00
C95    C     0.52376   0.73649   0.60056   0.00000  Uiso   1.00
C96    C     0.49094   0.68649   0.63808   0.00000  Uiso   1.00
C97    C     0.45298   0.59134   0.67538   0.00000  Uiso   1.00
C98    C     0.47916   0.89217   0.56440   0.00000  Uiso   1.00
C99    C     0.47629   0.91883   0.46907   0.00000  Uiso   1.00
C100   C     0.42175   0.95221   0.44646   0.00000  Uiso   1.00
C101   C     0.34378   0.01088   0.37289   0.00000  Uiso   1.00
C102   C     0.55581   0.88417   0.70310   0.00000  Uiso   1.00
C103   C     0.61737   0.90412   0.72438   0.00000  Uiso   1.00
C104   C     0.62736   0.93079   0.81855   0.00000  Uiso   1.00
C105   C     0.66838   0.97703   0.96034   0.00000  Uiso   1.00
C106   C     0.44253   0.86567   0.73426   0.00000  Uiso   1.00
C107   C     0.45513   0.79959   0.70609   0.00000  Uiso   1.00
C108   C     0.42226   0.74966   0.74368   0.00000  Uiso   1.00
C109   C     0.44102   0.69296   0.70847   0.00000  Uiso   1.00
C110   C     0.42934   0.89863   0.63466   0.00000  Uiso   1.00
C111   C     0.37479   0.93199   0.61219   0.00000  Uiso   1.00
C112   C     0.37183   0.95869   0.51685   0.00000  Uiso   1.00
C113   C     0.50598   0.89064   0.77337   0.00000  Uiso   1.00
C114   C     0.51587   0.91728   0.86751   0.00000  Uiso   1.00
C115   C     0.57744   0.93726   0.88894   0.00000  Uiso   1.00
H116   H     0.57306   0.84874   0.55019   0.00000  Uiso   1.00
H117   H     0.56232   0.73151   0.54617   0.00000  Uiso   1.00
H118   H     0.51486   0.91382   0.41471   0.00000  Uiso   1.00
H119   H     0.65592   0.89912   0.66999   0.00000  Uiso   1.00
H120   H     0.52843   0.60439   0.57268   0.00000  Uiso   1.00
H121   H     0.42836   0.98882   0.29550   0.00000  Uiso   1.00
H122   H     0.72581   0.95781   0.83380   0.00000  Uiso   1.00
H123   H     0.40373   0.87070   0.78896   0.00000  Uiso   1.00
H124   H     0.38370   0.75467   0.79805   0.00000  Uiso   1.00
H125   H     0.33624   0.93699   0.66658   0.00000  Uiso   1.00
H126   H     0.47730   0.92228   0.92187   0.00000  Uiso   1.00
H127   H     0.38345   0.62319   0.77711   0.00000  Uiso   1.00
H128   H     0.28339   0.00763   0.49992   0.00000  Uiso   1.00
H129   H     0.58084   0.97661   0.03824   0.00000  Uiso   1.00
O130   O     0.44581   0.53707   0.67654   0.00000  Uiso   1.00
O131   O     0.31453   0.04144   0.31289   0.00000  Uiso   1.00
O132   O     0.70478   0.00075   0.01914   0.00000  Uiso   1.00
N133   N     0.49707   0.62474   0.61956   0.00000  Uiso   1.00
N134   N     0.40350   0.98415   0.36040   0.00000  Uiso   1.00
N135   N     0.68159   0.95517   0.86367   0.00000  Uiso   1.00
N136   N     0.41906   0.63485   0.72957   0.00000  Uiso   1.00
N137   N     0.32549   0.99427   0.47041   0.00000  Uiso   1.00
N138   N     0.60358   0.96529   0.97367   0.00000  Uiso   1.00
C139   C     0.53427   0.35377   0.10490   0.00000  Uiso   1.00
C140   C     0.50496   0.29312   0.13583   0.00000  Uiso   1.00
C141   C     0.52376   0.23649   0.10056   0.00000  Uiso   1.00
C142   C     0.49094   0.18649   0.13808   0.00000  Uiso   1.00
C143   C     0.45298   0.09134   0.17538   0.00000  Uiso   1.00
C144   C     0.47916   0.39217   0.06440   0.00000  Uiso   1.00
C145   C     0.47629   0.41883   0.96907   0.00000  Uiso   1.00
C146   C     0.42175   0.45221   0.94646   0.00000  Uiso   1.00
C147   C     0.34378   0.51088   0.87289   0.00000  Uiso   1.00
C148   C     0.55581   0.38417   0.20310   0.00000  Uiso   1.00
C149   C     0.61737   0.40412   0.22438   0.00000  Uiso   1.00
C150   C     0.62736   0.43079   0.31855   0.00000  Uiso   1.00
C151   C     0.66838   0.47703   0.46034   0.00000  Uiso   1.00
C152   C     0.44253   0.36567   0.23426   0.00000  Uiso   1.00
C153   C     0.45513   0.29959   0.20609   0.00000  Uiso   1.00
C154   C     0.42226   0.24966   0.24368   0.00000  Uiso   1.00
C155   C     0.44102   0.19296   0.20847   0.00000  Uiso   1.00
C156   C     0.42934   0.39863   0.13466   0.00000  Uiso   1.00
C157   C     0.37479   0.43199   0.11219   0.00000  Uiso   1.00
C158   C     0.37183   0.45869   0.01685   0.00000  Uiso   1.00
C159   C     0.50598   0.39064   0.27337   0.00000  Uiso   1.00
C160   C     0.51587   0.41728   0.36751   0.00000  Uiso   1.00
C161   C     0.57744   0.43726   0.38894   0.00000  Uiso   1.00
H162   H     0.57306   0.34874   0.05019   0.00000  Uiso   1.00
H163   H     0.56232   0.23151   0.04617   0.00000  Uiso   1.00
H164   H     0.51486   0.41382   0.91471   0.00000  Uiso   1.00
H165   H     0.65592   0.39912   0.16999   0.00000  Uiso   1.00
H166   H     0.52843   0.10439   0.07268   0.00000  Uiso   1.00
H167   H     0.42836   0.48882   0.79550   0.00000  Uiso   1.00
H168   H     0.72581   0.45781   0.33380   0.00000  Uiso   1.00
H169   H     0.40373   0.37070   0.28896   0.00000  Uiso   1.00
H170   H     0.38370   0.25467   0.29805   0.00000  Uiso   1.00
H171   H     0.33624   0.43699   0.16658   0.00000  Uiso   1.00
H172   H     0.47730   0.42228   0.42187   0.00000  Uiso   1.00
H173   H     0.38345   0.12319   0.27711   0.00000  Uiso   1.00
H174   H     0.28339   0.50763   0.99992   0.00000  Uiso   1.00
H175   H     0.58084   0.47661   0.53824   0.00000  Uiso   1.00
O176   O     0.44581   0.03707   0.17654   0.00000  Uiso   1.00
O177   O     0.31453   0.54144   0.81289   0.00000  Uiso   1.00
O178   O     0.70478   0.50075   0.51914   0.00000  Uiso   1.00
N179   N     0.49707   0.12474   0.11956   0.00000  Uiso   1.00
N180   N     0.40350   0.48415   0.86040   0.00000  Uiso   1.00
N181   N     0.68159   0.45517   0.36367   0.00000  Uiso   1.00
N182   N     0.41906   0.13485   0.22957   0.00000  Uiso   1.00
N183   N     0.32549   0.49427   0.97041   0.00000  Uiso   1.00
N184   N     0.60358   0.46529   0.47367   0.00000  Uiso   1.00
C185   C     0.96573   0.35377   0.60490   0.00000  Uiso   1.00
C186   C     0.99504   0.29312   0.63583   0.00000  Uiso   1.00
C187   C     0.97624   0.23649   0.60056   0.00000  Uiso   1.00
C188   C     0.00906   0.18649   0.63808   0.00000  Uiso   1.00
C189   C     0.04702   0.09134   0.67538   0.00000  Uiso   1.00
C190   C     0.02084   0.39217   0.56440   0.00000  Uiso   1.00
C191   C     0.02371   0.41883   0.46907   0.00000  Uiso   1.00
C192   C     0.07825   0.45221   0.44646   0.00000  Uiso   1.00
C193   C     0.15622   0.51088   0.37289   0.00000  Uiso   1.00
C194   C     0.94419   0.38417   0.70310   0.00000  Uiso   1.00
C195   C     0.88263   0.40412   0.72438   0.00000  Uiso   1.00
C196   C     0.87264   0.43079   0.81855   0.00000  Uiso   1.00
C197   C     0.83162   0.47703   0.96034   0.00000  Uiso   1.00
C198   C     0.05747   0.36567   0.73426   0.00000  Uiso   1.00
C199   C     0.04487   0.29959   0.70609   0.00000  Uiso   1.00
C200   C     0.07774   0.24966   0.74368   0.00000  Uiso   1.00
C201   C     0.05898   0.19296   0.70847   0.00000  Uiso   1.00
C202   C     0.07066   0.39863   0.63466   0.00000  Uiso   1.00
C203   C     0.12521   0.43199   0.61219   0.00000  Uiso   1.00
C204   C     0.12817   0.45869   0.51685   0.00000  Uiso   1.00
C205   C     0.99402   0.39064   0.77337   0.00000  Uiso   1.00
C206   C     0.98413   0.41728   0.86751   0.00000  Uiso   1.00
C207   C     0.92256   0.43726   0.88894   0.00000  Uiso   1.00
H208   H     0.92694   0.34874   0.55019   0.00000  Uiso   1.00
H209   H     0.93768   0.23151   0.54617   0.00000  Uiso   1.00
H210   H     0.98514   0.41382   0.41471   0.00000  Uiso   1.00
H211   H     0.84408   0.39912   0.66999   0.00000  Uiso   1.00
H212   H     0.97157   0.10439   0.57268   0.00000  Uiso   1.00
H213   H     0.07164   0.48882   0.29550   0.00000  Uiso   1.00
H214   H     0.77419   0.45781   0.83380   0.00000  Uiso   1.00
H215   H     0.09627   0.37070   0.78896   0.00000  Uiso   1.00
H216   H     0.11630   0.25467   0.79805   0.00000  Uiso   1.00
H217   H     0.16376   0.43699   0.66658   0.00000  Uiso   1.00
H218   H     0.02270   0.42228   0.92187   0.00000  Uiso   1.00
H219   H     0.11655   0.12319   0.77711   0.00000  Uiso   1.00
H220   H     0.21661   0.50763   0.49992   0.00000  Uiso   1.00
H221   H     0.91916   0.47661   0.03824   0.00000  Uiso   1.00
O222   O     0.05419   0.03707   0.67654   0.00000  Uiso   1.00
O223   O     0.18547   0.54144   0.31289   0.00000  Uiso   1.00
O224   O     0.79522   0.50075   0.01914   0.00000  Uiso   1.00
N225   N     0.00293   0.12474   0.61956   0.00000  Uiso   1.00
N226   N     0.09650   0.48415   0.36040   0.00000  Uiso   1.00
N227   N     0.81841   0.45517   0.86367   0.00000  Uiso   1.00
N228   N     0.08094   0.13485   0.72957   0.00000  Uiso   1.00
N229   N     0.17451   0.49427   0.47041   0.00000  Uiso   1.00
N230   N     0.89642   0.46529   0.97367   0.00000  Uiso   1.00
C231   C     0.96573   0.85377   0.10490   0.00000  Uiso   1.00
C232   C     0.99504   0.79312   0.13583   0.00000  Uiso   1.00
C233   C     0.97624   0.73649   0.10056   0.00000  Uiso   1.00
C234   C     0.00906   0.68649   0.13808   0.00000  Uiso   1.00
C235   C     0.04702   0.59134   0.17538   0.00000  Uiso   1.00
C236   C     0.02084   0.89217   0.06440   0.00000  Uiso   1.00
C237   C     0.02371   0.91883   0.96907   0.00000  Uiso   1.00
C238   C     0.07825   0.95221   0.94646   0.00000  Uiso   1.00
C239   C     0.15622   0.01088   0.87289   0.00000  Uiso   1.00
C240   C     0.94419   0.88417   0.20310   0.00000  Uiso   1.00
C241   C     0.88263   0.90412   0.22438   0.00000  Uiso   1.00
C242   C     0.87264   0.93079   0.31855   0.00000  Uiso   1.00
C243   C     0.83162   0.97703   0.46034   0.00000  Uiso   1.00
C244   C     0.05747   0.86567   0.23426   0.00000  Uiso   1.00
C245   C     0.04487   0.79959   0.20609   0.00000  Uiso   1.00
C246   C     0.07774   0.74966   0.24368   0.00000  Uiso   1.00
C247   C     0.05898   0.69296   0.20847   0.00000  Uiso   1.00
C248   C     0.07066   0.89863   0.13466   0.00000  Uiso   1.00
C249   C     0.12521   0.93199   0.11219   0.00000  Uiso   1.00
C250   C     0.12817   0.95869   0.01685   0.00000  Uiso   1.00
C251   C     0.99402   0.89064   0.27337   0.00000  Uiso   1.00
C252   C     0.98413   0.91728   0.36751   0.00000  Uiso   1.00
C253   C     0.92256   0.93726   0.38894   0.00000  Uiso   1.00
H254   H     0.92694   0.84874   0.05019   0.00000  Uiso   1.00
H255   H     0.93768   0.73151   0.04617   0.00000  Uiso   1.00
H256   H     0.98514   0.91382   0.91471   0.00000  Uiso   1.00
H257   H     0.84408   0.89912   0.16999   0.00000  Uiso   1.00
H258   H     0.97157   0.60439   0.07268   0.00000  Uiso   1.00
H259   H     0.07164   0.98882   0.79550   0.00000  Uiso   1.00
H260   H     0.77419   0.95781   0.33380   0.00000  Uiso   1.00
H261   H     0.09627   0.87070   0.28896   0.00000  Uiso   1.00
H262   H     0.11630   0.75467   0.29805   0.00000  Uiso   1.00
H263   H     0.16376   0.93699   0.16658   0.00000  Uiso   1.00
H264   H     0.02270   0.92228   0.42187   0.00000  Uiso   1.00
H265   H     0.11655   0.62319   0.27711   0.00000  Uiso   1.00
H266   H     0.21661   0.00763   0.99992   0.00000  Uiso   1.00
H267   H     0.91916   0.97661   0.53824   0.00000  Uiso   1.00
O268   O     0.05419   0.53707   0.17654   0.00000  Uiso   1.00
O269   O     0.18547   0.04144   0.81289   0.00000  Uiso   1.00
O270   O     0.79522   0.00075   0.51914   0.00000  Uiso   1.00
N271   N     0.00293   0.62474   0.11956   0.00000  Uiso   1.00
N272   N     0.09650   0.98415   0.86040   0.00000  Uiso   1.00
N273   N     0.81841   0.95517   0.36367   0.00000  Uiso   1.00
N274   N     0.08094   0.63485   0.22957   0.00000  Uiso   1.00
N275   N     0.17451   0.99427   0.97041   0.00000  Uiso   1.00
N276   N     0.89642   0.96529   0.47367   0.00000  Uiso   1.00
C277   C     0.03427   0.64623   0.60490   0.00000  Uiso   1.00
C278   C     0.00496   0.70688   0.63583   0.00000  Uiso   1.00
C279   C     0.02376   0.76351   0.60056   0.00000  Uiso   1.00
C280   C     0.99094   0.81351   0.63808   0.00000  Uiso   1.00
C281   C     0.95298   0.90866   0.67538   0.00000  Uiso   1.00
C282   C     0.97916   0.60783   0.56440   0.00000  Uiso   1.00
C283   C     0.97629   0.58117   0.46907   0.00000  Uiso   1.00
C284   C     0.92175   0.54779   0.44646   0.00000  Uiso   1.00
C285   C     0.84378   0.48912   0.37289   0.00000  Uiso   1.00
C286   C     0.05581   0.61583   0.70310   0.00000  Uiso   1.00
C287   C     0.11737   0.59588   0.72438   0.00000  Uiso   1.00
C288   C     0.12736   0.56921   0.81855   0.00000  Uiso   1.00
C289   C     0.16838   0.52297   0.96034   0.00000  Uiso   1.00
C290   C     0.94253   0.63433   0.73426   0.00000  Uiso   1.00
C291   C     0.95513   0.70041   0.70609   0.00000  Uiso   1.00
C292   C     0.92226   0.75034   0.74368   0.00000  Uiso   1.00
C293   C     0.94102   0.80704   0.70847   0.00000  Uiso   1.00
C294   C     0.92934   0.60137   0.63466   0.00000  Uiso   1.00
C295   C     0.87479   0.56801   0.61219   0.00000  Uiso   1.00
C296   C     0.87183   0.54131   0.51685   0.00000  Uiso   1.00
C297   C     0.00598   0.60936   0.77337   0.00000  Uiso   1.00
C298   C     0.01587   0.58272   0.86751   0.00000  Uiso   1.00
C299   C     0.07744   0.56274   0.88894   0.00000  Uiso   1.00
H300   H     0.07306   0.65126   0.55019   0.00000  Uiso   1.00
H301   H     0.06232   0.76849   0.54617   0.00000  Uiso   1.00
H302   H     0.01486   0.58618   0.41471   0.00000  Uiso   1.00
H303   H     0.15592   0.60088   0.66999   0.00000  Uiso   1.00
H304   H     0.02843   0.89561   0.57268   0.00000  Uiso   1.00
H305   H     0.92836   0.51118   0.29550   0.00000  Uiso   1.00
H306   H     0.22581   0.54219   0.83380   0.00000  Uiso   1.00
H307   H     0.90373   0.62930   0.78896   0.00000  Uiso   1.00
H308   H     0.88370   0.74533   0.79805   0.00000  Uiso   1.00
H309   H     0.83624   0.56301   0.66658   0.00000  Uiso   1.00
H310   H     0.97730   0.57772   0.92187   0.00000  Uiso   1.00
H311   H     0.88345   0.87681   0.77711   0.00000  Uiso   1.00
H312   H     0.78339   0.49237   0.49992   0.00000  Uiso   1.00
H313   H     0.08084   0.52339   0.03824   0.00000  Uiso   1.00
O314   O     0.94581   0.96293   0.67654   0.00000  Uiso   1.00
O315   O     0.81453   0.45856   0.31289   0.00000  Uiso   1.00
O316   O     0.20478   0.49925   0.01914   0.00000  Uiso   1.00
N317   N     0.99707   0.87526   0.61956   0.00000  Uiso   1.00
N318   N     0.90350   0.51585   0.36040   0.00000  Uiso   1.00
N319   N     0.18159   0.54483   0.86367   0.00000  Uiso   1.00
N320   N     0.91906   0.86515   0.72957   0.00000  Uiso   1.00
N321   N     0.82549   0.50573   0.47041   0.00000  Uiso   1.00
N322   N     0.10358   0.53471   0.97367   0.00000  Uiso   1.00
C323   C     0.03427   0.14623   0.10490   0.00000  Uiso   1.00
C324   C     0.00496   0.20688   0.13583   0.00000  Uiso   1.00
C325   C     0.02376   0.26351   0.10056   0.00000  Uiso   1.00
C326   C     0.99094   0.31351   0.13808   0.00000  Uiso   1.00
C327   C     0.95298   0.40866   0.17538   0.00000  Uiso   1.00
C328   C     0.97916   0.10783   0.06440   0.00000  Uiso   1.00
C329   C     0.97629   0.08117   0.96907   0.00000  Uiso   1.00
C330   C     0.92175   0.04779   0.94646   0.00000  Uiso   1.00
C331   C     0.84378   0.98912   0.87289   0.00000  Uiso   1.00
C332   C     0.05581   0.11583   0.20310   0.00000  Uiso   1.00
C333   C     0.11737   0.09588   0.22438   0.00000  Uiso   1.00
C334   C     0.12736   0.06921   0.31855   0.00000  Uiso   1.00
C335   C     0.16838   0.02297   0.46034   0.00000  Uiso   1.00
C336   C     0.94253   0.13433   0.23426   0.00000  Uiso   1.00
C337   C     0.95513   0.20041   0.20609   0.00000  Uiso   1.00
C338   C     0.92226   0.25034   0.24368   0.00000  Uiso   1.00
C339   C     0.94102   0.30704   0.20847   0.00000  Uiso   1.00
C340   C     0.92934   0.10137   0.13466   0.00000  Uiso   1.00
C341   C     0.87479   0.06801   0.11219   0.00000  Uiso   1.00
C342   C     0.87183   0.04131   0.01685   0.00000  Uiso   1.00
C343   C     0.00598   0.10936   0.27337   0.00000  Uiso   1.00
C344   C     0.01587   0.08272   0.36751   0.00000  Uiso   1.00
C345   C     0.07744   0.06274   0.38894   0.00000  Uiso   1.00
H346   H     0.07306   0.15126   0.05019   0.00000  Uiso   1.00
H347   H     0.06232   0.26849   0.04617   0.00000  Uiso   1.00
H348   H     0.01486   0.08618   0.91471   0.00000  Uiso   1.00
H349   H     0.15592   0.10088   0.16999   0.00000  Uiso   1.00
H350   H     0.02843   0.39561   0.07268   0.00000  Uiso   1.00
H351   H     0.92836   0.01118   0.79550   0.00000  Uiso   1.00
H352   H     0.22581   0.04219   0.33380   0.00000  Uiso   1.00
H353   H     0.90373   0.12930   0.28896   0.00000  Uiso   1.00
H354   H     0.88370   0.24533   0.29805   0.00000  Uiso   1.00
H355   H     0.83624   0.06301   0.16658   0.00000  Uiso   1.00
H356   H     0.97730   0.07772   0.42187   0.00000  Uiso   1.00
H357   H     0.88345   0.37681   0.27711   0.00000  Uiso   1.00
H358   H     0.78339   0.99237   0.99992   0.00000  Uiso   1.00
H359   H     0.08084   0.02339   0.53824   0.00000  Uiso   1.00
O360   O     0.94581   0.46293   0.17654   0.00000  Uiso   1.00
O361   O     0.81453   0.95856   0.81289   0.00000  Uiso   1.00
O362   O     0.20478   0.99925   0.51914   0.00000  Uiso   1.00
N363   N     0.99707   0.37526   0.11956   0.00000  Uiso   1.00
N364   N     0.90350   0.01585   0.86040   0.00000  Uiso   1.00
N365   N     0.18159   0.04483   0.36367   0.00000  Uiso   1.00
N366   N     0.91906   0.36515   0.22957   0.00000  Uiso   1.00
N367   N     0.82549   0.00573   0.97041   0.00000  Uiso   1.00
N368   N     0.10358   0.03471   0.47367   0.00000  Uiso   1.00
