data_job_03835
_audit_creation_date              2018-12-19
_audit_creation_method            'Materials Studio'
_symmetry_space_group_name_H-M    'P1'
_symmetry_Int_Tables_number       1
_symmetry_cell_setting            triclinic
loop_
_symmetry_equiv_pos_as_xyz
  x,y,z
_cell_length_a                    12.5920
_cell_length_b                    12.5920
_cell_length_c                    78.4514
_cell_angle_alpha                 90.0000
_cell_angle_beta                  90.0000
_cell_angle_gamma                 120.0000
loop_
_atom_site_label
_atom_site_type_symbol
_atom_site_fract_x
_atom_site_fract_y
_atom_site_fract_z
_atom_site_U_iso_or_equiv
_atom_site_adp_type
_atom_site_occupancy
C1     C     0.43160   0.58250   0.89089   0.00000  Uiso   1.00
C2     C     0.45232   0.67149   0.87639   0.00000  Uiso   1.00
C3     C     0.52246   0.79834   0.87730   0.00000  Uiso   1.00
C4     C     0.52999   0.86351   0.86264   0.00000  Uiso   1.00
C5     C     0.57130   0.01076   0.84241   0.00000  Uiso   1.00
C6     C     0.29302   0.50526   0.89315   0.00000  Uiso   1.00
C7     C     0.22924   0.49233   0.90815   0.00000  Uiso   1.00
C8     C     0.10268   0.41755   0.90760   0.00000  Uiso   1.00
C9     C     0.89669   0.30665   0.91340   0.00000  Uiso   1.00
C10    C     0.47315   0.49548   0.88417   0.00000  Uiso   1.00
C11    C     0.56081   0.47430   0.89163   0.00000  Uiso   1.00
C12    C     0.58588   0.39126   0.88353   0.00000  Uiso   1.00
C13    C     0.65958   0.26518   0.87539   0.00000  Uiso   1.00
C14    C     0.32025   0.47265   0.86323   0.00000  Uiso   1.00
C15    C     0.39183   0.61182   0.86137   0.00000  Uiso   1.00
C16    C     0.39926   0.67681   0.84670   0.00000  Uiso   1.00
C17    C     0.46941   0.80374   0.84759   0.00000  Uiso   1.00
C18    C     0.23254   0.44559   0.87813   0.00000  Uiso   1.00
C19    C     0.10604   0.37080   0.87755   0.00000  Uiso   1.00
C20    C     0.04208   0.35777   0.89255   0.00000  Uiso   1.00
C21    C     0.41267   0.43581   0.86915   0.00000  Uiso   1.00
C22    C     0.43761   0.35277   0.86103   0.00000  Uiso   1.00
C23    C     0.52529   0.33148   0.86848   0.00000  Uiso   1.00
H24    H     0.47869   0.62895   0.90258   0.00000  Uiso   1.00
H25    H     0.56925   0.84449   0.88893   0.00000  Uiso   1.00
H26    H     0.27607   0.53851   0.91978   0.00000  Uiso   1.00
H27    H     0.60759   0.52049   0.90326   0.00000  Uiso   1.00
H28    H     0.64294   0.05714   0.86716   0.00000  Uiso   1.00
H29    H     0.02477   0.41194   0.93221   0.00000  Uiso   1.00
H30    H     0.72384   0.37394   0.89738   0.00000  Uiso   1.00
H31    H     0.27315   0.42619   0.85154   0.00000  Uiso   1.00
H32    H     0.35244   0.63061   0.83508   0.00000  Uiso   1.00
H33    H     0.05926   0.32463   0.86593   0.00000  Uiso   1.00
H34    H     0.39079   0.30662   0.84941   0.00000  Uiso   1.00
H35    H     0.46697   0.88355   0.82345   0.00000  Uiso   1.00
H36    H     0.84880   0.23834   0.88850   0.00000  Uiso   1.00
H37    H     0.54787   0.20035   0.85368   0.00000  Uiso   1.00
O38    O     0.61078   0.10847   0.83540   0.00000  Uiso   1.00
O39    O     0.79978   0.26198   0.92075   0.00000  Uiso   1.00
O40    O     0.71695   0.21213   0.87505   0.00000  Uiso   1.00
N41    N     0.59066   0.98823   0.85913   0.00000  Uiso   1.00
N42    N     0.01271   0.38502   0.91995   0.00000  Uiso   1.00
N43    N     0.66626   0.34947   0.88739   0.00000  Uiso   1.00
N44    N     0.49598   0.89482   0.83561   0.00000  Uiso   1.00
N45    N     0.91802   0.29161   0.89643   0.00000  Uiso   1.00
N46    N     0.57157   0.25606   0.86387   0.00000  Uiso   1.00
C47    C     0.41750   0.84910   0.55756   0.00000  Uiso   1.00
C48    C     0.32851   0.78082   0.54305   0.00000  Uiso   1.00
C49    C     0.20166   0.72412   0.54396   0.00000  Uiso   1.00
C50    C     0.13649   0.66648   0.52930   0.00000  Uiso   1.00
C51    C     0.98924   0.56054   0.50907   0.00000  Uiso   1.00
C52    C     0.49474   0.78776   0.55982   0.00000  Uiso   1.00
C53    C     0.50767   0.73690   0.57482   0.00000  Uiso   1.00
C54    C     0.58245   0.68513   0.57427   0.00000  Uiso   1.00
C55    C     0.69335   0.59004   0.58006   0.00000  Uiso   1.00
C56    C     0.50452   0.97767   0.55084   0.00000  Uiso   1.00
C57    C     0.52570   0.08650   0.55830   0.00000  Uiso   1.00
C58    C     0.60874   0.19462   0.55019   0.00000  Uiso   1.00
C59    C     0.73482   0.39440   0.54206   0.00000  Uiso   1.00
C60    C     0.52735   0.84760   0.52990   0.00000  Uiso   1.00
C61    C     0.38818   0.78001   0.52803   0.00000  Uiso   1.00
C62    C     0.32319   0.72245   0.51337   0.00000  Uiso   1.00
C63    C     0.19626   0.66567   0.51425   0.00000  Uiso   1.00
C64    C     0.55441   0.78694   0.54479   0.00000  Uiso   1.00
C65    C     0.62920   0.73524   0.54422   0.00000  Uiso   1.00
C66    C     0.64223   0.68431   0.55922   0.00000  Uiso   1.00
C67    C     0.56419   0.97686   0.53582   0.00000  Uiso   1.00
C68    C     0.64723   0.08483   0.52770   0.00000  Uiso   1.00
C69    C     0.66852   0.19380   0.53515   0.00000  Uiso   1.00
H70    H     0.37105   0.84973   0.56925   0.00000  Uiso   1.00
H71    H     0.15551   0.72476   0.55559   0.00000  Uiso   1.00
H72    H     0.46149   0.73756   0.58644   0.00000  Uiso   1.00
H73    H     0.47951   0.08710   0.56993   0.00000  Uiso   1.00
H74    H     0.94286   0.58580   0.53383   0.00000  Uiso   1.00
H75    H     0.58806   0.61283   0.59888   0.00000  Uiso   1.00
H76    H     0.62606   0.34990   0.56405   0.00000  Uiso   1.00
H77    H     0.57381   0.84696   0.51820   0.00000  Uiso   1.00
H78    H     0.36939   0.72183   0.50174   0.00000  Uiso   1.00
H79    H     0.67537   0.73463   0.53259   0.00000  Uiso   1.00
H80    H     0.69338   0.08417   0.51608   0.00000  Uiso   1.00
H81    H     0.11645   0.58342   0.49012   0.00000  Uiso   1.00
H82    H     0.76166   0.61045   0.55517   0.00000  Uiso   1.00
H83    H     0.79965   0.34752   0.52034   0.00000  Uiso   1.00
O84    O     0.89153   0.50231   0.50207   0.00000  Uiso   1.00
O85    O     0.73802   0.53780   0.58741   0.00000  Uiso   1.00
O86    O     0.78787   0.50481   0.54172   0.00000  Uiso   1.00
N87    N     0.01177   0.60243   0.52580   0.00000  Uiso   1.00
N88    N     0.61498   0.62769   0.58662   0.00000  Uiso   1.00
N89    N     0.65053   0.31679   0.55406   0.00000  Uiso   1.00
N90    N     0.10518   0.60115   0.50228   0.00000  Uiso   1.00
N91    N     0.70839   0.62641   0.56310   0.00000  Uiso   1.00
N92    N     0.74394   0.31551   0.53054   0.00000  Uiso   1.00
C93    C     0.15090   0.56840   0.22422   0.00000  Uiso   1.00
C94    C     0.21918   0.54768   0.20972   0.00000  Uiso   1.00
C95    C     0.27588   0.47754   0.21063   0.00000  Uiso   1.00
C96    C     0.33352   0.47001   0.19597   0.00000  Uiso   1.00
C97    C     0.43946   0.42870   0.17574   0.00000  Uiso   1.00
C98    C     0.21224   0.70698   0.22648   0.00000  Uiso   1.00
C99    C     0.26310   0.77076   0.24149   0.00000  Uiso   1.00
C100   C     0.31487   0.89732   0.24093   0.00000  Uiso   1.00
C101   C     0.40996   0.10331   0.24673   0.00000  Uiso   1.00
C102   C     0.02233   0.52685   0.21751   0.00000  Uiso   1.00
C103   C     0.91350   0.43919   0.22497   0.00000  Uiso   1.00
C104   C     0.80538   0.41412   0.21686   0.00000  Uiso   1.00
C105   C     0.60560   0.34042   0.20872   0.00000  Uiso   1.00
C106   C     0.15240   0.67975   0.19656   0.00000  Uiso   1.00
C107   C     0.21999   0.60817   0.19470   0.00000  Uiso   1.00
C108   C     0.27755   0.60074   0.18003   0.00000  Uiso   1.00
C109   C     0.33433   0.53059   0.18092   0.00000  Uiso   1.00
C110   C     0.21306   0.76746   0.21146   0.00000  Uiso   1.00
C111   C     0.26476   0.89396   0.21089   0.00000  Uiso   1.00
C112   C     0.31569   0.95792   0.22588   0.00000  Uiso   1.00
C113   C     0.02314   0.58733   0.20249   0.00000  Uiso   1.00
C114   C     0.91517   0.56239   0.19437   0.00000  Uiso   1.00
C115   C     0.80620   0.47471   0.20181   0.00000  Uiso   1.00
H116   H     0.15027   0.52131   0.23592   0.00000  Uiso   1.00
H117   H     0.27524   0.43075   0.22226   0.00000  Uiso   1.00
H118   H     0.26244   0.72393   0.25311   0.00000  Uiso   1.00
H119   H     0.91290   0.39241   0.23659   0.00000  Uiso   1.00
H120   H     0.41420   0.35706   0.20049   0.00000  Uiso   1.00
H121   H     0.38717   0.97523   0.26554   0.00000  Uiso   1.00
H122   H     0.65010   0.27616   0.23072   0.00000  Uiso   1.00
H123   H     0.15304   0.72685   0.18487   0.00000  Uiso   1.00
H124   H     0.27817   0.64756   0.16841   0.00000  Uiso   1.00
H125   H     0.26537   0.94074   0.19926   0.00000  Uiso   1.00
H126   H     0.91583   0.60921   0.18274   0.00000  Uiso   1.00
H127   H     0.41658   0.53303   0.15679   0.00000  Uiso   1.00
H128   H     0.38955   0.15120   0.22184   0.00000  Uiso   1.00
H129   H     0.65248   0.45213   0.18701   0.00000  Uiso   1.00
O130   O     0.49769   0.38922   0.16874   0.00000  Uiso   1.00
O131   O     0.46220   0.20022   0.25408   0.00000  Uiso   1.00
O132   O     0.49519   0.28305   0.20838   0.00000  Uiso   1.00
N133   N     0.39757   0.40934   0.19247   0.00000  Uiso   1.00
N134   N     0.37231   0.98729   0.25328   0.00000  Uiso   1.00
N135   N     0.68321   0.33374   0.22072   0.00000  Uiso   1.00
N136   N     0.39885   0.50402   0.16895   0.00000  Uiso   1.00
N137   N     0.37359   0.08198   0.22976   0.00000  Uiso   1.00
N138   N     0.68449   0.42843   0.19721   0.00000  Uiso   1.00
C139   C     0.56840   0.41750   0.39089   0.00000  Uiso   1.00
C140   C     0.54768   0.32851   0.37639   0.00000  Uiso   1.00
C141   C     0.47754   0.20166   0.37730   0.00000  Uiso   1.00
C142   C     0.47001   0.13649   0.36264   0.00000  Uiso   1.00
C143   C     0.42870   0.98924   0.34241   0.00000  Uiso   1.00
C144   C     0.70698   0.49474   0.39315   0.00000  Uiso   1.00
C145   C     0.77076   0.50767   0.40815   0.00000  Uiso   1.00
C146   C     0.89732   0.58245   0.40760   0.00000  Uiso   1.00
C147   C     0.10331   0.69335   0.41340   0.00000  Uiso   1.00
C148   C     0.52685   0.50452   0.38417   0.00000  Uiso   1.00
C149   C     0.43919   0.52570   0.39163   0.00000  Uiso   1.00
C150   C     0.41412   0.60874   0.38353   0.00000  Uiso   1.00
C151   C     0.34042   0.73482   0.37539   0.00000  Uiso   1.00
C152   C     0.67975   0.52735   0.36323   0.00000  Uiso   1.00
C153   C     0.60817   0.38818   0.36137   0.00000  Uiso   1.00
C154   C     0.60074   0.32319   0.34670   0.00000  Uiso   1.00
C155   C     0.53059   0.19626   0.34759   0.00000  Uiso   1.00
C156   C     0.76746   0.55441   0.37813   0.00000  Uiso   1.00
C157   C     0.89396   0.62920   0.37755   0.00000  Uiso   1.00
C158   C     0.95792   0.64223   0.39255   0.00000  Uiso   1.00
C159   C     0.58733   0.56419   0.36915   0.00000  Uiso   1.00
C160   C     0.56239   0.64723   0.36103   0.00000  Uiso   1.00
C161   C     0.47471   0.66852   0.36848   0.00000  Uiso   1.00
H162   H     0.52131   0.37105   0.40258   0.00000  Uiso   1.00
H163   H     0.43075   0.15551   0.38893   0.00000  Uiso   1.00
H164   H     0.72393   0.46149   0.41978   0.00000  Uiso   1.00
H165   H     0.39241   0.47951   0.40326   0.00000  Uiso   1.00
H166   H     0.35706   0.94286   0.36716   0.00000  Uiso   1.00
H167   H     0.97523   0.58806   0.43221   0.00000  Uiso   1.00
H168   H     0.27616   0.62606   0.39738   0.00000  Uiso   1.00
H169   H     0.72685   0.57381   0.35154   0.00000  Uiso   1.00
H170   H     0.64756   0.36939   0.33508   0.00000  Uiso   1.00
H171   H     0.94074   0.67537   0.36593   0.00000  Uiso   1.00
H172   H     0.60921   0.69338   0.34941   0.00000  Uiso   1.00
H173   H     0.53303   0.11645   0.32345   0.00000  Uiso   1.00
H174   H     0.15120   0.76166   0.38850   0.00000  Uiso   1.00
H175   H     0.45213   0.79965   0.35368   0.00000  Uiso   1.00
O176   O     0.38922   0.89153   0.33540   0.00000  Uiso   1.00
O177   O     0.20022   0.73802   0.42075   0.00000  Uiso   1.00
O178   O     0.28305   0.78787   0.37505   0.00000  Uiso   1.00
N179   N     0.40934   0.01177   0.35913   0.00000  Uiso   1.00
N180   N     0.98729   0.61498   0.41995   0.00000  Uiso   1.00
N181   N     0.33374   0.65053   0.38739   0.00000  Uiso   1.00
N182   N     0.50402   0.10518   0.33561   0.00000  Uiso   1.00
N183   N     0.08198   0.70839   0.39643   0.00000  Uiso   1.00
N184   N     0.42843   0.74394   0.36387   0.00000  Uiso   1.00
C185   C     0.58250   0.15090   0.05756   0.00000  Uiso   1.00
C186   C     0.67149   0.21918   0.04305   0.00000  Uiso   1.00
C187   C     0.79834   0.27588   0.04396   0.00000  Uiso   1.00
C188   C     0.86351   0.33352   0.02930   0.00000  Uiso   1.00
C189   C     0.01076   0.43946   0.00907   0.00000  Uiso   1.00
C190   C     0.50526   0.21224   0.05982   0.00000  Uiso   1.00
C191   C     0.49233   0.26310   0.07482   0.00000  Uiso   1.00
C192   C     0.41755   0.31487   0.07427   0.00000  Uiso   1.00
C193   C     0.30665   0.40996   0.08006   0.00000  Uiso   1.00
C194   C     0.49548   0.02233   0.05084   0.00000  Uiso   1.00
C195   C     0.47430   0.91350   0.05830   0.00000  Uiso   1.00
C196   C     0.39126   0.80538   0.05019   0.00000  Uiso   1.00
C197   C     0.26518   0.60560   0.04206   0.00000  Uiso   1.00
C198   C     0.47265   0.15240   0.02990   0.00000  Uiso   1.00
C199   C     0.61182   0.21999   0.02803   0.00000  Uiso   1.00
C200   C     0.67681   0.27755   0.01337   0.00000  Uiso   1.00
C201   C     0.80374   0.33433   0.01425   0.00000  Uiso   1.00
C202   C     0.44559   0.21306   0.04479   0.00000  Uiso   1.00
C203   C     0.37080   0.26476   0.04422   0.00000  Uiso   1.00
C204   C     0.35777   0.31569   0.05922   0.00000  Uiso   1.00
C205   C     0.43581   0.02314   0.03582   0.00000  Uiso   1.00
C206   C     0.35277   0.91517   0.02770   0.00000  Uiso   1.00
C207   C     0.33148   0.80620   0.03515   0.00000  Uiso   1.00
H208   H     0.62895   0.15027   0.06925   0.00000  Uiso   1.00
H209   H     0.84449   0.27524   0.05559   0.00000  Uiso   1.00
H210   H     0.53851   0.26244   0.08644   0.00000  Uiso   1.00
H211   H     0.52049   0.91290   0.06993   0.00000  Uiso   1.00
H212   H     0.05714   0.41420   0.03383   0.00000  Uiso   1.00
H213   H     0.41194   0.38717   0.09888   0.00000  Uiso   1.00
H214   H     0.37394   0.65010   0.06405   0.00000  Uiso   1.00
H215   H     0.42619   0.15304   0.01820   0.00000  Uiso   1.00
H216   H     0.63061   0.27817   0.00174   0.00000  Uiso   1.00
H217   H     0.32463   0.26537   0.03259   0.00000  Uiso   1.00
H218   H     0.30662   0.91583   0.01608   0.00000  Uiso   1.00
H219   H     0.88355   0.41658   0.99012   0.00000  Uiso   1.00
H220   H     0.23834   0.38955   0.05517   0.00000  Uiso   1.00
H221   H     0.20035   0.65248   0.02034   0.00000  Uiso   1.00
O222   O     0.10847   0.49769   0.00207   0.00000  Uiso   1.00
O223   O     0.26198   0.46220   0.08741   0.00000  Uiso   1.00
O224   O     0.21213   0.49519   0.04172   0.00000  Uiso   1.00
N225   N     0.98823   0.39757   0.02580   0.00000  Uiso   1.00
N226   N     0.38502   0.37231   0.08662   0.00000  Uiso   1.00
N227   N     0.34947   0.68321   0.05406   0.00000  Uiso   1.00
N228   N     0.89482   0.39885   0.00228   0.00000  Uiso   1.00
N229   N     0.29161   0.37359   0.06310   0.00000  Uiso   1.00
N230   N     0.25606   0.68449   0.03054   0.00000  Uiso   1.00
C231   C     0.84910   0.43160   0.72422   0.00000  Uiso   1.00
C232   C     0.78082   0.45232   0.70972   0.00000  Uiso   1.00
C233   C     0.72412   0.52246   0.71063   0.00000  Uiso   1.00
C234   C     0.66648   0.52999   0.69597   0.00000  Uiso   1.00
C235   C     0.56054   0.57130   0.67574   0.00000  Uiso   1.00
C236   C     0.78776   0.29302   0.72648   0.00000  Uiso   1.00
C237   C     0.73690   0.22924   0.74149   0.00000  Uiso   1.00
C238   C     0.68513   0.10268   0.74093   0.00000  Uiso   1.00
C239   C     0.59004   0.89669   0.74673   0.00000  Uiso   1.00
C240   C     0.97767   0.47315   0.71751   0.00000  Uiso   1.00
C241   C     0.08650   0.56081   0.72497   0.00000  Uiso   1.00
C242   C     0.19462   0.58588   0.71686   0.00000  Uiso   1.00
C243   C     0.39440   0.65958   0.70872   0.00000  Uiso   1.00
C244   C     0.84760   0.32025   0.69656   0.00000  Uiso   1.00
C245   C     0.78001   0.39183   0.69470   0.00000  Uiso   1.00
C246   C     0.72245   0.39926   0.68003   0.00000  Uiso   1.00
C247   C     0.66567   0.46941   0.68092   0.00000  Uiso   1.00
C248   C     0.78694   0.23254   0.71146   0.00000  Uiso   1.00
C249   C     0.73524   0.10604   0.71089   0.00000  Uiso   1.00
C250   C     0.68431   0.04208   0.72588   0.00000  Uiso   1.00
C251   C     0.97686   0.41267   0.70249   0.00000  Uiso   1.00
C252   C     0.08483   0.43761   0.69437   0.00000  Uiso   1.00
C253   C     0.19380   0.52529   0.70181   0.00000  Uiso   1.00
H254   H     0.84973   0.47869   0.73592   0.00000  Uiso   1.00
H255   H     0.72476   0.56925   0.72226   0.00000  Uiso   1.00
H256   H     0.73756   0.27607   0.75311   0.00000  Uiso   1.00
H257   H     0.08710   0.60759   0.73659   0.00000  Uiso   1.00
H258   H     0.58580   0.64294   0.70049   0.00000  Uiso   1.00
H259   H     0.61283   0.02477   0.76554   0.00000  Uiso   1.00
H260   H     0.34990   0.72384   0.73072   0.00000  Uiso   1.00
H261   H     0.84696   0.27315   0.68487   0.00000  Uiso   1.00
H262   H     0.72183   0.35244   0.66841   0.00000  Uiso   1.00
H263   H     0.73463   0.05926   0.69926   0.00000  Uiso   1.00
H264   H     0.08417   0.39079   0.68274   0.00000  Uiso   1.00
H265   H     0.58342   0.46697   0.65679   0.00000  Uiso   1.00
H266   H     0.61045   0.84880   0.72184   0.00000  Uiso   1.00
H267   H     0.34752   0.54787   0.68701   0.00000  Uiso   1.00
O268   O     0.50231   0.61078   0.66874   0.00000  Uiso   1.00
O269   O     0.53780   0.79978   0.75408   0.00000  Uiso   1.00
O270   O     0.50481   0.71695   0.70838   0.00000  Uiso   1.00
N271   N     0.60243   0.59066   0.69247   0.00000  Uiso   1.00
N272   N     0.62769   0.01271   0.75328   0.00000  Uiso   1.00
N273   N     0.31679   0.66626   0.72072   0.00000  Uiso   1.00
N274   N     0.60115   0.49598   0.66895   0.00000  Uiso   1.00
N275   N     0.62641   0.91802   0.72976   0.00000  Uiso   1.00
N276   N     0.31551   0.57157   0.69721   0.00000  Uiso   1.00
C277   C     0.58250   0.43160   0.77578   0.00000  Uiso   1.00
C278   C     0.67149   0.45232   0.79028   0.00000  Uiso   1.00
C279   C     0.79834   0.52246   0.78937   0.00000  Uiso   1.00
C280   C     0.86351   0.52999   0.80403   0.00000  Uiso   1.00
C281   C     0.01076   0.57130   0.82426   0.00000  Uiso   1.00
C282   C     0.50526   0.29302   0.77352   0.00000  Uiso   1.00
C283   C     0.49233   0.22924   0.75851   0.00000  Uiso   1.00
C284   C     0.41755   0.10268   0.75907   0.00000  Uiso   1.00
C285   C     0.30665   0.89669   0.75327   0.00000  Uiso   1.00
C286   C     0.49548   0.47315   0.78249   0.00000  Uiso   1.00
C287   C     0.47430   0.56081   0.77503   0.00000  Uiso   1.00
C288   C     0.39126   0.58588   0.78314   0.00000  Uiso   1.00
C289   C     0.26518   0.65958   0.79128   0.00000  Uiso   1.00
C290   C     0.47265   0.32025   0.80344   0.00000  Uiso   1.00
C291   C     0.61182   0.39183   0.80530   0.00000  Uiso   1.00
C292   C     0.67681   0.39926   0.81997   0.00000  Uiso   1.00
C293   C     0.80374   0.46941   0.81908   0.00000  Uiso   1.00
C294   C     0.44559   0.23254   0.78854   0.00000  Uiso   1.00
C295   C     0.37080   0.10604   0.78911   0.00000  Uiso   1.00
C296   C     0.35777   0.04208   0.77412   0.00000  Uiso   1.00
C297   C     0.43581   0.41267   0.79751   0.00000  Uiso   1.00
C298   C     0.35277   0.43761   0.80563   0.00000  Uiso   1.00
C299   C     0.33148   0.52529   0.79819   0.00000  Uiso   1.00
H300   H     0.62895   0.47869   0.76408   0.00000  Uiso   1.00
H301   H     0.84449   0.56925   0.77774   0.00000  Uiso   1.00
H302   H     0.53851   0.27607   0.74689   0.00000  Uiso   1.00
H303   H     0.52049   0.60759   0.76341   0.00000  Uiso   1.00
H304   H     0.05714   0.64294   0.79951   0.00000  Uiso   1.00
H305   H     0.41194   0.02477   0.73446   0.00000  Uiso   1.00
H306   H     0.37394   0.72384   0.76928   0.00000  Uiso   1.00
H307   H     0.42619   0.27315   0.81513   0.00000  Uiso   1.00
H308   H     0.63061   0.35244   0.83159   0.00000  Uiso   1.00
H309   H     0.32463   0.05926   0.80074   0.00000  Uiso   1.00
H310   H     0.30662   0.39079   0.81726   0.00000  Uiso   1.00
H311   H     0.88355   0.46697   0.84321   0.00000  Uiso   1.00
H312   H     0.23834   0.84880   0.77816   0.00000  Uiso   1.00
H313   H     0.20035   0.54787   0.81299   0.00000  Uiso   1.00
O314   O     0.10847   0.61078   0.83126   0.00000  Uiso   1.00
O315   O     0.26198   0.79978   0.74592   0.00000  Uiso   1.00
O316   O     0.21213   0.71695   0.79162   0.00000  Uiso   1.00
N317   N     0.98823   0.59066   0.80753   0.00000  Uiso   1.00
N318   N     0.38502   0.01271   0.74672   0.00000  Uiso   1.00
N319   N     0.34947   0.66626   0.77928   0.00000  Uiso   1.00
N320   N     0.89482   0.49598   0.83105   0.00000  Uiso   1.00
N321   N     0.29161   0.91802   0.77024   0.00000  Uiso   1.00
N322   N     0.25606   0.57157   0.80279   0.00000  Uiso   1.00
C323   C     0.84910   0.41750   0.10911   0.00000  Uiso   1.00
C324   C     0.78082   0.32851   0.12361   0.00000  Uiso   1.00
C325   C     0.72412   0.20166   0.12270   0.00000  Uiso   1.00
C326   C     0.66648   0.13649   0.13736   0.00000  Uiso   1.00
C327   C     0.56054   0.98924   0.15759   0.00000  Uiso   1.00
C328   C     0.78776   0.49474   0.10685   0.00000  Uiso   1.00
C329   C     0.73690   0.50767   0.09185   0.00000  Uiso   1.00
C330   C     0.68513   0.58245   0.09240   0.00000  Uiso   1.00
C331   C     0.59004   0.69335   0.08660   0.00000  Uiso   1.00
C332   C     0.97767   0.50452   0.11583   0.00000  Uiso   1.00
C333   C     0.08650   0.52570   0.10837   0.00000  Uiso   1.00
C334   C     0.19462   0.60874   0.11647   0.00000  Uiso   1.00
C335   C     0.39440   0.73482   0.12461   0.00000  Uiso   1.00
C336   C     0.84760   0.52735   0.13677   0.00000  Uiso   1.00
C337   C     0.78001   0.38818   0.13863   0.00000  Uiso   1.00
C338   C     0.72245   0.32319   0.15330   0.00000  Uiso   1.00
C339   C     0.66567   0.19626   0.15241   0.00000  Uiso   1.00
C340   C     0.78694   0.55441   0.12187   0.00000  Uiso   1.00
C341   C     0.73524   0.62920   0.12245   0.00000  Uiso   1.00
C342   C     0.68431   0.64223   0.10745   0.00000  Uiso   1.00
C343   C     0.97686   0.56419   0.13085   0.00000  Uiso   1.00
C344   C     0.08483   0.64723   0.13897   0.00000  Uiso   1.00
C345   C     0.19380   0.66852   0.13152   0.00000  Uiso   1.00
H346   H     0.84973   0.37105   0.09742   0.00000  Uiso   1.00
H347   H     0.72476   0.15551   0.11107   0.00000  Uiso   1.00
H348   H     0.73756   0.46149   0.08022   0.00000  Uiso   1.00
H349   H     0.08710   0.47951   0.09674   0.00000  Uiso   1.00
H350   H     0.58580   0.94286   0.13284   0.00000  Uiso   1.00
H351   H     0.61283   0.58806   0.06779   0.00000  Uiso   1.00
H352   H     0.34990   0.62606   0.10262   0.00000  Uiso   1.00
H353   H     0.84696   0.57381   0.14846   0.00000  Uiso   1.00
H354   H     0.72183   0.36939   0.16492   0.00000  Uiso   1.00
H355   H     0.73463   0.67537   0.13407   0.00000  Uiso   1.00
H356   H     0.08417   0.69338   0.15059   0.00000  Uiso   1.00
H357   H     0.58342   0.11645   0.17655   0.00000  Uiso   1.00
H358   H     0.61045   0.76166   0.11150   0.00000  Uiso   1.00
H359   H     0.34752   0.79965   0.14632   0.00000  Uiso   1.00
O360   O     0.50231   0.89153   0.16460   0.00000  Uiso   1.00
O361   O     0.53780   0.73802   0.07925   0.00000  Uiso   1.00
O362   O     0.50481   0.78787   0.12495   0.00000  Uiso   1.00
N363   N     0.60243   0.01177   0.14087   0.00000  Uiso   1.00
N364   N     0.62769   0.61498   0.08005   0.00000  Uiso   1.00
N365   N     0.31679   0.65053   0.11261   0.00000  Uiso   1.00
N366   N     0.60115   0.10518   0.16439   0.00000  Uiso   1.00
N367   N     0.62641   0.70839   0.10357   0.00000  Uiso   1.00
N368   N     0.31551   0.74394   0.13613   0.00000  Uiso   1.00
C369   C     0.56840   0.15090   0.44244   0.00000  Uiso   1.00
C370   C     0.54768   0.21918   0.45695   0.00000  Uiso   1.00
C371   C     0.47754   0.27588   0.45604   0.00000  Uiso   1.00
C372   C     0.47001   0.33352   0.47070   0.00000  Uiso   1.00
C373   C     0.42870   0.43946   0.49093   0.00000  Uiso   1.00
C374   C     0.70698   0.21224   0.44018   0.00000  Uiso   1.00
C375   C     0.77076   0.26310   0.42518   0.00000  Uiso   1.00
C376   C     0.89732   0.31487   0.42573   0.00000  Uiso   1.00
C377   C     0.10331   0.40996   0.41994   0.00000  Uiso   1.00
C378   C     0.52685   0.02233   0.44916   0.00000  Uiso   1.00
C379   C     0.43919   0.91350   0.44170   0.00000  Uiso   1.00
C380   C     0.41412   0.80538   0.44981   0.00000  Uiso   1.00
C381   C     0.34042   0.60560   0.45794   0.00000  Uiso   1.00
C382   C     0.67975   0.15240   0.47010   0.00000  Uiso   1.00
C383   C     0.60817   0.21999   0.47197   0.00000  Uiso   1.00
C384   C     0.60074   0.27755   0.48663   0.00000  Uiso   1.00
C385   C     0.53059   0.33433   0.48575   0.00000  Uiso   1.00
C386   C     0.76746   0.21306   0.45521   0.00000  Uiso   1.00
C387   C     0.89396   0.26476   0.45578   0.00000  Uiso   1.00
C388   C     0.95792   0.31569   0.44078   0.00000  Uiso   1.00
C389   C     0.58733   0.02314   0.46418   0.00000  Uiso   1.00
C390   C     0.56239   0.91517   0.47230   0.00000  Uiso   1.00
C391   C     0.47471   0.80620   0.46485   0.00000  Uiso   1.00
H392   H     0.52131   0.15027   0.43075   0.00000  Uiso   1.00
H393   H     0.43075   0.27524   0.44441   0.00000  Uiso   1.00
H394   H     0.72393   0.26244   0.41356   0.00000  Uiso   1.00
H395   H     0.39241   0.91290   0.43007   0.00000  Uiso   1.00
H396   H     0.35706   0.41420   0.46617   0.00000  Uiso   1.00
H397   H     0.97523   0.38717   0.40112   0.00000  Uiso   1.00
H398   H     0.27616   0.65010   0.43595   0.00000  Uiso   1.00
H399   H     0.72685   0.15304   0.48180   0.00000  Uiso   1.00
H400   H     0.64756   0.27817   0.49826   0.00000  Uiso   1.00
H401   H     0.94074   0.26537   0.46741   0.00000  Uiso   1.00
H402   H     0.60921   0.91583   0.48392   0.00000  Uiso   1.00
H403   H     0.53303   0.41658   0.50988   0.00000  Uiso   1.00
H404   H     0.15120   0.38955   0.44483   0.00000  Uiso   1.00
H405   H     0.45213   0.65248   0.47966   0.00000  Uiso   1.00
O406   O     0.38922   0.49769   0.49793   0.00000  Uiso   1.00
O407   O     0.20022   0.46220   0.41259   0.00000  Uiso   1.00
O408   O     0.28305   0.49519   0.45828   0.00000  Uiso   1.00
N409   N     0.40934   0.39757   0.47420   0.00000  Uiso   1.00
N410   N     0.98729   0.37231   0.41338   0.00000  Uiso   1.00
N411   N     0.33374   0.68321   0.44594   0.00000  Uiso   1.00
N412   N     0.50402   0.39885   0.49772   0.00000  Uiso   1.00
N413   N     0.08198   0.37359   0.43690   0.00000  Uiso   1.00
N414   N     0.42843   0.68449   0.46946   0.00000  Uiso   1.00
C415   C     0.41750   0.56840   0.27578   0.00000  Uiso   1.00
C416   C     0.32851   0.54768   0.29028   0.00000  Uiso   1.00
C417   C     0.20166   0.47754   0.28937   0.00000  Uiso   1.00
C418   C     0.13649   0.47001   0.30403   0.00000  Uiso   1.00
C419   C     0.98924   0.42870   0.32426   0.00000  Uiso   1.00
C420   C     0.49474   0.70698   0.27352   0.00000  Uiso   1.00
C421   C     0.50767   0.77076   0.25851   0.00000  Uiso   1.00
C422   C     0.58245   0.89732   0.25907   0.00000  Uiso   1.00
C423   C     0.69335   0.10331   0.25327   0.00000  Uiso   1.00
C424   C     0.50452   0.52685   0.28249   0.00000  Uiso   1.00
C425   C     0.52570   0.43919   0.27503   0.00000  Uiso   1.00
C426   C     0.60874   0.41412   0.28314   0.00000  Uiso   1.00
C427   C     0.73482   0.34042   0.29128   0.00000  Uiso   1.00
C428   C     0.52735   0.67975   0.30344   0.00000  Uiso   1.00
C429   C     0.38818   0.60817   0.30530   0.00000  Uiso   1.00
C430   C     0.32319   0.60074   0.31997   0.00000  Uiso   1.00
C431   C     0.19626   0.53059   0.31908   0.00000  Uiso   1.00
C432   C     0.55441   0.76746   0.28854   0.00000  Uiso   1.00
C433   C     0.62920   0.89396   0.28911   0.00000  Uiso   1.00
C434   C     0.64223   0.95792   0.27412   0.00000  Uiso   1.00
C435   C     0.56419   0.58733   0.29751   0.00000  Uiso   1.00
C436   C     0.64723   0.56239   0.30563   0.00000  Uiso   1.00
C437   C     0.66852   0.47471   0.29819   0.00000  Uiso   1.00
H438   H     0.37105   0.52131   0.26408   0.00000  Uiso   1.00
H439   H     0.15551   0.43075   0.27774   0.00000  Uiso   1.00
H440   H     0.46149   0.72393   0.24689   0.00000  Uiso   1.00
H441   H     0.47951   0.39241   0.26341   0.00000  Uiso   1.00
H442   H     0.94286   0.35706   0.29951   0.00000  Uiso   1.00
H443   H     0.58806   0.97523   0.23446   0.00000  Uiso   1.00
H444   H     0.62606   0.27616   0.26928   0.00000  Uiso   1.00
H445   H     0.57381   0.72685   0.31513   0.00000  Uiso   1.00
H446   H     0.36939   0.64756   0.33159   0.00000  Uiso   1.00
H447   H     0.67537   0.94074   0.30074   0.00000  Uiso   1.00
H448   H     0.69338   0.60921   0.31726   0.00000  Uiso   1.00
H449   H     0.11645   0.53303   0.34321   0.00000  Uiso   1.00
H450   H     0.76166   0.15120   0.27816   0.00000  Uiso   1.00
H451   H     0.79965   0.45213   0.31299   0.00000  Uiso   1.00
O452   O     0.89153   0.38922   0.33126   0.00000  Uiso   1.00
O453   O     0.73802   0.20022   0.24592   0.00000  Uiso   1.00
O454   O     0.78787   0.28305   0.29162   0.00000  Uiso   1.00
N455   N     0.01177   0.40934   0.30753   0.00000  Uiso   1.00
N456   N     0.61498   0.98729   0.24672   0.00000  Uiso   1.00
N457   N     0.65053   0.33374   0.27928   0.00000  Uiso   1.00
N458   N     0.10518   0.50402   0.33105   0.00000  Uiso   1.00
N459   N     0.70839   0.08198   0.27024   0.00000  Uiso   1.00
N460   N     0.74394   0.42843   0.30279   0.00000  Uiso   1.00
C461   C     0.15090   0.58250   0.60911   0.00000  Uiso   1.00
C462   C     0.21918   0.67149   0.62361   0.00000  Uiso   1.00
C463   C     0.27588   0.79834   0.62270   0.00000  Uiso   1.00
C464   C     0.33352   0.86351   0.63736   0.00000  Uiso   1.00
C465   C     0.43946   0.01076   0.65759   0.00000  Uiso   1.00
C466   C     0.21224   0.50526   0.60685   0.00000  Uiso   1.00
C467   C     0.26310   0.49233   0.59185   0.00000  Uiso   1.00
C468   C     0.31487   0.41755   0.59240   0.00000  Uiso   1.00
C469   C     0.40996   0.30665   0.58660   0.00000  Uiso   1.00
C470   C     0.02233   0.49548   0.61583   0.00000  Uiso   1.00
C471   C     0.91350   0.47430   0.60837   0.00000  Uiso   1.00
C472   C     0.80538   0.39126   0.61647   0.00000  Uiso   1.00
C473   C     0.60560   0.26518   0.62461   0.00000  Uiso   1.00
C474   C     0.15240   0.47265   0.63677   0.00000  Uiso   1.00
C475   C     0.21999   0.61182   0.63863   0.00000  Uiso   1.00
C476   C     0.27755   0.67681   0.65330   0.00000  Uiso   1.00
C477   C     0.33433   0.80374   0.65241   0.00000  Uiso   1.00
C478   C     0.21306   0.44559   0.62187   0.00000  Uiso   1.00
C479   C     0.26476   0.37080   0.62245   0.00000  Uiso   1.00
C480   C     0.31569   0.35777   0.60745   0.00000  Uiso   1.00
C481   C     0.02314   0.43581   0.63085   0.00000  Uiso   1.00
C482   C     0.91517   0.35277   0.63897   0.00000  Uiso   1.00
C483   C     0.80620   0.33148   0.63152   0.00000  Uiso   1.00
H484   H     0.15027   0.62895   0.59742   0.00000  Uiso   1.00
H485   H     0.27524   0.84449   0.61107   0.00000  Uiso   1.00
H486   H     0.26244   0.53851   0.58022   0.00000  Uiso   1.00
H487   H     0.91290   0.52049   0.59674   0.00000  Uiso   1.00
H488   H     0.41420   0.05714   0.63284   0.00000  Uiso   1.00
H489   H     0.38717   0.41194   0.56779   0.00000  Uiso   1.00
H490   H     0.65010   0.37394   0.60262   0.00000  Uiso   1.00
H491   H     0.15304   0.42619   0.64846   0.00000  Uiso   1.00
H492   H     0.27817   0.63061   0.66492   0.00000  Uiso   1.00
H493   H     0.26537   0.32463   0.63407   0.00000  Uiso   1.00
H494   H     0.91583   0.30662   0.65059   0.00000  Uiso   1.00
H495   H     0.41658   0.88355   0.67655   0.00000  Uiso   1.00
H496   H     0.38955   0.23834   0.61150   0.00000  Uiso   1.00
H497   H     0.65248   0.20035   0.64632   0.00000  Uiso   1.00
O498   O     0.49769   0.10847   0.66460   0.00000  Uiso   1.00
O499   O     0.46220   0.26198   0.57925   0.00000  Uiso   1.00
O500   O     0.49519   0.21213   0.62495   0.00000  Uiso   1.00
N501   N     0.39757   0.98823   0.64087   0.00000  Uiso   1.00
N502   N     0.37231   0.38502   0.58005   0.00000  Uiso   1.00
N503   N     0.68321   0.34947   0.61261   0.00000  Uiso   1.00
N504   N     0.39885   0.89482   0.66439   0.00000  Uiso   1.00
N505   N     0.37359   0.29161   0.60357   0.00000  Uiso   1.00
N506   N     0.68449   0.25606   0.63613   0.00000  Uiso   1.00
C507   C     0.43160   0.84910   0.94244   0.00000  Uiso   1.00
C508   C     0.45232   0.78082   0.95695   0.00000  Uiso   1.00
C509   C     0.52246   0.72412   0.95604   0.00000  Uiso   1.00
C510   C     0.52999   0.66648   0.97070   0.00000  Uiso   1.00
C511   C     0.57130   0.56054   0.99093   0.00000  Uiso   1.00
C512   C     0.29302   0.78776   0.94018   0.00000  Uiso   1.00
C513   C     0.22924   0.73690   0.92518   0.00000  Uiso   1.00
C514   C     0.10268   0.68513   0.92573   0.00000  Uiso   1.00
C515   C     0.89669   0.59004   0.91994   0.00000  Uiso   1.00
C516   C     0.47315   0.97767   0.94916   0.00000  Uiso   1.00
C517   C     0.56081   0.08650   0.94170   0.00000  Uiso   1.00
C518   C     0.58588   0.19462   0.94981   0.00000  Uiso   1.00
C519   C     0.65958   0.39440   0.95794   0.00000  Uiso   1.00
C520   C     0.32025   0.84760   0.97010   0.00000  Uiso   1.00
C521   C     0.39183   0.78001   0.97197   0.00000  Uiso   1.00
C522   C     0.39926   0.72245   0.98663   0.00000  Uiso   1.00
C523   C     0.46941   0.66567   0.98575   0.00000  Uiso   1.00
C524   C     0.23254   0.78694   0.95521   0.00000  Uiso   1.00
C525   C     0.10604   0.73524   0.95578   0.00000  Uiso   1.00
C526   C     0.04208   0.68431   0.94078   0.00000  Uiso   1.00
C527   C     0.41267   0.97686   0.96418   0.00000  Uiso   1.00
C528   C     0.43761   0.08483   0.97230   0.00000  Uiso   1.00
C529   C     0.52529   0.19380   0.96485   0.00000  Uiso   1.00
H530   H     0.47869   0.84973   0.93075   0.00000  Uiso   1.00
H531   H     0.56925   0.72476   0.94441   0.00000  Uiso   1.00
H532   H     0.27607   0.73756   0.91356   0.00000  Uiso   1.00
H533   H     0.60759   0.08710   0.93007   0.00000  Uiso   1.00
H534   H     0.64294   0.58580   0.96617   0.00000  Uiso   1.00
H535   H     0.02477   0.61283   0.90112   0.00000  Uiso   1.00
H536   H     0.72384   0.34990   0.93595   0.00000  Uiso   1.00
H537   H     0.27315   0.84696   0.98180   0.00000  Uiso   1.00
H538   H     0.35244   0.72183   0.99826   0.00000  Uiso   1.00
H539   H     0.05926   0.73463   0.96741   0.00000  Uiso   1.00
H540   H     0.39079   0.08417   0.98392   0.00000  Uiso   1.00
H541   H     0.46697   0.58342   0.00988   0.00000  Uiso   1.00
H542   H     0.84880   0.61045   0.94483   0.00000  Uiso   1.00
H543   H     0.54787   0.34752   0.97966   0.00000  Uiso   1.00
O544   O     0.61078   0.50231   0.99793   0.00000  Uiso   1.00
O545   O     0.79978   0.53780   0.91259   0.00000  Uiso   1.00
O546   O     0.71695   0.50481   0.95828   0.00000  Uiso   1.00
N547   N     0.59066   0.60243   0.97420   0.00000  Uiso   1.00
N548   N     0.01271   0.62769   0.91338   0.00000  Uiso   1.00
N549   N     0.66626   0.31679   0.94594   0.00000  Uiso   1.00
N550   N     0.49598   0.60115   0.99772   0.00000  Uiso   1.00
N551   N     0.91802   0.62641   0.93690   0.00000  Uiso   1.00
N552   N     0.57157   0.31551   0.96946   0.00000  Uiso   1.00
