data_job_01185
_audit_creation_date              2018-12-19
_audit_creation_method            'Materials Studio'
_symmetry_space_group_name_H-M    'P1'
_symmetry_Int_Tables_number       1
_symmetry_cell_setting            triclinic
loop_
_symmetry_equiv_pos_as_xyz
  x,y,z
_cell_length_a                    31.0716
_cell_length_b                    7.1586
_cell_length_c                    26.5589
_cell_angle_alpha                 90.0000
_cell_angle_beta                  129.6090
_cell_angle_gamma                 90.0000
loop_
_atom_site_label
_atom_site_type_symbol
_atom_site_fract_x
_atom_site_fract_y
_atom_site_fract_z
_atom_site_U_iso_or_equiv
_atom_site_adp_type
_atom_site_occupancy
C1     C     0.56994   0.45437   0.42863   0.00000  Uiso   1.00
C2     C     0.59304   0.53140   0.49518   0.00000  Uiso   1.00
C3     C     0.59511   0.43643   0.54224   0.00000  Uiso   1.00
C4     C     0.61780   0.53124   0.59992   0.00000  Uiso   1.00
C5     C     0.65061   0.62302   0.70169   0.00000  Uiso   1.00
C6     C     0.52481   0.59115   0.37815   0.00000  Uiso   1.00
C7     C     0.46952   0.54641   0.32682   0.00000  Uiso   1.00
C8     C     0.43477   0.69152   0.28599   0.00000  Uiso   1.00
C9     C     0.36167   0.87604   0.20605   0.00000  Uiso   1.00
C10    C     0.61706   0.47167   0.42541   0.00000  Uiso   1.00
C11    C     0.63932   0.32648   0.41380   0.00000  Uiso   1.00
C12    C     0.68223   0.37100   0.41274   0.00000  Uiso   1.00
C13    C     0.75236   0.37000   0.40618   0.00000  Uiso   1.00
C14    C     0.60655   0.79161   0.44739   0.00000  Uiso   1.00
C15    C     0.61292   0.71458   0.50536   0.00000  Uiso   1.00
C16    C     0.63561   0.80955   0.56299   0.00000  Uiso   1.00
C17    C     0.63772   0.71474   0.61013   0.00000  Uiso   1.00
C18    C     0.54469   0.77432   0.38834   0.00000  Uiso   1.00
C19    C     0.51002   0.91953   0.34757   0.00000  Uiso   1.00
C20    C     0.45469   0.87503   0.29620   0.00000  Uiso   1.00
C21    C     0.63694   0.65484   0.43560   0.00000  Uiso   1.00
C22    C     0.67982   0.69960   0.43456   0.00000  Uiso   1.00
C23    C     0.70215   0.55451   0.42295   0.00000  Uiso   1.00
H24    H     0.55446   0.31176   0.42070   0.00000  Uiso   1.00
H25    H     0.57972   0.29468   0.53433   0.00000  Uiso   1.00
H26    H     0.45415   0.40464   0.31895   0.00000  Uiso   1.00
H27    H     0.62392   0.18475   0.40592   0.00000  Uiso   1.00
H28    H     0.61647   0.35655   0.66481   0.00000  Uiso   1.00
H29    H     0.35170   0.58840   0.21064   0.00000  Uiso   1.00
H30    H     0.70971   0.12470   0.39402   0.00000  Uiso   1.00
H31    H     0.62203   0.93423   0.45532   0.00000  Uiso   1.00
H32    H     0.65100   0.95131   0.57086   0.00000  Uiso   1.00
H33    H     0.52542   0.06126   0.35547   0.00000  Uiso   1.00
H34    H     0.69520   0.84137   0.44244   0.00000  Uiso   1.00
H35    H     0.67432   0.88950   0.69445   0.00000  Uiso   1.00
H36    H     0.40955   0.12134   0.24028   0.00000  Uiso   1.00
H37    H     0.76756   0.65764   0.42367   0.00000  Uiso   1.00
O38    O     0.66321   0.62305   0.75500   0.00000  Uiso   1.00
O39    O     0.31585   0.92721   0.15914   0.00000  Uiso   1.00
O40    O     0.78555   0.31885   0.39975   0.00000  Uiso   1.00
N41    N     0.62612   0.47963   0.65593   0.00000  Uiso   1.00
N42    N     0.37857   0.69639   0.23132   0.00000  Uiso   1.00
N43    N     0.71327   0.26288   0.40275   0.00000  Uiso   1.00
N44    N     0.65725   0.76640   0.67188   0.00000  Uiso   1.00
N45    N     0.40970   0.98316   0.24727   0.00000  Uiso   1.00
N46    N     0.74440   0.54965   0.41870   0.00000  Uiso   1.00
C47    C     0.06994   0.95437   0.42863   0.00000  Uiso   1.00
C48    C     0.09304   0.03140   0.49518   0.00000  Uiso   1.00
C49    C     0.09511   0.93643   0.54224   0.00000  Uiso   1.00
C50    C     0.11780   0.03124   0.59992   0.00000  Uiso   1.00
C51    C     0.15061   0.12302   0.70169   0.00000  Uiso   1.00
C52    C     0.02481   0.09115   0.37815   0.00000  Uiso   1.00
C53    C     0.96952   0.04641   0.32682   0.00000  Uiso   1.00
C54    C     0.93477   0.19152   0.28599   0.00000  Uiso   1.00
C55    C     0.86167   0.37604   0.20605   0.00000  Uiso   1.00
C56    C     0.11706   0.97167   0.42541   0.00000  Uiso   1.00
C57    C     0.13932   0.82648   0.41380   0.00000  Uiso   1.00
C58    C     0.18223   0.87100   0.41274   0.00000  Uiso   1.00
C59    C     0.25236   0.87000   0.40618   0.00000  Uiso   1.00
C60    C     0.10655   0.29161   0.44739   0.00000  Uiso   1.00
C61    C     0.11292   0.21458   0.50536   0.00000  Uiso   1.00
C62    C     0.13561   0.30955   0.56299   0.00000  Uiso   1.00
C63    C     0.13772   0.21474   0.61013   0.00000  Uiso   1.00
C64    C     0.04469   0.27432   0.38834   0.00000  Uiso   1.00
C65    C     0.01002   0.41953   0.34757   0.00000  Uiso   1.00
C66    C     0.95469   0.37503   0.29620   0.00000  Uiso   1.00
C67    C     0.13694   0.15484   0.43560   0.00000  Uiso   1.00
C68    C     0.17982   0.19960   0.43456   0.00000  Uiso   1.00
C69    C     0.20215   0.05451   0.42295   0.00000  Uiso   1.00
H70    H     0.05446   0.81176   0.42070   0.00000  Uiso   1.00
H71    H     0.07972   0.79468   0.53433   0.00000  Uiso   1.00
H72    H     0.95415   0.90464   0.31895   0.00000  Uiso   1.00
H73    H     0.12392   0.68475   0.40592   0.00000  Uiso   1.00
H74    H     0.11647   0.85655   0.66481   0.00000  Uiso   1.00
H75    H     0.85170   0.08840   0.21064   0.00000  Uiso   1.00
H76    H     0.20971   0.62470   0.39402   0.00000  Uiso   1.00
H77    H     0.12203   0.43423   0.45532   0.00000  Uiso   1.00
H78    H     0.15100   0.45131   0.57086   0.00000  Uiso   1.00
H79    H     0.02542   0.56126   0.35547   0.00000  Uiso   1.00
H80    H     0.19520   0.34137   0.44244   0.00000  Uiso   1.00
H81    H     0.17432   0.38950   0.69445   0.00000  Uiso   1.00
H82    H     0.90955   0.62134   0.24028   0.00000  Uiso   1.00
H83    H     0.26756   0.15764   0.42367   0.00000  Uiso   1.00
O84    O     0.16321   0.12305   0.75500   0.00000  Uiso   1.00
O85    O     0.81585   0.42721   0.15914   0.00000  Uiso   1.00
O86    O     0.28555   0.81885   0.39975   0.00000  Uiso   1.00
N87    N     0.12612   0.97963   0.65593   0.00000  Uiso   1.00
N88    N     0.87857   0.19639   0.23132   0.00000  Uiso   1.00
N89    N     0.21327   0.76288   0.40275   0.00000  Uiso   1.00
N90    N     0.15725   0.26640   0.67188   0.00000  Uiso   1.00
N91    N     0.90970   0.48316   0.24727   0.00000  Uiso   1.00
N92    N     0.24440   0.04965   0.41870   0.00000  Uiso   1.00
C93    C     0.43006   0.45437   0.07137   0.00000  Uiso   1.00
C94    C     0.40696   0.53140   0.00482   0.00000  Uiso   1.00
C95    C     0.40489   0.43643   0.95776   0.00000  Uiso   1.00
C96    C     0.38220   0.53124   0.90008   0.00000  Uiso   1.00
C97    C     0.34939   0.62302   0.79831   0.00000  Uiso   1.00
C98    C     0.47519   0.59115   0.12185   0.00000  Uiso   1.00
C99    C     0.53048   0.54641   0.17318   0.00000  Uiso   1.00
C100   C     0.56523   0.69152   0.21401   0.00000  Uiso   1.00
C101   C     0.63833   0.87604   0.29395   0.00000  Uiso   1.00
C102   C     0.38294   0.47167   0.07459   0.00000  Uiso   1.00
C103   C     0.36068   0.32648   0.08620   0.00000  Uiso   1.00
C104   C     0.31777   0.37100   0.08726   0.00000  Uiso   1.00
C105   C     0.24764   0.37000   0.09382   0.00000  Uiso   1.00
C106   C     0.39345   0.79161   0.05261   0.00000  Uiso   1.00
C107   C     0.38708   0.71458   0.99464   0.00000  Uiso   1.00
C108   C     0.36439   0.80955   0.93701   0.00000  Uiso   1.00
C109   C     0.36228   0.71474   0.88987   0.00000  Uiso   1.00
C110   C     0.45531   0.77432   0.11166   0.00000  Uiso   1.00
C111   C     0.48998   0.91953   0.15243   0.00000  Uiso   1.00
C112   C     0.54531   0.87503   0.20380   0.00000  Uiso   1.00
C113   C     0.36306   0.65484   0.06440   0.00000  Uiso   1.00
C114   C     0.32018   0.69960   0.06544   0.00000  Uiso   1.00
C115   C     0.29785   0.55451   0.07705   0.00000  Uiso   1.00
H116   H     0.44554   0.31176   0.07930   0.00000  Uiso   1.00
H117   H     0.42028   0.29468   0.96567   0.00000  Uiso   1.00
H118   H     0.54585   0.40464   0.18105   0.00000  Uiso   1.00
H119   H     0.37608   0.18475   0.09408   0.00000  Uiso   1.00
H120   H     0.38353   0.35655   0.83519   0.00000  Uiso   1.00
H121   H     0.64830   0.58840   0.28936   0.00000  Uiso   1.00
H122   H     0.29029   0.12470   0.10598   0.00000  Uiso   1.00
H123   H     0.37797   0.93423   0.04468   0.00000  Uiso   1.00
H124   H     0.34900   0.95131   0.92914   0.00000  Uiso   1.00
H125   H     0.47458   0.06126   0.14453   0.00000  Uiso   1.00
H126   H     0.30480   0.84137   0.05756   0.00000  Uiso   1.00
H127   H     0.32568   0.88950   0.80555   0.00000  Uiso   1.00
H128   H     0.59045   0.12134   0.25972   0.00000  Uiso   1.00
H129   H     0.23244   0.65764   0.07633   0.00000  Uiso   1.00
O130   O     0.33679   0.62305   0.74500   0.00000  Uiso   1.00
O131   O     0.68415   0.92721   0.34086   0.00000  Uiso   1.00
O132   O     0.21445   0.31885   0.10025   0.00000  Uiso   1.00
N133   N     0.37388   0.47963   0.84407   0.00000  Uiso   1.00
N134   N     0.62143   0.69639   0.26868   0.00000  Uiso   1.00
N135   N     0.28673   0.26288   0.09725   0.00000  Uiso   1.00
N136   N     0.34275   0.76640   0.82812   0.00000  Uiso   1.00
N137   N     0.59030   0.98316   0.25273   0.00000  Uiso   1.00
N138   N     0.25560   0.54965   0.08130   0.00000  Uiso   1.00
C139   C     0.93006   0.95437   0.07137   0.00000  Uiso   1.00
C140   C     0.90696   0.03140   0.00482   0.00000  Uiso   1.00
C141   C     0.90489   0.93643   0.95776   0.00000  Uiso   1.00
C142   C     0.88220   0.03124   0.90008   0.00000  Uiso   1.00
C143   C     0.84939   0.12302   0.79831   0.00000  Uiso   1.00
C144   C     0.97519   0.09115   0.12185   0.00000  Uiso   1.00
C145   C     0.03048   0.04641   0.17318   0.00000  Uiso   1.00
C146   C     0.06523   0.19152   0.21401   0.00000  Uiso   1.00
C147   C     0.13833   0.37604   0.29395   0.00000  Uiso   1.00
C148   C     0.88294   0.97167   0.07459   0.00000  Uiso   1.00
C149   C     0.86068   0.82648   0.08620   0.00000  Uiso   1.00
C150   C     0.81777   0.87100   0.08726   0.00000  Uiso   1.00
C151   C     0.74764   0.87000   0.09382   0.00000  Uiso   1.00
C152   C     0.89345   0.29161   0.05261   0.00000  Uiso   1.00
C153   C     0.88708   0.21458   0.99464   0.00000  Uiso   1.00
C154   C     0.86439   0.30955   0.93701   0.00000  Uiso   1.00
C155   C     0.86228   0.21474   0.88987   0.00000  Uiso   1.00
C156   C     0.95531   0.27432   0.11166   0.00000  Uiso   1.00
C157   C     0.98998   0.41953   0.15243   0.00000  Uiso   1.00
C158   C     0.04531   0.37503   0.20380   0.00000  Uiso   1.00
C159   C     0.86306   0.15484   0.06440   0.00000  Uiso   1.00
C160   C     0.82018   0.19960   0.06544   0.00000  Uiso   1.00
C161   C     0.79785   0.05451   0.07705   0.00000  Uiso   1.00
H162   H     0.94554   0.81176   0.07930   0.00000  Uiso   1.00
H163   H     0.92028   0.79468   0.96567   0.00000  Uiso   1.00
H164   H     0.04585   0.90464   0.18105   0.00000  Uiso   1.00
H165   H     0.87608   0.68475   0.09408   0.00000  Uiso   1.00
H166   H     0.88353   0.85655   0.83519   0.00000  Uiso   1.00
H167   H     0.14830   0.08840   0.28936   0.00000  Uiso   1.00
H168   H     0.79029   0.62470   0.10598   0.00000  Uiso   1.00
H169   H     0.87797   0.43423   0.04468   0.00000  Uiso   1.00
H170   H     0.84900   0.45131   0.92914   0.00000  Uiso   1.00
H171   H     0.97458   0.56126   0.14453   0.00000  Uiso   1.00
H172   H     0.80480   0.34137   0.05756   0.00000  Uiso   1.00
H173   H     0.82568   0.38950   0.80555   0.00000  Uiso   1.00
H174   H     0.09045   0.62134   0.25972   0.00000  Uiso   1.00
H175   H     0.73244   0.15764   0.07633   0.00000  Uiso   1.00
O176   O     0.83679   0.12305   0.74500   0.00000  Uiso   1.00
O177   O     0.18415   0.42721   0.34086   0.00000  Uiso   1.00
O178   O     0.71445   0.81885   0.10025   0.00000  Uiso   1.00
N179   N     0.87388   0.97963   0.84407   0.00000  Uiso   1.00
N180   N     0.12143   0.19639   0.26868   0.00000  Uiso   1.00
N181   N     0.78673   0.76288   0.09725   0.00000  Uiso   1.00
N182   N     0.84275   0.26640   0.82812   0.00000  Uiso   1.00
N183   N     0.09030   0.48316   0.25273   0.00000  Uiso   1.00
N184   N     0.75560   0.04965   0.08130   0.00000  Uiso   1.00
C185   C     0.43006   0.54563   0.57137   0.00000  Uiso   1.00
C186   C     0.40696   0.46860   0.50482   0.00000  Uiso   1.00
C187   C     0.40489   0.56357   0.45776   0.00000  Uiso   1.00
C188   C     0.38220   0.46876   0.40008   0.00000  Uiso   1.00
C189   C     0.34939   0.37698   0.29831   0.00000  Uiso   1.00
C190   C     0.47519   0.40885   0.62185   0.00000  Uiso   1.00
C191   C     0.53048   0.45359   0.67318   0.00000  Uiso   1.00
C192   C     0.56523   0.30848   0.71401   0.00000  Uiso   1.00
C193   C     0.63833   0.12396   0.79395   0.00000  Uiso   1.00
C194   C     0.38294   0.52833   0.57459   0.00000  Uiso   1.00
C195   C     0.36068   0.67352   0.58620   0.00000  Uiso   1.00
C196   C     0.31777   0.62900   0.58726   0.00000  Uiso   1.00
C197   C     0.24764   0.63000   0.59382   0.00000  Uiso   1.00
C198   C     0.39345   0.20839   0.55261   0.00000  Uiso   1.00
C199   C     0.38708   0.28542   0.49464   0.00000  Uiso   1.00
C200   C     0.36439   0.19045   0.43701   0.00000  Uiso   1.00
C201   C     0.36228   0.28526   0.38987   0.00000  Uiso   1.00
C202   C     0.45531   0.22568   0.61166   0.00000  Uiso   1.00
C203   C     0.48998   0.08047   0.65243   0.00000  Uiso   1.00
C204   C     0.54531   0.12497   0.70380   0.00000  Uiso   1.00
C205   C     0.36306   0.34516   0.56440   0.00000  Uiso   1.00
C206   C     0.32018   0.30040   0.56544   0.00000  Uiso   1.00
C207   C     0.29785   0.44549   0.57705   0.00000  Uiso   1.00
H208   H     0.44554   0.68824   0.57930   0.00000  Uiso   1.00
H209   H     0.42028   0.70532   0.46567   0.00000  Uiso   1.00
H210   H     0.54585   0.59536   0.68105   0.00000  Uiso   1.00
H211   H     0.37608   0.81525   0.59408   0.00000  Uiso   1.00
H212   H     0.38353   0.64345   0.33519   0.00000  Uiso   1.00
H213   H     0.64830   0.41160   0.78936   0.00000  Uiso   1.00
H214   H     0.29029   0.87530   0.60598   0.00000  Uiso   1.00
H215   H     0.37797   0.06577   0.54468   0.00000  Uiso   1.00
H216   H     0.34900   0.04869   0.42914   0.00000  Uiso   1.00
H217   H     0.47458   0.93874   0.64453   0.00000  Uiso   1.00
H218   H     0.30480   0.15863   0.55756   0.00000  Uiso   1.00
H219   H     0.32568   0.11050   0.30555   0.00000  Uiso   1.00
H220   H     0.59045   0.87866   0.75972   0.00000  Uiso   1.00
H221   H     0.23244   0.34236   0.57633   0.00000  Uiso   1.00
O222   O     0.33679   0.37695   0.24500   0.00000  Uiso   1.00
O223   O     0.68415   0.07279   0.84086   0.00000  Uiso   1.00
O224   O     0.21445   0.68115   0.60025   0.00000  Uiso   1.00
N225   N     0.37388   0.52037   0.34407   0.00000  Uiso   1.00
N226   N     0.62143   0.30361   0.76868   0.00000  Uiso   1.00
N227   N     0.28673   0.73712   0.59725   0.00000  Uiso   1.00
N228   N     0.34275   0.23360   0.32812   0.00000  Uiso   1.00
N229   N     0.59030   0.01684   0.75273   0.00000  Uiso   1.00
N230   N     0.25560   0.45035   0.58130   0.00000  Uiso   1.00
C231   C     0.93006   0.04563   0.57137   0.00000  Uiso   1.00
C232   C     0.90696   0.96860   0.50482   0.00000  Uiso   1.00
C233   C     0.90489   0.06357   0.45776   0.00000  Uiso   1.00
C234   C     0.88220   0.96876   0.40008   0.00000  Uiso   1.00
C235   C     0.84939   0.87698   0.29831   0.00000  Uiso   1.00
C236   C     0.97519   0.90885   0.62185   0.00000  Uiso   1.00
C237   C     0.03048   0.95359   0.67318   0.00000  Uiso   1.00
C238   C     0.06523   0.80848   0.71401   0.00000  Uiso   1.00
C239   C     0.13833   0.62396   0.79395   0.00000  Uiso   1.00
C240   C     0.88294   0.02833   0.57459   0.00000  Uiso   1.00
C241   C     0.86068   0.17352   0.58620   0.00000  Uiso   1.00
C242   C     0.81777   0.12900   0.58726   0.00000  Uiso   1.00
C243   C     0.74764   0.13000   0.59382   0.00000  Uiso   1.00
C244   C     0.89345   0.70839   0.55261   0.00000  Uiso   1.00
C245   C     0.88708   0.78542   0.49464   0.00000  Uiso   1.00
C246   C     0.86439   0.69045   0.43701   0.00000  Uiso   1.00
C247   C     0.86228   0.78526   0.38987   0.00000  Uiso   1.00
C248   C     0.95531   0.72568   0.61166   0.00000  Uiso   1.00
C249   C     0.98998   0.58047   0.65243   0.00000  Uiso   1.00
C250   C     0.04531   0.62497   0.70380   0.00000  Uiso   1.00
C251   C     0.86306   0.84516   0.56440   0.00000  Uiso   1.00
C252   C     0.82018   0.80040   0.56544   0.00000  Uiso   1.00
C253   C     0.79785   0.94549   0.57705   0.00000  Uiso   1.00
H254   H     0.94554   0.18824   0.57930   0.00000  Uiso   1.00
H255   H     0.92028   0.20532   0.46567   0.00000  Uiso   1.00
H256   H     0.04585   0.09536   0.68105   0.00000  Uiso   1.00
H257   H     0.87608   0.31525   0.59408   0.00000  Uiso   1.00
H258   H     0.88353   0.14345   0.33519   0.00000  Uiso   1.00
H259   H     0.14830   0.91160   0.78936   0.00000  Uiso   1.00
H260   H     0.79029   0.37530   0.60598   0.00000  Uiso   1.00
H261   H     0.87797   0.56577   0.54468   0.00000  Uiso   1.00
H262   H     0.84900   0.54869   0.42914   0.00000  Uiso   1.00
H263   H     0.97458   0.43874   0.64453   0.00000  Uiso   1.00
H264   H     0.80480   0.65863   0.55756   0.00000  Uiso   1.00
H265   H     0.82568   0.61050   0.30555   0.00000  Uiso   1.00
H266   H     0.09045   0.37866   0.75972   0.00000  Uiso   1.00
H267   H     0.73244   0.84236   0.57633   0.00000  Uiso   1.00
O268   O     0.83679   0.87695   0.24500   0.00000  Uiso   1.00
O269   O     0.18415   0.57279   0.84086   0.00000  Uiso   1.00
O270   O     0.71445   0.18115   0.60025   0.00000  Uiso   1.00
N271   N     0.87388   0.02037   0.34407   0.00000  Uiso   1.00
N272   N     0.12143   0.80361   0.76868   0.00000  Uiso   1.00
N273   N     0.78673   0.23712   0.59725   0.00000  Uiso   1.00
N274   N     0.84275   0.73360   0.32812   0.00000  Uiso   1.00
N275   N     0.09030   0.51684   0.75273   0.00000  Uiso   1.00
N276   N     0.75560   0.95035   0.58130   0.00000  Uiso   1.00
C277   C     0.56994   0.54563   0.92863   0.00000  Uiso   1.00
C278   C     0.59304   0.46860   0.99518   0.00000  Uiso   1.00
C279   C     0.59511   0.56357   0.04224   0.00000  Uiso   1.00
C280   C     0.61780   0.46876   0.09992   0.00000  Uiso   1.00
C281   C     0.65061   0.37698   0.20169   0.00000  Uiso   1.00
C282   C     0.52481   0.40885   0.87815   0.00000  Uiso   1.00
C283   C     0.46952   0.45359   0.82682   0.00000  Uiso   1.00
C284   C     0.43477   0.30848   0.78599   0.00000  Uiso   1.00
C285   C     0.36167   0.12396   0.70605   0.00000  Uiso   1.00
C286   C     0.61706   0.52833   0.92541   0.00000  Uiso   1.00
C287   C     0.63932   0.67352   0.91380   0.00000  Uiso   1.00
C288   C     0.68223   0.62900   0.91274   0.00000  Uiso   1.00
C289   C     0.75236   0.63000   0.90618   0.00000  Uiso   1.00
C290   C     0.60655   0.20839   0.94739   0.00000  Uiso   1.00
C291   C     0.61292   0.28542   0.00536   0.00000  Uiso   1.00
C292   C     0.63561   0.19045   0.06299   0.00000  Uiso   1.00
C293   C     0.63772   0.28526   0.11013   0.00000  Uiso   1.00
C294   C     0.54469   0.22568   0.88834   0.00000  Uiso   1.00
C295   C     0.51002   0.08047   0.84757   0.00000  Uiso   1.00
C296   C     0.45469   0.12497   0.79620   0.00000  Uiso   1.00
C297   C     0.63694   0.34516   0.93560   0.00000  Uiso   1.00
C298   C     0.67982   0.30040   0.93456   0.00000  Uiso   1.00
C299   C     0.70215   0.44549   0.92295   0.00000  Uiso   1.00
H300   H     0.55446   0.68824   0.92070   0.00000  Uiso   1.00
H301   H     0.57972   0.70532   0.03433   0.00000  Uiso   1.00
H302   H     0.45415   0.59536   0.81895   0.00000  Uiso   1.00
H303   H     0.62392   0.81525   0.90592   0.00000  Uiso   1.00
H304   H     0.61647   0.64345   0.16481   0.00000  Uiso   1.00
H305   H     0.35170   0.41160   0.71064   0.00000  Uiso   1.00
H306   H     0.70971   0.87530   0.89402   0.00000  Uiso   1.00
H307   H     0.62203   0.06577   0.95532   0.00000  Uiso   1.00
H308   H     0.65100   0.04869   0.07086   0.00000  Uiso   1.00
H309   H     0.52542   0.93874   0.85547   0.00000  Uiso   1.00
H310   H     0.69520   0.15863   0.94244   0.00000  Uiso   1.00
H311   H     0.67432   0.11050   0.19445   0.00000  Uiso   1.00
H312   H     0.40955   0.87866   0.74028   0.00000  Uiso   1.00
H313   H     0.76756   0.34236   0.92367   0.00000  Uiso   1.00
O314   O     0.66321   0.37695   0.25500   0.00000  Uiso   1.00
O315   O     0.31585   0.07279   0.65914   0.00000  Uiso   1.00
O316   O     0.78555   0.68115   0.89975   0.00000  Uiso   1.00
N317   N     0.62612   0.52037   0.15593   0.00000  Uiso   1.00
N318   N     0.37857   0.30361   0.73132   0.00000  Uiso   1.00
N319   N     0.71327   0.73712   0.90275   0.00000  Uiso   1.00
N320   N     0.65725   0.23360   0.17188   0.00000  Uiso   1.00
N321   N     0.40970   0.01684   0.74727   0.00000  Uiso   1.00
N322   N     0.74440   0.45035   0.91870   0.00000  Uiso   1.00
C323   C     0.06994   0.04563   0.92863   0.00000  Uiso   1.00
C324   C     0.09304   0.96860   0.99518   0.00000  Uiso   1.00
C325   C     0.09511   0.06357   0.04224   0.00000  Uiso   1.00
C326   C     0.11780   0.96876   0.09992   0.00000  Uiso   1.00
C327   C     0.15061   0.87698   0.20169   0.00000  Uiso   1.00
C328   C     0.02481   0.90885   0.87815   0.00000  Uiso   1.00
C329   C     0.96952   0.95359   0.82682   0.00000  Uiso   1.00
C330   C     0.93477   0.80848   0.78599   0.00000  Uiso   1.00
C331   C     0.86167   0.62396   0.70605   0.00000  Uiso   1.00
C332   C     0.11706   0.02833   0.92541   0.00000  Uiso   1.00
C333   C     0.13932   0.17352   0.91380   0.00000  Uiso   1.00
C334   C     0.18223   0.12900   0.91274   0.00000  Uiso   1.00
C335   C     0.25236   0.13000   0.90618   0.00000  Uiso   1.00
C336   C     0.10655   0.70839   0.94739   0.00000  Uiso   1.00
C337   C     0.11292   0.78542   0.00536   0.00000  Uiso   1.00
C338   C     0.13561   0.69045   0.06299   0.00000  Uiso   1.00
C339   C     0.13772   0.78526   0.11013   0.00000  Uiso   1.00
C340   C     0.04469   0.72568   0.88834   0.00000  Uiso   1.00
C341   C     0.01002   0.58047   0.84757   0.00000  Uiso   1.00
C342   C     0.95469   0.62497   0.79620   0.00000  Uiso   1.00
C343   C     0.13694   0.84516   0.93560   0.00000  Uiso   1.00
C344   C     0.17982   0.80040   0.93456   0.00000  Uiso   1.00
C345   C     0.20215   0.94549   0.92295   0.00000  Uiso   1.00
H346   H     0.05446   0.18824   0.92070   0.00000  Uiso   1.00
H347   H     0.07972   0.20532   0.03433   0.00000  Uiso   1.00
H348   H     0.95415   0.09536   0.81895   0.00000  Uiso   1.00
H349   H     0.12392   0.31525   0.90592   0.00000  Uiso   1.00
H350   H     0.11647   0.14345   0.16481   0.00000  Uiso   1.00
H351   H     0.85170   0.91160   0.71064   0.00000  Uiso   1.00
H352   H     0.20971   0.37530   0.89402   0.00000  Uiso   1.00
H353   H     0.12203   0.56577   0.95532   0.00000  Uiso   1.00
H354   H     0.15100   0.54869   0.07086   0.00000  Uiso   1.00
H355   H     0.02542   0.43874   0.85547   0.00000  Uiso   1.00
H356   H     0.19520   0.65863   0.94244   0.00000  Uiso   1.00
H357   H     0.17432   0.61050   0.19445   0.00000  Uiso   1.00
H358   H     0.90955   0.37866   0.74028   0.00000  Uiso   1.00
H359   H     0.26756   0.84236   0.92367   0.00000  Uiso   1.00
O360   O     0.16321   0.87695   0.25500   0.00000  Uiso   1.00
O361   O     0.81585   0.57279   0.65914   0.00000  Uiso   1.00
O362   O     0.28555   0.18115   0.89975   0.00000  Uiso   1.00
N363   N     0.12612   0.02037   0.15593   0.00000  Uiso   1.00
N364   N     0.87857   0.80361   0.73132   0.00000  Uiso   1.00
N365   N     0.21327   0.23712   0.90275   0.00000  Uiso   1.00
N366   N     0.15725   0.73360   0.17188   0.00000  Uiso   1.00
N367   N     0.90970   0.51684   0.74727   0.00000  Uiso   1.00
N368   N     0.24440   0.95035   0.91870   0.00000  Uiso   1.00
