data_job_02260
_audit_creation_date              2018-12-19
_audit_creation_method            'Materials Studio'
_symmetry_space_group_name_H-M    'P1'
_symmetry_Int_Tables_number       1
_symmetry_cell_setting            triclinic
loop_
_symmetry_equiv_pos_as_xyz
  x,y,z
_cell_length_a                    37.6374
_cell_length_b                    37.6374
_cell_length_c                    7.2613
_cell_angle_alpha                 90.0000
_cell_angle_beta                  90.0000
_cell_angle_gamma                 90.0000
loop_
_atom_site_label
_atom_site_type_symbol
_atom_site_fract_x
_atom_site_fract_y
_atom_site_fract_z
_atom_site_U_iso_or_equiv
_atom_site_adp_type
_atom_site_occupancy
C1     C     0.19254   0.84842   0.92758   0.00000  Uiso   1.00
C2     C     0.22189   0.82528   0.84649   0.00000  Uiso   1.00
C3     C     0.24659   0.80586   0.94650   0.00000  Uiso   1.00
C4     C     0.27131   0.78639   0.84670   0.00000  Uiso   1.00
C5     C     0.31690   0.75048   0.75013   0.00000  Uiso   1.00
C6     C     0.19788   0.88539   0.84631   0.00000  Uiso   1.00
C7     C     0.20238   0.91651   0.94617   0.00000  Uiso   1.00
C8     C     0.20687   0.94764   0.84622   0.00000  Uiso   1.00
C9     C     0.21515   0.00506   0.74937   0.00000  Uiso   1.00
C10    C     0.15783   0.83454   0.84662   0.00000  Uiso   1.00
C11    C     0.12865   0.82291   0.94673   0.00000  Uiso   1.00
C12    C     0.09942   0.81124   0.84702   0.00000  Uiso   1.00
C13    C     0.04551   0.78971   0.75064   0.00000  Uiso   1.00
C14    C     0.19251   0.84837   0.57251   0.00000  Uiso   1.00
C15    C     0.22187   0.82526   0.65363   0.00000  Uiso   1.00
C16    C     0.24656   0.80580   0.55365   0.00000  Uiso   1.00
C17    C     0.27129   0.78636   0.65350   0.00000  Uiso   1.00
C18    C     0.19786   0.88537   0.65346   0.00000  Uiso   1.00
C19    C     0.20234   0.91645   0.55333   0.00000  Uiso   1.00
C20    C     0.20685   0.94761   0.65301   0.00000  Uiso   1.00
C21    C     0.15781   0.83452   0.65375   0.00000  Uiso   1.00
C22    C     0.12861   0.82286   0.55388   0.00000  Uiso   1.00
C23    C     0.09940   0.81121   0.65381   0.00000  Uiso   1.00
H24    H     0.19255   0.84844   0.07773   0.00000  Uiso   1.00
H25    H     0.24660   0.80589   0.09575   0.00000  Uiso   1.00
H26    H     0.20239   0.91652   0.09542   0.00000  Uiso   1.00
H27    H     0.12867   0.82294   0.09597   0.00000  Uiso   1.00
H28    H     0.30652   0.75872   0.03068   0.00000  Uiso   1.00
H29    H     0.21329   0.99199   0.02998   0.00000  Uiso   1.00
H30    H     0.05784   0.79465   0.03114   0.00000  Uiso   1.00
H31    H     0.19249   0.84835   0.42236   0.00000  Uiso   1.00
H32    H     0.24654   0.80579   0.40441   0.00000  Uiso   1.00
H33    H     0.20232   0.91642   0.40409   0.00000  Uiso   1.00
H34    H     0.12861   0.82284   0.40463   0.00000  Uiso   1.00
H35    H     0.30647   0.75863   0.46956   0.00000  Uiso   1.00
H36    H     0.21323   0.99191   0.46887   0.00000  Uiso   1.00
H37    H     0.05779   0.79457   0.47002   0.00000  Uiso   1.00
O38    O     0.34205   0.73069   0.75014   0.00000  Uiso   1.00
O39    O     0.21973   0.03674   0.74923   0.00000  Uiso   1.00
O40    O     0.01579   0.77783   0.75075   0.00000  Uiso   1.00
N41    N     0.29909   0.76453   0.90108   0.00000  Uiso   1.00
N42    N     0.21192   0.98263   0.90043   0.00000  Uiso   1.00
N43    N     0.06659   0.79814   0.90152   0.00000  Uiso   1.00
N44    N     0.29906   0.76449   0.59915   0.00000  Uiso   1.00
N45    N     0.21190   0.98259   0.59850   0.00000  Uiso   1.00
N46    N     0.06656   0.79810   0.59958   0.00000  Uiso   1.00
C47    C     0.80746   0.15158   0.92758   0.00000  Uiso   1.00
C48    C     0.77811   0.17472   0.84649   0.00000  Uiso   1.00
C49    C     0.75341   0.19414   0.94650   0.00000  Uiso   1.00
C50    C     0.72869   0.21361   0.84670   0.00000  Uiso   1.00
C51    C     0.68310   0.24952   0.75013   0.00000  Uiso   1.00
C52    C     0.80212   0.11461   0.84631   0.00000  Uiso   1.00
C53    C     0.79762   0.08349   0.94617   0.00000  Uiso   1.00
C54    C     0.79313   0.05236   0.84622   0.00000  Uiso   1.00
C55    C     0.78485   0.99494   0.74937   0.00000  Uiso   1.00
C56    C     0.84217   0.16546   0.84662   0.00000  Uiso   1.00
C57    C     0.87135   0.17709   0.94673   0.00000  Uiso   1.00
C58    C     0.90058   0.18876   0.84702   0.00000  Uiso   1.00
C59    C     0.95449   0.21029   0.75064   0.00000  Uiso   1.00
C60    C     0.80749   0.15163   0.57251   0.00000  Uiso   1.00
C61    C     0.77813   0.17474   0.65363   0.00000  Uiso   1.00
C62    C     0.75344   0.19420   0.55365   0.00000  Uiso   1.00
C63    C     0.72871   0.21364   0.65350   0.00000  Uiso   1.00
C64    C     0.80214   0.11463   0.65346   0.00000  Uiso   1.00
C65    C     0.79766   0.08355   0.55333   0.00000  Uiso   1.00
C66    C     0.79315   0.05239   0.65301   0.00000  Uiso   1.00
C67    C     0.84219   0.16548   0.65375   0.00000  Uiso   1.00
C68    C     0.87139   0.17714   0.55388   0.00000  Uiso   1.00
C69    C     0.90060   0.18879   0.65381   0.00000  Uiso   1.00
H70    H     0.80745   0.15156   0.07773   0.00000  Uiso   1.00
H71    H     0.75340   0.19411   0.09575   0.00000  Uiso   1.00
H72    H     0.79761   0.08348   0.09542   0.00000  Uiso   1.00
H73    H     0.87133   0.17706   0.09597   0.00000  Uiso   1.00
H74    H     0.69348   0.24128   0.03068   0.00000  Uiso   1.00
H75    H     0.78671   0.00801   0.02998   0.00000  Uiso   1.00
H76    H     0.94216   0.20535   0.03114   0.00000  Uiso   1.00
H77    H     0.80751   0.15165   0.42236   0.00000  Uiso   1.00
H78    H     0.75346   0.19421   0.40441   0.00000  Uiso   1.00
H79    H     0.79768   0.08358   0.40409   0.00000  Uiso   1.00
H80    H     0.87139   0.17716   0.40463   0.00000  Uiso   1.00
H81    H     0.69353   0.24137   0.46956   0.00000  Uiso   1.00
H82    H     0.78677   0.00809   0.46887   0.00000  Uiso   1.00
H83    H     0.94221   0.20543   0.47002   0.00000  Uiso   1.00
O84    O     0.65795   0.26931   0.75014   0.00000  Uiso   1.00
O85    O     0.78027   0.96326   0.74923   0.00000  Uiso   1.00
O86    O     0.98421   0.22217   0.75075   0.00000  Uiso   1.00
N87    N     0.70091   0.23547   0.90108   0.00000  Uiso   1.00
N88    N     0.78808   0.01737   0.90043   0.00000  Uiso   1.00
N89    N     0.93341   0.20186   0.90152   0.00000  Uiso   1.00
N90    N     0.70094   0.23551   0.59915   0.00000  Uiso   1.00
N91    N     0.78810   0.01741   0.59850   0.00000  Uiso   1.00
N92    N     0.93344   0.20190   0.59958   0.00000  Uiso   1.00
C93    C     0.65158   0.69254   0.92758   0.00000  Uiso   1.00
C94    C     0.67472   0.72189   0.84649   0.00000  Uiso   1.00
C95    C     0.69414   0.74659   0.94650   0.00000  Uiso   1.00
C96    C     0.71361   0.77131   0.84670   0.00000  Uiso   1.00
C97    C     0.74952   0.81690   0.75013   0.00000  Uiso   1.00
C98    C     0.61461   0.69788   0.84631   0.00000  Uiso   1.00
C99    C     0.58349   0.70238   0.94617   0.00000  Uiso   1.00
C100   C     0.55236   0.70687   0.84622   0.00000  Uiso   1.00
C101   C     0.49494   0.71515   0.74937   0.00000  Uiso   1.00
C102   C     0.66546   0.65783   0.84662   0.00000  Uiso   1.00
C103   C     0.67709   0.62865   0.94673   0.00000  Uiso   1.00
C104   C     0.68876   0.59942   0.84702   0.00000  Uiso   1.00
C105   C     0.71029   0.54551   0.75064   0.00000  Uiso   1.00
C106   C     0.65163   0.69251   0.57251   0.00000  Uiso   1.00
C107   C     0.67474   0.72187   0.65363   0.00000  Uiso   1.00
C108   C     0.69420   0.74656   0.55365   0.00000  Uiso   1.00
C109   C     0.71364   0.77129   0.65350   0.00000  Uiso   1.00
C110   C     0.61463   0.69786   0.65346   0.00000  Uiso   1.00
C111   C     0.58355   0.70234   0.55333   0.00000  Uiso   1.00
C112   C     0.55239   0.70685   0.65301   0.00000  Uiso   1.00
C113   C     0.66548   0.65781   0.65375   0.00000  Uiso   1.00
C114   C     0.67714   0.62861   0.55388   0.00000  Uiso   1.00
C115   C     0.68879   0.59940   0.65381   0.00000  Uiso   1.00
H116   H     0.65156   0.69255   0.07773   0.00000  Uiso   1.00
H117   H     0.69411   0.74660   0.09575   0.00000  Uiso   1.00
H118   H     0.58348   0.70239   0.09542   0.00000  Uiso   1.00
H119   H     0.67706   0.62867   0.09597   0.00000  Uiso   1.00
H120   H     0.74128   0.80652   0.03068   0.00000  Uiso   1.00
H121   H     0.50801   0.71329   0.02998   0.00000  Uiso   1.00
H122   H     0.70535   0.55784   0.03114   0.00000  Uiso   1.00
H123   H     0.65165   0.69249   0.42236   0.00000  Uiso   1.00
H124   H     0.69421   0.74654   0.40441   0.00000  Uiso   1.00
H125   H     0.58358   0.70232   0.40409   0.00000  Uiso   1.00
H126   H     0.67716   0.62861   0.40463   0.00000  Uiso   1.00
H127   H     0.74137   0.80647   0.46956   0.00000  Uiso   1.00
H128   H     0.50809   0.71323   0.46887   0.00000  Uiso   1.00
H129   H     0.70543   0.55779   0.47002   0.00000  Uiso   1.00
O130   O     0.76931   0.84205   0.75014   0.00000  Uiso   1.00
O131   O     0.46326   0.71973   0.74923   0.00000  Uiso   1.00
O132   O     0.72217   0.51579   0.75075   0.00000  Uiso   1.00
N133   N     0.73547   0.79909   0.90108   0.00000  Uiso   1.00
N134   N     0.51737   0.71192   0.90043   0.00000  Uiso   1.00
N135   N     0.70186   0.56659   0.90152   0.00000  Uiso   1.00
N136   N     0.73551   0.79906   0.59915   0.00000  Uiso   1.00
N137   N     0.51741   0.71190   0.59850   0.00000  Uiso   1.00
N138   N     0.70190   0.56656   0.59958   0.00000  Uiso   1.00
C139   C     0.34842   0.30746   0.92758   0.00000  Uiso   1.00
C140   C     0.32528   0.27811   0.84649   0.00000  Uiso   1.00
C141   C     0.30586   0.25341   0.94650   0.00000  Uiso   1.00
C142   C     0.28639   0.22869   0.84670   0.00000  Uiso   1.00
C143   C     0.25048   0.18310   0.75013   0.00000  Uiso   1.00
C144   C     0.38539   0.30212   0.84631   0.00000  Uiso   1.00
C145   C     0.41651   0.29762   0.94617   0.00000  Uiso   1.00
C146   C     0.44764   0.29313   0.84622   0.00000  Uiso   1.00
C147   C     0.50506   0.28485   0.74937   0.00000  Uiso   1.00
C148   C     0.33454   0.34217   0.84662   0.00000  Uiso   1.00
C149   C     0.32291   0.37135   0.94673   0.00000  Uiso   1.00
C150   C     0.31124   0.40058   0.84702   0.00000  Uiso   1.00
C151   C     0.28971   0.45449   0.75064   0.00000  Uiso   1.00
C152   C     0.34837   0.30749   0.57251   0.00000  Uiso   1.00
C153   C     0.32526   0.27813   0.65363   0.00000  Uiso   1.00
C154   C     0.30580   0.25344   0.55365   0.00000  Uiso   1.00
C155   C     0.28636   0.22871   0.65350   0.00000  Uiso   1.00
C156   C     0.38537   0.30214   0.65346   0.00000  Uiso   1.00
C157   C     0.41645   0.29766   0.55333   0.00000  Uiso   1.00
C158   C     0.44761   0.29315   0.65301   0.00000  Uiso   1.00
C159   C     0.33452   0.34219   0.65375   0.00000  Uiso   1.00
C160   C     0.32286   0.37139   0.55388   0.00000  Uiso   1.00
C161   C     0.31121   0.40060   0.65381   0.00000  Uiso   1.00
H162   H     0.34844   0.30745   0.07773   0.00000  Uiso   1.00
H163   H     0.30589   0.25340   0.09575   0.00000  Uiso   1.00
H164   H     0.41652   0.29761   0.09542   0.00000  Uiso   1.00
H165   H     0.32294   0.37133   0.09597   0.00000  Uiso   1.00
H166   H     0.25872   0.19348   0.03068   0.00000  Uiso   1.00
H167   H     0.49199   0.28671   0.02998   0.00000  Uiso   1.00
H168   H     0.29465   0.44216   0.03114   0.00000  Uiso   1.00
H169   H     0.34835   0.30751   0.42236   0.00000  Uiso   1.00
H170   H     0.30579   0.25346   0.40441   0.00000  Uiso   1.00
H171   H     0.41642   0.29768   0.40409   0.00000  Uiso   1.00
H172   H     0.32284   0.37139   0.40463   0.00000  Uiso   1.00
H173   H     0.25863   0.19353   0.46956   0.00000  Uiso   1.00
H174   H     0.49191   0.28677   0.46887   0.00000  Uiso   1.00
H175   H     0.29457   0.44221   0.47002   0.00000  Uiso   1.00
O176   O     0.23069   0.15795   0.75014   0.00000  Uiso   1.00
O177   O     0.53674   0.28027   0.74923   0.00000  Uiso   1.00
O178   O     0.27783   0.48421   0.75075   0.00000  Uiso   1.00
N179   N     0.26453   0.20091   0.90108   0.00000  Uiso   1.00
N180   N     0.48263   0.28808   0.90043   0.00000  Uiso   1.00
N181   N     0.29814   0.43341   0.90152   0.00000  Uiso   1.00
N182   N     0.26449   0.20094   0.59915   0.00000  Uiso   1.00
N183   N     0.48259   0.28810   0.59850   0.00000  Uiso   1.00
N184   N     0.29810   0.43344   0.59958   0.00000  Uiso   1.00
C185   C     0.30746   0.65158   0.07242   0.00000  Uiso   1.00
C186   C     0.27811   0.67472   0.15351   0.00000  Uiso   1.00
C187   C     0.25341   0.69414   0.05350   0.00000  Uiso   1.00
C188   C     0.22869   0.71361   0.15330   0.00000  Uiso   1.00
C189   C     0.18310   0.74952   0.24987   0.00000  Uiso   1.00
C190   C     0.30212   0.61461   0.15369   0.00000  Uiso   1.00
C191   C     0.29762   0.58349   0.05383   0.00000  Uiso   1.00
C192   C     0.29313   0.55236   0.15378   0.00000  Uiso   1.00
C193   C     0.28485   0.49494   0.25063   0.00000  Uiso   1.00
C194   C     0.34217   0.66546   0.15338   0.00000  Uiso   1.00
C195   C     0.37135   0.67709   0.05327   0.00000  Uiso   1.00
C196   C     0.40058   0.68876   0.15298   0.00000  Uiso   1.00
C197   C     0.45449   0.71029   0.24936   0.00000  Uiso   1.00
C198   C     0.30749   0.65163   0.42749   0.00000  Uiso   1.00
C199   C     0.27813   0.67474   0.34637   0.00000  Uiso   1.00
C200   C     0.25344   0.69420   0.44635   0.00000  Uiso   1.00
C201   C     0.22871   0.71364   0.34650   0.00000  Uiso   1.00
C202   C     0.30214   0.61463   0.34654   0.00000  Uiso   1.00
C203   C     0.29766   0.58355   0.44667   0.00000  Uiso   1.00
C204   C     0.29315   0.55239   0.34699   0.00000  Uiso   1.00
C205   C     0.34219   0.66548   0.34625   0.00000  Uiso   1.00
C206   C     0.37139   0.67714   0.44612   0.00000  Uiso   1.00
C207   C     0.40060   0.68879   0.34619   0.00000  Uiso   1.00
H208   H     0.30745   0.65156   0.92227   0.00000  Uiso   1.00
H209   H     0.25340   0.69411   0.90425   0.00000  Uiso   1.00
H210   H     0.29761   0.58348   0.90458   0.00000  Uiso   1.00
H211   H     0.37133   0.67706   0.90403   0.00000  Uiso   1.00
H212   H     0.19348   0.74128   0.96932   0.00000  Uiso   1.00
H213   H     0.28671   0.50801   0.97002   0.00000  Uiso   1.00
H214   H     0.44216   0.70535   0.96886   0.00000  Uiso   1.00
H215   H     0.30751   0.65165   0.57764   0.00000  Uiso   1.00
H216   H     0.25346   0.69421   0.59559   0.00000  Uiso   1.00
H217   H     0.29768   0.58358   0.59591   0.00000  Uiso   1.00
H218   H     0.37139   0.67716   0.59537   0.00000  Uiso   1.00
H219   H     0.19353   0.74137   0.53044   0.00000  Uiso   1.00
H220   H     0.28677   0.50809   0.53113   0.00000  Uiso   1.00
H221   H     0.44221   0.70543   0.52998   0.00000  Uiso   1.00
O222   O     0.15795   0.76931   0.24986   0.00000  Uiso   1.00
O223   O     0.28027   0.46326   0.25077   0.00000  Uiso   1.00
O224   O     0.48421   0.72217   0.24925   0.00000  Uiso   1.00
N225   N     0.20091   0.73547   0.09892   0.00000  Uiso   1.00
N226   N     0.28808   0.51737   0.09957   0.00000  Uiso   1.00
N227   N     0.43341   0.70186   0.09848   0.00000  Uiso   1.00
N228   N     0.20094   0.73551   0.40085   0.00000  Uiso   1.00
N229   N     0.28810   0.51741   0.40150   0.00000  Uiso   1.00
N230   N     0.43344   0.70190   0.40042   0.00000  Uiso   1.00
C231   C     0.69254   0.34842   0.07242   0.00000  Uiso   1.00
C232   C     0.72189   0.32528   0.15351   0.00000  Uiso   1.00
C233   C     0.74659   0.30586   0.05350   0.00000  Uiso   1.00
C234   C     0.77131   0.28639   0.15330   0.00000  Uiso   1.00
C235   C     0.81690   0.25048   0.24987   0.00000  Uiso   1.00
C236   C     0.69788   0.38539   0.15369   0.00000  Uiso   1.00
C237   C     0.70238   0.41651   0.05383   0.00000  Uiso   1.00
C238   C     0.70687   0.44764   0.15378   0.00000  Uiso   1.00
C239   C     0.71515   0.50506   0.25063   0.00000  Uiso   1.00
C240   C     0.65783   0.33454   0.15338   0.00000  Uiso   1.00
C241   C     0.62865   0.32291   0.05327   0.00000  Uiso   1.00
C242   C     0.59942   0.31124   0.15298   0.00000  Uiso   1.00
C243   C     0.54551   0.28971   0.24936   0.00000  Uiso   1.00
C244   C     0.69251   0.34837   0.42749   0.00000  Uiso   1.00
C245   C     0.72187   0.32526   0.34637   0.00000  Uiso   1.00
C246   C     0.74656   0.30580   0.44635   0.00000  Uiso   1.00
C247   C     0.77129   0.28636   0.34650   0.00000  Uiso   1.00
C248   C     0.69786   0.38537   0.34654   0.00000  Uiso   1.00
C249   C     0.70234   0.41645   0.44667   0.00000  Uiso   1.00
C250   C     0.70685   0.44761   0.34699   0.00000  Uiso   1.00
C251   C     0.65781   0.33452   0.34625   0.00000  Uiso   1.00
C252   C     0.62861   0.32286   0.44612   0.00000  Uiso   1.00
C253   C     0.59940   0.31121   0.34619   0.00000  Uiso   1.00
H254   H     0.69255   0.34844   0.92227   0.00000  Uiso   1.00
H255   H     0.74660   0.30589   0.90425   0.00000  Uiso   1.00
H256   H     0.70239   0.41652   0.90458   0.00000  Uiso   1.00
H257   H     0.62867   0.32294   0.90403   0.00000  Uiso   1.00
H258   H     0.80652   0.25872   0.96932   0.00000  Uiso   1.00
H259   H     0.71329   0.49199   0.97002   0.00000  Uiso   1.00
H260   H     0.55784   0.29465   0.96886   0.00000  Uiso   1.00
H261   H     0.69249   0.34835   0.57764   0.00000  Uiso   1.00
H262   H     0.74654   0.30579   0.59559   0.00000  Uiso   1.00
H263   H     0.70232   0.41642   0.59591   0.00000  Uiso   1.00
H264   H     0.62861   0.32284   0.59537   0.00000  Uiso   1.00
H265   H     0.80647   0.25863   0.53044   0.00000  Uiso   1.00
H266   H     0.71323   0.49191   0.53113   0.00000  Uiso   1.00
H267   H     0.55779   0.29457   0.52998   0.00000  Uiso   1.00
O268   O     0.84205   0.23069   0.24986   0.00000  Uiso   1.00
O269   O     0.71973   0.53674   0.25077   0.00000  Uiso   1.00
O270   O     0.51579   0.27783   0.24925   0.00000  Uiso   1.00
N271   N     0.79909   0.26453   0.09892   0.00000  Uiso   1.00
N272   N     0.71192   0.48263   0.09957   0.00000  Uiso   1.00
N273   N     0.56659   0.29814   0.09848   0.00000  Uiso   1.00
N274   N     0.79906   0.26449   0.40085   0.00000  Uiso   1.00
N275   N     0.71190   0.48259   0.40150   0.00000  Uiso   1.00
N276   N     0.56656   0.29810   0.40042   0.00000  Uiso   1.00
C277   C     0.84842   0.80746   0.07242   0.00000  Uiso   1.00
C278   C     0.82528   0.77811   0.15351   0.00000  Uiso   1.00
C279   C     0.80586   0.75341   0.05350   0.00000  Uiso   1.00
C280   C     0.78639   0.72869   0.15330   0.00000  Uiso   1.00
C281   C     0.75048   0.68310   0.24987   0.00000  Uiso   1.00
C282   C     0.88539   0.80212   0.15369   0.00000  Uiso   1.00
C283   C     0.91651   0.79762   0.05383   0.00000  Uiso   1.00
C284   C     0.94764   0.79313   0.15378   0.00000  Uiso   1.00
C285   C     0.00506   0.78485   0.25063   0.00000  Uiso   1.00
C286   C     0.83454   0.84217   0.15338   0.00000  Uiso   1.00
C287   C     0.82291   0.87135   0.05327   0.00000  Uiso   1.00
C288   C     0.81124   0.90058   0.15298   0.00000  Uiso   1.00
C289   C     0.78971   0.95449   0.24936   0.00000  Uiso   1.00
C290   C     0.84837   0.80749   0.42749   0.00000  Uiso   1.00
C291   C     0.82526   0.77813   0.34637   0.00000  Uiso   1.00
C292   C     0.80580   0.75344   0.44635   0.00000  Uiso   1.00
C293   C     0.78636   0.72871   0.34650   0.00000  Uiso   1.00
C294   C     0.88537   0.80214   0.34654   0.00000  Uiso   1.00
C295   C     0.91645   0.79766   0.44667   0.00000  Uiso   1.00
C296   C     0.94761   0.79315   0.34699   0.00000  Uiso   1.00
C297   C     0.83452   0.84219   0.34625   0.00000  Uiso   1.00
C298   C     0.82286   0.87139   0.44612   0.00000  Uiso   1.00
C299   C     0.81121   0.90060   0.34619   0.00000  Uiso   1.00
H300   H     0.84844   0.80745   0.92227   0.00000  Uiso   1.00
H301   H     0.80589   0.75340   0.90425   0.00000  Uiso   1.00
H302   H     0.91652   0.79761   0.90458   0.00000  Uiso   1.00
H303   H     0.82294   0.87133   0.90403   0.00000  Uiso   1.00
H304   H     0.75872   0.69348   0.96932   0.00000  Uiso   1.00
H305   H     0.99199   0.78671   0.97002   0.00000  Uiso   1.00
H306   H     0.79465   0.94216   0.96886   0.00000  Uiso   1.00
H307   H     0.84835   0.80751   0.57764   0.00000  Uiso   1.00
H308   H     0.80579   0.75346   0.59559   0.00000  Uiso   1.00
H309   H     0.91642   0.79768   0.59591   0.00000  Uiso   1.00
H310   H     0.82284   0.87139   0.59537   0.00000  Uiso   1.00
H311   H     0.75863   0.69353   0.53044   0.00000  Uiso   1.00
H312   H     0.99191   0.78677   0.53113   0.00000  Uiso   1.00
H313   H     0.79457   0.94221   0.52998   0.00000  Uiso   1.00
O314   O     0.73069   0.65795   0.24986   0.00000  Uiso   1.00
O315   O     0.03674   0.78027   0.25077   0.00000  Uiso   1.00
O316   O     0.77783   0.98421   0.24925   0.00000  Uiso   1.00
N317   N     0.76453   0.70091   0.09892   0.00000  Uiso   1.00
N318   N     0.98263   0.78808   0.09957   0.00000  Uiso   1.00
N319   N     0.79814   0.93341   0.09848   0.00000  Uiso   1.00
N320   N     0.76449   0.70094   0.40085   0.00000  Uiso   1.00
N321   N     0.98259   0.78810   0.40150   0.00000  Uiso   1.00
N322   N     0.79810   0.93344   0.40042   0.00000  Uiso   1.00
C323   C     0.15158   0.19254   0.07242   0.00000  Uiso   1.00
C324   C     0.17472   0.22189   0.15351   0.00000  Uiso   1.00
C325   C     0.19414   0.24659   0.05350   0.00000  Uiso   1.00
C326   C     0.21361   0.27131   0.15330   0.00000  Uiso   1.00
C327   C     0.24952   0.31690   0.24987   0.00000  Uiso   1.00
C328   C     0.11461   0.19788   0.15369   0.00000  Uiso   1.00
C329   C     0.08349   0.20238   0.05383   0.00000  Uiso   1.00
C330   C     0.05236   0.20687   0.15378   0.00000  Uiso   1.00
C331   C     0.99494   0.21515   0.25063   0.00000  Uiso   1.00
C332   C     0.16546   0.15783   0.15338   0.00000  Uiso   1.00
C333   C     0.17709   0.12865   0.05327   0.00000  Uiso   1.00
C334   C     0.18876   0.09942   0.15298   0.00000  Uiso   1.00
C335   C     0.21029   0.04551   0.24936   0.00000  Uiso   1.00
C336   C     0.15163   0.19251   0.42749   0.00000  Uiso   1.00
C337   C     0.17474   0.22187   0.34637   0.00000  Uiso   1.00
C338   C     0.19420   0.24656   0.44635   0.00000  Uiso   1.00
C339   C     0.21364   0.27129   0.34650   0.00000  Uiso   1.00
C340   C     0.11463   0.19786   0.34654   0.00000  Uiso   1.00
C341   C     0.08355   0.20234   0.44667   0.00000  Uiso   1.00
C342   C     0.05239   0.20685   0.34699   0.00000  Uiso   1.00
C343   C     0.16548   0.15781   0.34625   0.00000  Uiso   1.00
C344   C     0.17714   0.12861   0.44612   0.00000  Uiso   1.00
C345   C     0.18879   0.09940   0.34619   0.00000  Uiso   1.00
H346   H     0.15156   0.19255   0.92227   0.00000  Uiso   1.00
H347   H     0.19411   0.24660   0.90425   0.00000  Uiso   1.00
H348   H     0.08348   0.20239   0.90458   0.00000  Uiso   1.00
H349   H     0.17706   0.12867   0.90403   0.00000  Uiso   1.00
H350   H     0.24128   0.30652   0.96932   0.00000  Uiso   1.00
H351   H     0.00801   0.21329   0.97002   0.00000  Uiso   1.00
H352   H     0.20535   0.05784   0.96886   0.00000  Uiso   1.00
H353   H     0.15165   0.19249   0.57764   0.00000  Uiso   1.00
H354   H     0.19421   0.24654   0.59559   0.00000  Uiso   1.00
H355   H     0.08358   0.20232   0.59591   0.00000  Uiso   1.00
H356   H     0.17716   0.12861   0.59537   0.00000  Uiso   1.00
H357   H     0.24137   0.30647   0.53044   0.00000  Uiso   1.00
H358   H     0.00809   0.21323   0.53113   0.00000  Uiso   1.00
H359   H     0.20543   0.05779   0.52998   0.00000  Uiso   1.00
O360   O     0.26931   0.34205   0.24986   0.00000  Uiso   1.00
O361   O     0.96326   0.21973   0.25077   0.00000  Uiso   1.00
O362   O     0.22217   0.01579   0.24925   0.00000  Uiso   1.00
N363   N     0.23547   0.29909   0.09892   0.00000  Uiso   1.00
N364   N     0.01737   0.21192   0.09957   0.00000  Uiso   1.00
N365   N     0.20186   0.06659   0.09848   0.00000  Uiso   1.00
N366   N     0.23551   0.29906   0.40085   0.00000  Uiso   1.00
N367   N     0.01741   0.21190   0.40150   0.00000  Uiso   1.00
N368   N     0.20190   0.06656   0.40042   0.00000  Uiso   1.00
