data_job_06082
_audit_creation_date              2018-12-19
_audit_creation_method            'Materials Studio'
_symmetry_space_group_name_H-M    'P1'
_symmetry_Int_Tables_number       1
_symmetry_cell_setting            triclinic
loop_
_symmetry_equiv_pos_as_xyz
  x,y,z
_cell_length_a                    12.6717
_cell_length_b                    19.1332
_cell_length_c                    19.8423
_cell_angle_alpha                 115.2710
_cell_angle_beta                  76.0597
_cell_angle_gamma                 81.5472
loop_
_atom_site_label
_atom_site_type_symbol
_atom_site_fract_x
_atom_site_fract_y
_atom_site_fract_z
_atom_site_U_iso_or_equiv
_atom_site_adp_type
_atom_site_occupancy
C1     C     0.42494   0.15219   0.51347   0.00000  Uiso   1.00
C2     C     0.32849   0.13121   0.48259   0.00000  Uiso   1.00
C3     C     0.27226   0.07667   0.49049   0.00000  Uiso   1.00
C4     C     0.18642   0.06592   0.45813   0.00000  Uiso   1.00
C5     C     0.04102   0.02689   0.41605   0.00000  Uiso   1.00
C6     C     0.52381   0.13541   0.44188   0.00000  Uiso   1.00
C7     C     0.63182   0.08439   0.41557   0.00000  Uiso   1.00
C8     C     0.71039   0.07718   0.34894   0.00000  Uiso   1.00
C9     C     0.86827   0.04471   0.24370   0.00000  Uiso   1.00
C10    C     0.38657   0.24332   0.56692   0.00000  Uiso   1.00
C11    C     0.37920   0.28306   0.64574   0.00000  Uiso   1.00
C12    C     0.34225   0.36671   0.68439   0.00000  Uiso   1.00
C13    C     0.28703   0.50179   0.77329   0.00000  Uiso   1.00
C14    C     0.37246   0.23010   0.44195   0.00000  Uiso   1.00
C15    C     0.29999   0.17353   0.44374   0.00000  Uiso   1.00
C16    C     0.21420   0.16287   0.41137   0.00000  Uiso   1.00
C17    C     0.15785   0.10832   0.41922   0.00000  Uiso   1.00
C18    C     0.49531   0.17772   0.40304   0.00000  Uiso   1.00
C19    C     0.57375   0.17059   0.33644   0.00000  Uiso   1.00
C20    C     0.68184   0.11958   0.31003   0.00000  Uiso   1.00
C21    C     0.35806   0.28565   0.52808   0.00000  Uiso   1.00
C22    C     0.32113   0.36926   0.56661   0.00000  Uiso   1.00
C23    C     0.31370   0.40910   0.64547   0.00000  Uiso   1.00
H24    H     0.44714   0.11924   0.54371   0.00000  Uiso   1.00
H25    H     0.29436   0.04392   0.52055   0.00000  Uiso   1.00
H26    H     0.65385   0.05166   0.44564   0.00000  Uiso   1.00
H27    H     0.40127   0.25029   0.67578   0.00000  Uiso   1.00
H28    H     0.11242   0.97907   0.47772   0.00000  Uiso   1.00
H29    H     0.87045   0.99539   0.31979   0.00000  Uiso   1.00
H30    H     0.33783   0.41424   0.80507   0.00000  Uiso   1.00
H31    H     0.35027   0.26305   0.41171   0.00000  Uiso   1.00
H32    H     0.19216   0.19563   0.38131   0.00000  Uiso   1.00
H33    H     0.55166   0.20336   0.30640   0.00000  Uiso   1.00
H34    H     0.29908   0.40198   0.53653   0.00000  Uiso   1.00
H35    H     0.02948   0.10219   0.36470   0.00000  Uiso   1.00
H36    H     0.78751   0.11852   0.20677   0.00000  Uiso   1.00
H37    H     0.25489   0.53736   0.69205   0.00000  Uiso   1.00
O38    O     0.96871   0.99366   0.40357   0.00000  Uiso   1.00
O39    O     0.96322   0.01509   0.19638   0.00000  Uiso   1.00
O40    O     0.26443   0.56461   0.83306   0.00000  Uiso   1.00
N41    N     0.11458   0.01731   0.45530   0.00000  Uiso   1.00
N42    N     0.82329   0.03256   0.30764   0.00000  Uiso   1.00
N43    N     0.32536   0.42415   0.76134   0.00000  Uiso   1.00
N44    N     0.06995   0.08356   0.39449   0.00000  Uiso   1.00
N45    N     0.77866   0.09881   0.24683   0.00000  Uiso   1.00
N46    N     0.28073   0.49040   0.70052   0.00000  Uiso   1.00
C47    C     0.93983   0.48280   0.64362   0.00000  Uiso   1.00
C48    C     0.81421   0.51025   0.65602   0.00000  Uiso   1.00
C49    C     0.76843   0.50112   0.59691   0.00000  Uiso   1.00
C50    C     0.65146   0.53028   0.62039   0.00000  Uiso   1.00
C51    C     0.46685   0.56732   0.62752   0.00000  Uiso   1.00
C52    C     0.96889   0.55762   0.69558   0.00000  Uiso   1.00
C53    C     0.05318   0.58830   0.66972   0.00000  Uiso   1.00
C54    C     0.06642   0.65733   0.72651   0.00000  Uiso   1.00
C55    C     0.12201   0.76786   0.79507   0.00000  Uiso   1.00
C56    C     0.94983   0.42716   0.67988   0.00000  Uiso   1.00
C57    C     0.01810   0.34816   0.64082   0.00000  Uiso   1.00
C58    C     0.01531   0.30736   0.68439   0.00000  Uiso   1.00
C59    C     0.04130   0.21534   0.72857   0.00000  Uiso   1.00
C60    C     0.81351   0.55082   0.79045   0.00000  Uiso   1.00
C61    C     0.74560   0.54720   0.73578   0.00000  Uiso   1.00
C62    C     0.62867   0.57638   0.75936   0.00000  Uiso   1.00
C63    C     0.58272   0.56729   0.70028   0.00000  Uiso   1.00
C64    C     0.90028   0.59456   0.77533   0.00000  Uiso   1.00
C65    C     0.91341   0.66355   0.83217   0.00000  Uiso   1.00
C66    C     0.99768   0.69434   0.80641   0.00000  Uiso   1.00
C67    C     0.88121   0.46410   0.75963   0.00000  Uiso   1.00
C68    C     0.87833   0.42342   0.80327   0.00000  Uiso   1.00
C69    C     0.94658   0.34437   0.76429   0.00000  Uiso   1.00
H70    H     0.99326   0.45404   0.58153   0.00000  Uiso   1.00
H71    H     0.82156   0.47254   0.53519   0.00000  Uiso   1.00
H72    H     0.10627   0.55969   0.60800   0.00000  Uiso   1.00
H73    H     0.07119   0.31959   0.57910   0.00000  Uiso   1.00
H74    H     0.60095   0.50936   0.51899   0.00000  Uiso   1.00
H75    H     0.20129   0.69312   0.67252   0.00000  Uiso   1.00
H76    H     0.12733   0.18682   0.61158   0.00000  Uiso   1.00
H77    H     0.76009   0.57959   0.85255   0.00000  Uiso   1.00
H78    H     0.57559   0.60496   0.82108   0.00000  Uiso   1.00
H79    H     0.86030   0.69212   0.89389   0.00000  Uiso   1.00
H80    H     0.82522   0.45202   0.86499   0.00000  Uiso   1.00
H81    H     0.40131   0.61684   0.75103   0.00000  Uiso   1.00
H82    H     0.00166   0.80061   0.90455   0.00000  Uiso   1.00
H83    H     0.92769   0.29431   0.84362   0.00000  Uiso   1.00
O84    O     0.38397   0.57755   0.60942   0.00000  Uiso   1.00
O85    O     0.17161   0.81863   0.81084   0.00000  Uiso   1.00
O86    O     0.07457   0.15438   0.73090   0.00000  Uiso   1.00
N87    N     0.57928   0.53116   0.57792   0.00000  Uiso   1.00
N88    N     0.14056   0.70297   0.72145   0.00000  Uiso   1.00
N89    N     0.07143   0.22963   0.66449   0.00000  Uiso   1.00
N90    N     0.47186   0.58899   0.70278   0.00000  Uiso   1.00
N91    N     0.03313   0.76081   0.84631   0.00000  Uiso   1.00
N92    N     0.96400   0.28747   0.78935   0.00000  Uiso   1.00
C93    C     0.58709   0.35348   0.84154   0.00000  Uiso   1.00
C94    C     0.47265   0.33628   0.85876   0.00000  Uiso   1.00
C95    C     0.36927   0.39341   0.90921   0.00000  Uiso   1.00
C96    C     0.27428   0.36551   0.91698   0.00000  Uiso   1.00
C97    C     0.09535   0.35129   0.95002   0.00000  Uiso   1.00
C98    C     0.66367   0.30197   0.86193   0.00000  Uiso   1.00
C99    C     0.72090   0.33025   0.91504   0.00000  Uiso   1.00
C100   C     0.78672   0.27345   0.92547   0.00000  Uiso   1.00
C101   C     0.90440   0.20594   0.96339   0.00000  Uiso   1.00
C102   C     0.63531   0.31862   0.75191   0.00000  Uiso   1.00
C103   C     0.66874   0.36089   0.71250   0.00000  Uiso   1.00
C104   C     0.71070   0.31811   0.63029   0.00000  Uiso   1.00
C105   C     0.78436   0.27646   0.49738   0.00000  Uiso   1.00
C106   C     0.60221   0.20234   0.76561   0.00000  Uiso   1.00
C107   C     0.48087   0.25419   0.81752   0.00000  Uiso   1.00
C108   C     0.38600   0.22619   0.82521   0.00000  Uiso   1.00
C109   C     0.28250   0.28327   0.87566   0.00000  Uiso   1.00
C110   C     0.67188   0.21987   0.82070   0.00000  Uiso   1.00
C111   C     0.73763   0.16302   0.83104   0.00000  Uiso   1.00
C112   C     0.79495   0.19120   0.88415   0.00000  Uiso   1.00
C113   C     0.64352   0.23652   0.71066   0.00000  Uiso   1.00
C114   C     0.68546   0.19367   0.62850   0.00000  Uiso   1.00
C115   C     0.71893   0.23587   0.58897   0.00000  Uiso   1.00
H116   H     0.58070   0.41740   0.87365   0.00000  Uiso   1.00
H117   H     0.36295   0.45694   0.94112   0.00000  Uiso   1.00
H118   H     0.71454   0.39378   0.94694   0.00000  Uiso   1.00
H119   H     0.66237   0.42442   0.74444   0.00000  Uiso   1.00
H120   H     0.12517   0.46458   0.99776   0.00000  Uiso   1.00
H121   H     0.86654   0.33139   0.01002   0.00000  Uiso   1.00
H122   H     0.75653   0.39601   0.58299   0.00000  Uiso   1.00
H123   H     0.60861   0.13842   0.73351   0.00000  Uiso   1.00
H124   H     0.39239   0.16265   0.79329   0.00000  Uiso   1.00
H125   H     0.74397   0.09949   0.79911   0.00000  Uiso   1.00
H126   H     0.69180   0.13014   0.59660   0.00000  Uiso   1.00
H127   H     0.14906   0.22572   0.87778   0.00000  Uiso   1.00
H128   H     0.89043   0.09254   0.89003   0.00000  Uiso   1.00
H129   H     0.78042   0.15715   0.46300   0.00000  Uiso   1.00
O130   O     0.99438   0.36612   0.97964   0.00000  Uiso   1.00
O131   O     0.96704   0.19139   0.99571   0.00000  Uiso   1.00
O132   O     0.82271   0.27617   0.43546   0.00000  Uiso   1.00
N133   N     0.16046   0.40504   0.96131   0.00000  Uiso   1.00
N134   N     0.85358   0.28052   0.97277   0.00000  Uiso   1.00
N135   N     0.75077   0.34093   0.57354   0.00000  Uiso   1.00
N136   N     0.17332   0.27651   0.89674   0.00000  Uiso   1.00
N137   N     0.86644   0.15200   0.90821   0.00000  Uiso   1.00
N138   N     0.76362   0.21240   0.50897   0.00000  Uiso   1.00
C139   C     0.57506   0.84781   0.48653   0.00000  Uiso   1.00
C140   C     0.67151   0.86879   0.51741   0.00000  Uiso   1.00
C141   C     0.72774   0.92333   0.50951   0.00000  Uiso   1.00
C142   C     0.81359   0.93408   0.54187   0.00000  Uiso   1.00
C143   C     0.95898   0.97311   0.58395   0.00000  Uiso   1.00
C144   C     0.47619   0.86459   0.55812   0.00000  Uiso   1.00
C145   C     0.36818   0.91561   0.58444   0.00000  Uiso   1.00
C146   C     0.28961   0.92282   0.65106   0.00000  Uiso   1.00
C147   C     0.13173   0.95529   0.75630   0.00000  Uiso   1.00
C148   C     0.61343   0.75668   0.43308   0.00000  Uiso   1.00
C149   C     0.62080   0.71694   0.35426   0.00000  Uiso   1.00
C150   C     0.65775   0.63329   0.31561   0.00000  Uiso   1.00
C151   C     0.71297   0.49821   0.22671   0.00000  Uiso   1.00
C152   C     0.62754   0.76990   0.55805   0.00000  Uiso   1.00
C153   C     0.70001   0.82647   0.55626   0.00000  Uiso   1.00
C154   C     0.78580   0.83713   0.58864   0.00000  Uiso   1.00
C155   C     0.84215   0.89168   0.58078   0.00000  Uiso   1.00
C156   C     0.50469   0.82228   0.59697   0.00000  Uiso   1.00
C157   C     0.42625   0.82941   0.66356   0.00000  Uiso   1.00
C158   C     0.31816   0.88042   0.68997   0.00000  Uiso   1.00
C159   C     0.64194   0.71435   0.47192   0.00000  Uiso   1.00
C160   C     0.67887   0.63075   0.43339   0.00000  Uiso   1.00
C161   C     0.68630   0.59090   0.35453   0.00000  Uiso   1.00
H162   H     0.55286   0.88076   0.45629   0.00000  Uiso   1.00
H163   H     0.70564   0.95608   0.47945   0.00000  Uiso   1.00
H164   H     0.34615   0.94834   0.55436   0.00000  Uiso   1.00
H165   H     0.59873   0.74971   0.32422   0.00000  Uiso   1.00
H166   H     0.88758   0.02094   0.52228   0.00000  Uiso   1.00
H167   H     0.12955   0.00461   0.68021   0.00000  Uiso   1.00
H168   H     0.66217   0.58576   0.19493   0.00000  Uiso   1.00
H169   H     0.64973   0.73695   0.58829   0.00000  Uiso   1.00
H170   H     0.80784   0.80437   0.61869   0.00000  Uiso   1.00
H171   H     0.44834   0.79664   0.69360   0.00000  Uiso   1.00
H172   H     0.70092   0.59802   0.46347   0.00000  Uiso   1.00
H173   H     0.97052   0.89781   0.63530   0.00000  Uiso   1.00
H174   H     0.21249   0.88148   0.79323   0.00000  Uiso   1.00
H175   H     0.74511   0.46264   0.30795   0.00000  Uiso   1.00
O176   O     0.03129   0.00634   0.59643   0.00000  Uiso   1.00
O177   O     0.03678   0.98491   0.80362   0.00000  Uiso   1.00
O178   O     0.73557   0.43539   0.16694   0.00000  Uiso   1.00
N179   N     0.88542   0.98269   0.54470   0.00000  Uiso   1.00
N180   N     0.17671   0.96744   0.69236   0.00000  Uiso   1.00
N181   N     0.67464   0.57585   0.23866   0.00000  Uiso   1.00
N182   N     0.93005   0.91644   0.60551   0.00000  Uiso   1.00
N183   N     0.22134   0.90119   0.75317   0.00000  Uiso   1.00
N184   N     0.71927   0.50960   0.29948   0.00000  Uiso   1.00
C185   C     0.06017   0.51720   0.35638   0.00000  Uiso   1.00
C186   C     0.18579   0.48975   0.34398   0.00000  Uiso   1.00
C187   C     0.23157   0.49888   0.40309   0.00000  Uiso   1.00
C188   C     0.34854   0.46972   0.37961   0.00000  Uiso   1.00
C189   C     0.53315   0.43268   0.37248   0.00000  Uiso   1.00
C190   C     0.03111   0.44238   0.30442   0.00000  Uiso   1.00
C191   C     0.94682   0.41170   0.33028   0.00000  Uiso   1.00
C192   C     0.93358   0.34267   0.27349   0.00000  Uiso   1.00
C193   C     0.87799   0.23214   0.20493   0.00000  Uiso   1.00
C194   C     0.05017   0.57284   0.32012   0.00000  Uiso   1.00
C195   C     0.98190   0.65184   0.35918   0.00000  Uiso   1.00
C196   C     0.98469   0.69264   0.31561   0.00000  Uiso   1.00
C197   C     0.95870   0.78466   0.27144   0.00000  Uiso   1.00
C198   C     0.18649   0.44918   0.20955   0.00000  Uiso   1.00
C199   C     0.25440   0.45280   0.26422   0.00000  Uiso   1.00
C200   C     0.37133   0.42363   0.24064   0.00000  Uiso   1.00
C201   C     0.41728   0.43271   0.29972   0.00000  Uiso   1.00
C202   C     0.09972   0.40544   0.22467   0.00000  Uiso   1.00
C203   C     0.08659   0.33645   0.16783   0.00000  Uiso   1.00
C204   C     0.00232   0.30566   0.19359   0.00000  Uiso   1.00
C205   C     0.11879   0.53590   0.24037   0.00000  Uiso   1.00
C206   C     0.12167   0.57658   0.19673   0.00000  Uiso   1.00
C207   C     0.05342   0.65563   0.23571   0.00000  Uiso   1.00
H208   H     0.00674   0.54596   0.41847   0.00000  Uiso   1.00
H209   H     0.17844   0.52747   0.46481   0.00000  Uiso   1.00
H210   H     0.89373   0.44031   0.39200   0.00000  Uiso   1.00
H211   H     0.92881   0.68041   0.42090   0.00000  Uiso   1.00
H212   H     0.39905   0.49065   0.48101   0.00000  Uiso   1.00
H213   H     0.79871   0.30688   0.32748   0.00000  Uiso   1.00
H214   H     0.87267   0.81318   0.38842   0.00000  Uiso   1.00
H215   H     0.23991   0.42042   0.14745   0.00000  Uiso   1.00
H216   H     0.42441   0.39504   0.17892   0.00000  Uiso   1.00
H217   H     0.13970   0.30788   0.10611   0.00000  Uiso   1.00
H218   H     0.17478   0.54798   0.13501   0.00000  Uiso   1.00
H219   H     0.59869   0.38316   0.24897   0.00000  Uiso   1.00
H220   H     0.99834   0.19939   0.09545   0.00000  Uiso   1.00
H221   H     0.07231   0.70569   0.15638   0.00000  Uiso   1.00
O222   O     0.61603   0.42245   0.39058   0.00000  Uiso   1.00
O223   O     0.82839   0.18137   0.18916   0.00000  Uiso   1.00
O224   O     0.92543   0.84562   0.26911   0.00000  Uiso   1.00
N225   N     0.42072   0.46885   0.42208   0.00000  Uiso   1.00
N226   N     0.85944   0.29703   0.27855   0.00000  Uiso   1.00
N227   N     0.92857   0.77037   0.33551   0.00000  Uiso   1.00
N228   N     0.52814   0.41101   0.29722   0.00000  Uiso   1.00
N229   N     0.96687   0.23919   0.15369   0.00000  Uiso   1.00
N230   N     0.03600   0.71253   0.21065   0.00000  Uiso   1.00
C231   C     0.41291   0.64652   0.15846   0.00000  Uiso   1.00
C232   C     0.52735   0.66372   0.14124   0.00000  Uiso   1.00
C233   C     0.63073   0.60659   0.09079   0.00000  Uiso   1.00
C234   C     0.72572   0.63449   0.08302   0.00000  Uiso   1.00
C235   C     0.90466   0.64871   0.04998   0.00000  Uiso   1.00
C236   C     0.33633   0.69803   0.13807   0.00000  Uiso   1.00
C237   C     0.27910   0.66975   0.08496   0.00000  Uiso   1.00
C238   C     0.21328   0.72655   0.07453   0.00000  Uiso   1.00
C239   C     0.09560   0.79406   0.03661   0.00000  Uiso   1.00
C240   C     0.36469   0.68138   0.24809   0.00000  Uiso   1.00
C241   C     0.33126   0.63911   0.28750   0.00000  Uiso   1.00
C242   C     0.28930   0.68189   0.36971   0.00000  Uiso   1.00
C243   C     0.21564   0.72354   0.50262   0.00000  Uiso   1.00
C244   C     0.39779   0.79766   0.23439   0.00000  Uiso   1.00
C245   C     0.51913   0.74581   0.18248   0.00000  Uiso   1.00
C246   C     0.61400   0.77381   0.17479   0.00000  Uiso   1.00
C247   C     0.71750   0.71673   0.12434   0.00000  Uiso   1.00
C248   C     0.32812   0.78013   0.17930   0.00000  Uiso   1.00
C249   C     0.26237   0.83698   0.16896   0.00000  Uiso   1.00
C250   C     0.20505   0.80880   0.11585   0.00000  Uiso   1.00
C251   C     0.35648   0.76348   0.28934   0.00000  Uiso   1.00
C252   C     0.31454   0.80633   0.37150   0.00000  Uiso   1.00
C253   C     0.28107   0.76413   0.41103   0.00000  Uiso   1.00
H254   H     0.41930   0.58260   0.12635   0.00000  Uiso   1.00
H255   H     0.63705   0.54306   0.05888   0.00000  Uiso   1.00
H256   H     0.28546   0.60622   0.05306   0.00000  Uiso   1.00
H257   H     0.33763   0.57558   0.25556   0.00000  Uiso   1.00
H258   H     0.87483   0.53542   0.00224   0.00000  Uiso   1.00
H259   H     0.13346   0.66861   0.98998   0.00000  Uiso   1.00
H260   H     0.24347   0.60399   0.41701   0.00000  Uiso   1.00
H261   H     0.39139   0.86158   0.26649   0.00000  Uiso   1.00
H262   H     0.60761   0.83735   0.20672   0.00000  Uiso   1.00
H263   H     0.25603   0.90051   0.20089   0.00000  Uiso   1.00
H264   H     0.30820   0.86986   0.40340   0.00000  Uiso   1.00
H265   H     0.85094   0.77428   0.12222   0.00000  Uiso   1.00
H266   H     0.10957   0.90746   0.10997   0.00000  Uiso   1.00
H267   H     0.21958   0.84285   0.53700   0.00000  Uiso   1.00
O268   O     0.00562   0.63388   0.02036   0.00000  Uiso   1.00
O269   O     0.03296   0.80861   0.00429   0.00000  Uiso   1.00
O270   O     0.17729   0.72383   0.56454   0.00000  Uiso   1.00
N271   N     0.83954   0.59496   0.03869   0.00000  Uiso   1.00
N272   N     0.14642   0.71948   0.02723   0.00000  Uiso   1.00
N273   N     0.24923   0.65907   0.42646   0.00000  Uiso   1.00
N274   N     0.82668   0.72349   0.10326   0.00000  Uiso   1.00
N275   N     0.13356   0.84801   0.09179   0.00000  Uiso   1.00
N276   N     0.23638   0.78760   0.49103   0.00000  Uiso   1.00
