data_job_01661
_audit_creation_date              2018-12-19
_audit_creation_method            'Materials Studio'
_symmetry_space_group_name_H-M    'P1'
_symmetry_Int_Tables_number       1
_symmetry_cell_setting            triclinic
loop_
_symmetry_equiv_pos_as_xyz
  x,y,z
_cell_length_a                    33.2241
_cell_length_b                    11.0124
_cell_length_c                    26.3915
_cell_angle_alpha                 90.0000
_cell_angle_beta                  141.4877
_cell_angle_gamma                 90.0000
loop_
_atom_site_label
_atom_site_type_symbol
_atom_site_fract_x
_atom_site_fract_y
_atom_site_fract_z
_atom_site_U_iso_or_equiv
_atom_site_adp_type
_atom_site_occupancy
C1     C     0.49423   0.26667   0.34872   0.00000  Uiso   1.00
C2     C     0.42674   0.29883   0.26327   0.00000  Uiso   1.00
C3     C     0.41190   0.39112   0.21479   0.00000  Uiso   1.00
C4     C     0.34722   0.40598   0.13848   0.00000  Uiso   1.00
C5     C     0.24973   0.46733   0.00990   0.00000  Uiso   1.00
C6     C     0.49108   0.27387   0.40326   0.00000  Uiso   1.00
C7     C     0.53034   0.34516   0.47248   0.00000  Uiso   1.00
C8     C     0.51983   0.33898   0.51403   0.00000  Uiso   1.00
C9     C     0.52226   0.36150   0.60281   0.00000  Uiso   1.00
C10    C     0.50426   0.13294   0.34583   0.00000  Uiso   1.00
C11    C     0.55460   0.08573   0.36680   0.00000  Uiso   1.00
C12    C     0.55519   0.96089   0.36001   0.00000  Uiso   1.00
C13    C     0.57807   0.76461   0.35963   0.00000  Uiso   1.00
C14    C     0.40577   0.12893   0.29941   0.00000  Uiso   1.00
C15    C     0.37869   0.22401   0.23650   0.00000  Uiso   1.00
C16    C     0.31402   0.23872   0.16024   0.00000  Uiso   1.00
C17    C     0.29908   0.33102   0.11165   0.00000  Uiso   1.00
C18    C     0.44303   0.19905   0.37648   0.00000  Uiso   1.00
C19    C     0.43246   0.19276   0.41794   0.00000  Uiso   1.00
C20    C     0.47169   0.26402   0.48720   0.00000  Uiso   1.00
C21    C     0.45621   0.05812   0.31905   0.00000  Uiso   1.00
C22    C     0.45672   0.93333   0.31224   0.00000  Uiso   1.00
C23    C     0.50705   0.88594   0.33318   0.00000  Uiso   1.00
H24    H     0.53164   0.32492   0.36957   0.00000  Uiso   1.00
H25    H     0.44909   0.44901   0.23554   0.00000  Uiso   1.00
H26    H     0.56752   0.40304   0.49320   0.00000  Uiso   1.00
H27    H     0.59177   0.14366   0.38752   0.00000  Uiso   1.00
H28    H     0.33638   0.55362   0.07514   0.00000  Uiso   1.00
H29    H     0.58611   0.45665   0.61844   0.00000  Uiso   1.00
H30    H     0.63725   0.90969   0.39560   0.00000  Uiso   1.00
H31    H     0.36836   0.07068   0.27857   0.00000  Uiso   1.00
H32    H     0.27685   0.18081   0.13953   0.00000  Uiso   1.00
H33    H     0.39528   0.13484   0.39720   0.00000  Uiso   1.00
H34    H     0.41953   0.87546   0.29152   0.00000  Uiso   1.00
H35    H     0.19658   0.33594   0.99722   0.00000  Uiso   1.00
H36    H     0.44631   0.23897   0.54053   0.00000  Uiso   1.00
H37    H     0.49745   0.69201   0.31768   0.00000  Uiso   1.00
O38    O     0.20922   0.52185   0.94637   0.00000  Uiso   1.00
O39    O     0.53687   0.39461   0.65918   0.00000  Uiso   1.00
O40    O     0.60396   0.67702   0.36681   0.00000  Uiso   1.00
N41    N     0.31604   0.48726   0.07587   0.00000  Uiso   1.00
N42    N     0.54951   0.39661   0.58383   0.00000  Uiso   1.00
N43    N     0.59734   0.88525   0.37551   0.00000  Uiso   1.00
N44    N     0.24081   0.37013   0.03395   0.00000  Uiso   1.00
N45    N     0.47429   0.27948   0.54190   0.00000  Uiso   1.00
N46    N     0.52211   0.76812   0.33358   0.00000  Uiso   1.00
C47    C     0.99423   0.76667   0.34872   0.00000  Uiso   1.00
C48    C     0.92674   0.79883   0.26327   0.00000  Uiso   1.00
C49    C     0.91190   0.89112   0.21479   0.00000  Uiso   1.00
C50    C     0.84722   0.90598   0.13848   0.00000  Uiso   1.00
C51    C     0.74973   0.96733   0.00990   0.00000  Uiso   1.00
C52    C     0.99108   0.77387   0.40326   0.00000  Uiso   1.00
C53    C     0.03034   0.84516   0.47248   0.00000  Uiso   1.00
C54    C     0.01983   0.83898   0.51403   0.00000  Uiso   1.00
C55    C     0.02226   0.86150   0.60281   0.00000  Uiso   1.00
C56    C     0.00426   0.63294   0.34583   0.00000  Uiso   1.00
C57    C     0.05460   0.58573   0.36680   0.00000  Uiso   1.00
C58    C     0.05519   0.46089   0.36001   0.00000  Uiso   1.00
C59    C     0.07807   0.26461   0.35963   0.00000  Uiso   1.00
C60    C     0.90577   0.62893   0.29941   0.00000  Uiso   1.00
C61    C     0.87869   0.72401   0.23650   0.00000  Uiso   1.00
C62    C     0.81402   0.73872   0.16024   0.00000  Uiso   1.00
C63    C     0.79908   0.83102   0.11165   0.00000  Uiso   1.00
C64    C     0.94303   0.69905   0.37648   0.00000  Uiso   1.00
C65    C     0.93246   0.69276   0.41794   0.00000  Uiso   1.00
C66    C     0.97169   0.76402   0.48720   0.00000  Uiso   1.00
C67    C     0.95621   0.55812   0.31905   0.00000  Uiso   1.00
C68    C     0.95672   0.43333   0.31224   0.00000  Uiso   1.00
C69    C     0.00705   0.38594   0.33318   0.00000  Uiso   1.00
H70    H     0.03164   0.82492   0.36957   0.00000  Uiso   1.00
H71    H     0.94909   0.94901   0.23554   0.00000  Uiso   1.00
H72    H     0.06752   0.90304   0.49320   0.00000  Uiso   1.00
H73    H     0.09177   0.64366   0.38752   0.00000  Uiso   1.00
H74    H     0.83638   0.05362   0.07514   0.00000  Uiso   1.00
H75    H     0.08611   0.95665   0.61844   0.00000  Uiso   1.00
H76    H     0.13725   0.40969   0.39560   0.00000  Uiso   1.00
H77    H     0.86836   0.57068   0.27857   0.00000  Uiso   1.00
H78    H     0.77685   0.68081   0.13953   0.00000  Uiso   1.00
H79    H     0.89528   0.63484   0.39720   0.00000  Uiso   1.00
H80    H     0.91953   0.37546   0.29152   0.00000  Uiso   1.00
H81    H     0.69658   0.83594   0.99722   0.00000  Uiso   1.00
H82    H     0.94631   0.73897   0.54053   0.00000  Uiso   1.00
H83    H     0.99745   0.19201   0.31768   0.00000  Uiso   1.00
O84    O     0.70922   0.02185   0.94637   0.00000  Uiso   1.00
O85    O     0.03687   0.89461   0.65918   0.00000  Uiso   1.00
O86    O     0.10396   0.17702   0.36681   0.00000  Uiso   1.00
N87    N     0.81604   0.98726   0.07587   0.00000  Uiso   1.00
N88    N     0.04951   0.89661   0.58383   0.00000  Uiso   1.00
N89    N     0.09734   0.38525   0.37551   0.00000  Uiso   1.00
N90    N     0.74081   0.87013   0.03395   0.00000  Uiso   1.00
N91    N     0.97429   0.77948   0.54190   0.00000  Uiso   1.00
N92    N     0.02211   0.26812   0.33358   0.00000  Uiso   1.00
C93    C     0.50577   0.26667   0.15128   0.00000  Uiso   1.00
C94    C     0.57326   0.29883   0.23673   0.00000  Uiso   1.00
C95    C     0.58810   0.39112   0.28521   0.00000  Uiso   1.00
C96    C     0.65278   0.40598   0.36152   0.00000  Uiso   1.00
C97    C     0.75027   0.46733   0.49010   0.00000  Uiso   1.00
C98    C     0.50892   0.27387   0.09674   0.00000  Uiso   1.00
C99    C     0.46966   0.34516   0.02752   0.00000  Uiso   1.00
C100   C     0.48017   0.33898   0.98597   0.00000  Uiso   1.00
C101   C     0.47774   0.36150   0.89719   0.00000  Uiso   1.00
C102   C     0.49574   0.13294   0.15417   0.00000  Uiso   1.00
C103   C     0.44540   0.08573   0.13320   0.00000  Uiso   1.00
C104   C     0.44481   0.96089   0.13999   0.00000  Uiso   1.00
C105   C     0.42193   0.76461   0.14037   0.00000  Uiso   1.00
C106   C     0.59423   0.12893   0.20059   0.00000  Uiso   1.00
C107   C     0.62131   0.22401   0.26350   0.00000  Uiso   1.00
C108   C     0.68598   0.23872   0.33976   0.00000  Uiso   1.00
C109   C     0.70092   0.33102   0.38835   0.00000  Uiso   1.00
C110   C     0.55697   0.19905   0.12352   0.00000  Uiso   1.00
C111   C     0.56754   0.19276   0.08206   0.00000  Uiso   1.00
C112   C     0.52831   0.26402   0.01280   0.00000  Uiso   1.00
C113   C     0.54379   0.05812   0.18095   0.00000  Uiso   1.00
C114   C     0.54328   0.93333   0.18776   0.00000  Uiso   1.00
C115   C     0.49295   0.88594   0.16682   0.00000  Uiso   1.00
H116   H     0.46836   0.32492   0.13043   0.00000  Uiso   1.00
H117   H     0.55091   0.44901   0.26446   0.00000  Uiso   1.00
H118   H     0.43248   0.40304   0.00680   0.00000  Uiso   1.00
H119   H     0.40823   0.14366   0.11248   0.00000  Uiso   1.00
H120   H     0.66362   0.55362   0.42486   0.00000  Uiso   1.00
H121   H     0.41389   0.45665   0.88156   0.00000  Uiso   1.00
H122   H     0.36275   0.90969   0.10440   0.00000  Uiso   1.00
H123   H     0.63164   0.07068   0.22143   0.00000  Uiso   1.00
H124   H     0.72315   0.18081   0.36047   0.00000  Uiso   1.00
H125   H     0.60472   0.13484   0.10280   0.00000  Uiso   1.00
H126   H     0.58047   0.87546   0.20848   0.00000  Uiso   1.00
H127   H     0.80342   0.33594   0.50278   0.00000  Uiso   1.00
H128   H     0.55369   0.23897   0.95947   0.00000  Uiso   1.00
H129   H     0.50255   0.69201   0.18232   0.00000  Uiso   1.00
O130   O     0.79078   0.52185   0.55363   0.00000  Uiso   1.00
O131   O     0.46313   0.39461   0.84082   0.00000  Uiso   1.00
O132   O     0.39604   0.67702   0.13319   0.00000  Uiso   1.00
N133   N     0.68396   0.48726   0.42413   0.00000  Uiso   1.00
N134   N     0.45049   0.39661   0.91617   0.00000  Uiso   1.00
N135   N     0.40266   0.88525   0.12449   0.00000  Uiso   1.00
N136   N     0.75919   0.37013   0.46605   0.00000  Uiso   1.00
N137   N     0.52571   0.27948   0.95810   0.00000  Uiso   1.00
N138   N     0.47789   0.76812   0.16642   0.00000  Uiso   1.00
C139   C     0.00577   0.76667   0.15128   0.00000  Uiso   1.00
C140   C     0.07326   0.79883   0.23673   0.00000  Uiso   1.00
C141   C     0.08810   0.89112   0.28521   0.00000  Uiso   1.00
C142   C     0.15278   0.90598   0.36152   0.00000  Uiso   1.00
C143   C     0.25027   0.96733   0.49010   0.00000  Uiso   1.00
C144   C     0.00892   0.77387   0.09674   0.00000  Uiso   1.00
C145   C     0.96966   0.84516   0.02752   0.00000  Uiso   1.00
C146   C     0.98017   0.83898   0.98597   0.00000  Uiso   1.00
C147   C     0.97774   0.86150   0.89719   0.00000  Uiso   1.00
C148   C     0.99574   0.63294   0.15417   0.00000  Uiso   1.00
C149   C     0.94540   0.58573   0.13320   0.00000  Uiso   1.00
C150   C     0.94481   0.46089   0.13999   0.00000  Uiso   1.00
C151   C     0.92193   0.26461   0.14037   0.00000  Uiso   1.00
C152   C     0.09423   0.62893   0.20059   0.00000  Uiso   1.00
C153   C     0.12131   0.72401   0.26350   0.00000  Uiso   1.00
C154   C     0.18598   0.73872   0.33976   0.00000  Uiso   1.00
C155   C     0.20092   0.83102   0.38835   0.00000  Uiso   1.00
C156   C     0.05697   0.69905   0.12352   0.00000  Uiso   1.00
C157   C     0.06754   0.69276   0.08206   0.00000  Uiso   1.00
C158   C     0.02831   0.76402   0.01280   0.00000  Uiso   1.00
C159   C     0.04379   0.55812   0.18095   0.00000  Uiso   1.00
C160   C     0.04328   0.43333   0.18776   0.00000  Uiso   1.00
C161   C     0.99295   0.38594   0.16682   0.00000  Uiso   1.00
H162   H     0.96836   0.82492   0.13043   0.00000  Uiso   1.00
H163   H     0.05091   0.94901   0.26446   0.00000  Uiso   1.00
H164   H     0.93248   0.90304   0.00680   0.00000  Uiso   1.00
H165   H     0.90823   0.64366   0.11248   0.00000  Uiso   1.00
H166   H     0.16362   0.05362   0.42486   0.00000  Uiso   1.00
H167   H     0.91389   0.95665   0.88156   0.00000  Uiso   1.00
H168   H     0.86275   0.40969   0.10440   0.00000  Uiso   1.00
H169   H     0.13164   0.57068   0.22143   0.00000  Uiso   1.00
H170   H     0.22315   0.68081   0.36047   0.00000  Uiso   1.00
H171   H     0.10472   0.63484   0.10280   0.00000  Uiso   1.00
H172   H     0.08047   0.37546   0.20848   0.00000  Uiso   1.00
H173   H     0.30342   0.83594   0.50278   0.00000  Uiso   1.00
H174   H     0.05369   0.73897   0.95947   0.00000  Uiso   1.00
H175   H     0.00255   0.19201   0.18232   0.00000  Uiso   1.00
O176   O     0.29078   0.02185   0.55363   0.00000  Uiso   1.00
O177   O     0.96313   0.89461   0.84082   0.00000  Uiso   1.00
O178   O     0.89604   0.17702   0.13319   0.00000  Uiso   1.00
N179   N     0.18396   0.98726   0.42413   0.00000  Uiso   1.00
N180   N     0.95049   0.89661   0.91617   0.00000  Uiso   1.00
N181   N     0.90266   0.38525   0.12449   0.00000  Uiso   1.00
N182   N     0.25919   0.87013   0.46605   0.00000  Uiso   1.00
N183   N     0.02571   0.77948   0.95810   0.00000  Uiso   1.00
N184   N     0.97789   0.26812   0.16642   0.00000  Uiso   1.00
C185   C     0.50577   0.73333   0.65128   0.00000  Uiso   1.00
C186   C     0.57326   0.70117   0.73673   0.00000  Uiso   1.00
C187   C     0.58810   0.60888   0.78521   0.00000  Uiso   1.00
C188   C     0.65278   0.59402   0.86152   0.00000  Uiso   1.00
C189   C     0.75027   0.53267   0.99010   0.00000  Uiso   1.00
C190   C     0.50892   0.72613   0.59674   0.00000  Uiso   1.00
C191   C     0.46966   0.65484   0.52752   0.00000  Uiso   1.00
C192   C     0.48017   0.66102   0.48597   0.00000  Uiso   1.00
C193   C     0.47774   0.63850   0.39719   0.00000  Uiso   1.00
C194   C     0.49574   0.86706   0.65417   0.00000  Uiso   1.00
C195   C     0.44540   0.91427   0.63320   0.00000  Uiso   1.00
C196   C     0.44481   0.03911   0.63999   0.00000  Uiso   1.00
C197   C     0.42193   0.23539   0.64037   0.00000  Uiso   1.00
C198   C     0.59423   0.87107   0.70059   0.00000  Uiso   1.00
C199   C     0.62131   0.77599   0.76350   0.00000  Uiso   1.00
C200   C     0.68598   0.76128   0.83976   0.00000  Uiso   1.00
C201   C     0.70092   0.66898   0.88835   0.00000  Uiso   1.00
C202   C     0.55697   0.80095   0.62352   0.00000  Uiso   1.00
C203   C     0.56754   0.80724   0.58206   0.00000  Uiso   1.00
C204   C     0.52831   0.73598   0.51280   0.00000  Uiso   1.00
C205   C     0.54379   0.94188   0.68095   0.00000  Uiso   1.00
C206   C     0.54328   0.06667   0.68776   0.00000  Uiso   1.00
C207   C     0.49295   0.11406   0.66682   0.00000  Uiso   1.00
H208   H     0.46836   0.67508   0.63043   0.00000  Uiso   1.00
H209   H     0.55091   0.55099   0.76446   0.00000  Uiso   1.00
H210   H     0.43248   0.59696   0.50680   0.00000  Uiso   1.00
H211   H     0.40823   0.85634   0.61248   0.00000  Uiso   1.00
H212   H     0.66362   0.44638   0.92486   0.00000  Uiso   1.00
H213   H     0.41389   0.54335   0.38156   0.00000  Uiso   1.00
H214   H     0.36275   0.09031   0.60440   0.00000  Uiso   1.00
H215   H     0.63164   0.92932   0.72143   0.00000  Uiso   1.00
H216   H     0.72315   0.81919   0.86047   0.00000  Uiso   1.00
H217   H     0.60472   0.86516   0.60280   0.00000  Uiso   1.00
H218   H     0.58047   0.12454   0.70848   0.00000  Uiso   1.00
H219   H     0.80342   0.66406   0.00278   0.00000  Uiso   1.00
H220   H     0.55369   0.76103   0.45947   0.00000  Uiso   1.00
H221   H     0.50255   0.30799   0.68232   0.00000  Uiso   1.00
O222   O     0.79078   0.47815   0.05363   0.00000  Uiso   1.00
O223   O     0.46313   0.60539   0.34082   0.00000  Uiso   1.00
O224   O     0.39604   0.32298   0.63319   0.00000  Uiso   1.00
N225   N     0.68396   0.51274   0.92413   0.00000  Uiso   1.00
N226   N     0.45049   0.60339   0.41617   0.00000  Uiso   1.00
N227   N     0.40266   0.11475   0.62449   0.00000  Uiso   1.00
N228   N     0.75919   0.62987   0.96605   0.00000  Uiso   1.00
N229   N     0.52571   0.72052   0.45810   0.00000  Uiso   1.00
N230   N     0.47789   0.23188   0.66642   0.00000  Uiso   1.00
C231   C     0.00577   0.23333   0.65128   0.00000  Uiso   1.00
C232   C     0.07326   0.20117   0.73673   0.00000  Uiso   1.00
C233   C     0.08810   0.10888   0.78521   0.00000  Uiso   1.00
C234   C     0.15278   0.09402   0.86152   0.00000  Uiso   1.00
C235   C     0.25027   0.03267   0.99010   0.00000  Uiso   1.00
C236   C     0.00892   0.22613   0.59674   0.00000  Uiso   1.00
C237   C     0.96966   0.15484   0.52752   0.00000  Uiso   1.00
C238   C     0.98017   0.16102   0.48597   0.00000  Uiso   1.00
C239   C     0.97774   0.13850   0.39719   0.00000  Uiso   1.00
C240   C     0.99574   0.36706   0.65417   0.00000  Uiso   1.00
C241   C     0.94540   0.41427   0.63320   0.00000  Uiso   1.00
C242   C     0.94481   0.53911   0.63999   0.00000  Uiso   1.00
C243   C     0.92193   0.73539   0.64037   0.00000  Uiso   1.00
C244   C     0.09423   0.37107   0.70059   0.00000  Uiso   1.00
C245   C     0.12131   0.27599   0.76350   0.00000  Uiso   1.00
C246   C     0.18598   0.26128   0.83976   0.00000  Uiso   1.00
C247   C     0.20092   0.16898   0.88835   0.00000  Uiso   1.00
C248   C     0.05697   0.30095   0.62352   0.00000  Uiso   1.00
C249   C     0.06754   0.30724   0.58206   0.00000  Uiso   1.00
C250   C     0.02831   0.23598   0.51280   0.00000  Uiso   1.00
C251   C     0.04379   0.44188   0.68095   0.00000  Uiso   1.00
C252   C     0.04328   0.56667   0.68776   0.00000  Uiso   1.00
C253   C     0.99295   0.61406   0.66682   0.00000  Uiso   1.00
H254   H     0.96836   0.17508   0.63043   0.00000  Uiso   1.00
H255   H     0.05091   0.05099   0.76446   0.00000  Uiso   1.00
H256   H     0.93248   0.09696   0.50680   0.00000  Uiso   1.00
H257   H     0.90823   0.35634   0.61248   0.00000  Uiso   1.00
H258   H     0.16362   0.94638   0.92486   0.00000  Uiso   1.00
H259   H     0.91389   0.04335   0.38156   0.00000  Uiso   1.00
H260   H     0.86275   0.59031   0.60440   0.00000  Uiso   1.00
H261   H     0.13164   0.42932   0.72143   0.00000  Uiso   1.00
H262   H     0.22315   0.31919   0.86047   0.00000  Uiso   1.00
H263   H     0.10472   0.36516   0.60280   0.00000  Uiso   1.00
H264   H     0.08047   0.62454   0.70848   0.00000  Uiso   1.00
H265   H     0.30342   0.16406   0.00278   0.00000  Uiso   1.00
H266   H     0.05369   0.26103   0.45947   0.00000  Uiso   1.00
H267   H     0.00255   0.80799   0.68232   0.00000  Uiso   1.00
O268   O     0.29078   0.97815   0.05363   0.00000  Uiso   1.00
O269   O     0.96313   0.10539   0.34082   0.00000  Uiso   1.00
O270   O     0.89604   0.82298   0.63319   0.00000  Uiso   1.00
N271   N     0.18396   0.01274   0.92413   0.00000  Uiso   1.00
N272   N     0.95049   0.10339   0.41617   0.00000  Uiso   1.00
N273   N     0.90266   0.61475   0.62449   0.00000  Uiso   1.00
N274   N     0.25919   0.12987   0.96605   0.00000  Uiso   1.00
N275   N     0.02571   0.22052   0.45810   0.00000  Uiso   1.00
N276   N     0.97789   0.73188   0.66642   0.00000  Uiso   1.00
C277   C     0.49423   0.73333   0.84872   0.00000  Uiso   1.00
C278   C     0.42674   0.70117   0.76327   0.00000  Uiso   1.00
C279   C     0.41190   0.60888   0.71479   0.00000  Uiso   1.00
C280   C     0.34722   0.59402   0.63848   0.00000  Uiso   1.00
C281   C     0.24973   0.53267   0.50990   0.00000  Uiso   1.00
C282   C     0.49108   0.72613   0.90326   0.00000  Uiso   1.00
C283   C     0.53034   0.65484   0.97248   0.00000  Uiso   1.00
C284   C     0.51983   0.66102   0.01403   0.00000  Uiso   1.00
C285   C     0.52226   0.63850   0.10281   0.00000  Uiso   1.00
C286   C     0.50426   0.86706   0.84583   0.00000  Uiso   1.00
C287   C     0.55460   0.91427   0.86680   0.00000  Uiso   1.00
C288   C     0.55519   0.03911   0.86001   0.00000  Uiso   1.00
C289   C     0.57807   0.23539   0.85963   0.00000  Uiso   1.00
C290   C     0.40577   0.87107   0.79941   0.00000  Uiso   1.00
C291   C     0.37869   0.77599   0.73650   0.00000  Uiso   1.00
C292   C     0.31402   0.76128   0.66024   0.00000  Uiso   1.00
C293   C     0.29908   0.66898   0.61165   0.00000  Uiso   1.00
C294   C     0.44303   0.80095   0.87648   0.00000  Uiso   1.00
C295   C     0.43246   0.80724   0.91794   0.00000  Uiso   1.00
C296   C     0.47169   0.73598   0.98720   0.00000  Uiso   1.00
C297   C     0.45621   0.94188   0.81905   0.00000  Uiso   1.00
C298   C     0.45672   0.06667   0.81224   0.00000  Uiso   1.00
C299   C     0.50705   0.11406   0.83318   0.00000  Uiso   1.00
H300   H     0.53164   0.67508   0.86957   0.00000  Uiso   1.00
H301   H     0.44909   0.55099   0.73554   0.00000  Uiso   1.00
H302   H     0.56752   0.59696   0.99320   0.00000  Uiso   1.00
H303   H     0.59177   0.85634   0.88752   0.00000  Uiso   1.00
H304   H     0.33638   0.44638   0.57514   0.00000  Uiso   1.00
H305   H     0.58611   0.54335   0.11844   0.00000  Uiso   1.00
H306   H     0.63725   0.09031   0.89560   0.00000  Uiso   1.00
H307   H     0.36836   0.92932   0.77857   0.00000  Uiso   1.00
H308   H     0.27685   0.81919   0.63953   0.00000  Uiso   1.00
H309   H     0.39528   0.86516   0.89720   0.00000  Uiso   1.00
H310   H     0.41953   0.12454   0.79152   0.00000  Uiso   1.00
H311   H     0.19658   0.66406   0.49722   0.00000  Uiso   1.00
H312   H     0.44631   0.76103   0.04053   0.00000  Uiso   1.00
H313   H     0.49745   0.30799   0.81768   0.00000  Uiso   1.00
O314   O     0.20922   0.47815   0.44637   0.00000  Uiso   1.00
O315   O     0.53687   0.60539   0.15918   0.00000  Uiso   1.00
O316   O     0.60396   0.32298   0.86681   0.00000  Uiso   1.00
N317   N     0.31604   0.51274   0.57587   0.00000  Uiso   1.00
N318   N     0.54951   0.60339   0.08383   0.00000  Uiso   1.00
N319   N     0.59734   0.11475   0.87551   0.00000  Uiso   1.00
N320   N     0.24081   0.62987   0.53395   0.00000  Uiso   1.00
N321   N     0.47429   0.72052   0.04190   0.00000  Uiso   1.00
N322   N     0.52211   0.23188   0.83358   0.00000  Uiso   1.00
C323   C     0.99423   0.23333   0.84872   0.00000  Uiso   1.00
C324   C     0.92674   0.20117   0.76327   0.00000  Uiso   1.00
C325   C     0.91190   0.10888   0.71479   0.00000  Uiso   1.00
C326   C     0.84722   0.09402   0.63848   0.00000  Uiso   1.00
C327   C     0.74973   0.03267   0.50990   0.00000  Uiso   1.00
C328   C     0.99108   0.22613   0.90326   0.00000  Uiso   1.00
C329   C     0.03034   0.15484   0.97248   0.00000  Uiso   1.00
C330   C     0.01983   0.16102   0.01403   0.00000  Uiso   1.00
C331   C     0.02226   0.13850   0.10281   0.00000  Uiso   1.00
C332   C     0.00426   0.36706   0.84583   0.00000  Uiso   1.00
C333   C     0.05460   0.41427   0.86680   0.00000  Uiso   1.00
C334   C     0.05519   0.53911   0.86001   0.00000  Uiso   1.00
C335   C     0.07807   0.73539   0.85963   0.00000  Uiso   1.00
C336   C     0.90577   0.37107   0.79941   0.00000  Uiso   1.00
C337   C     0.87869   0.27599   0.73650   0.00000  Uiso   1.00
C338   C     0.81402   0.26128   0.66024   0.00000  Uiso   1.00
C339   C     0.79908   0.16898   0.61165   0.00000  Uiso   1.00
C340   C     0.94303   0.30095   0.87648   0.00000  Uiso   1.00
C341   C     0.93246   0.30724   0.91794   0.00000  Uiso   1.00
C342   C     0.97169   0.23598   0.98720   0.00000  Uiso   1.00
C343   C     0.95621   0.44188   0.81905   0.00000  Uiso   1.00
C344   C     0.95672   0.56667   0.81224   0.00000  Uiso   1.00
C345   C     0.00705   0.61406   0.83318   0.00000  Uiso   1.00
H346   H     0.03164   0.17508   0.86957   0.00000  Uiso   1.00
H347   H     0.94909   0.05099   0.73554   0.00000  Uiso   1.00
H348   H     0.06752   0.09696   0.99320   0.00000  Uiso   1.00
H349   H     0.09177   0.35634   0.88752   0.00000  Uiso   1.00
H350   H     0.83638   0.94638   0.57514   0.00000  Uiso   1.00
H351   H     0.08611   0.04335   0.11844   0.00000  Uiso   1.00
H352   H     0.13725   0.59031   0.89560   0.00000  Uiso   1.00
H353   H     0.86836   0.42932   0.77857   0.00000  Uiso   1.00
H354   H     0.77685   0.31919   0.63953   0.00000  Uiso   1.00
H355   H     0.89528   0.36516   0.89720   0.00000  Uiso   1.00
H356   H     0.91953   0.62454   0.79152   0.00000  Uiso   1.00
H357   H     0.69658   0.16406   0.49722   0.00000  Uiso   1.00
H358   H     0.94631   0.26103   0.04053   0.00000  Uiso   1.00
H359   H     0.99745   0.80799   0.81768   0.00000  Uiso   1.00
O360   O     0.70922   0.97815   0.44637   0.00000  Uiso   1.00
O361   O     0.03687   0.10539   0.15918   0.00000  Uiso   1.00
O362   O     0.10396   0.82298   0.86681   0.00000  Uiso   1.00
N363   N     0.81604   0.01274   0.57587   0.00000  Uiso   1.00
N364   N     0.04951   0.10339   0.08383   0.00000  Uiso   1.00
N365   N     0.09734   0.61475   0.87551   0.00000  Uiso   1.00
N366   N     0.74081   0.12987   0.53395   0.00000  Uiso   1.00
N367   N     0.97429   0.22052   0.04190   0.00000  Uiso   1.00
N368   N     0.02211   0.73188   0.83358   0.00000  Uiso   1.00
