data_job_03318
_audit_creation_date              2018-12-19
_audit_creation_method            'Materials Studio'
_symmetry_space_group_name_H-M    'P1'
_symmetry_Int_Tables_number       1
_symmetry_cell_setting            triclinic
loop_
_symmetry_equiv_pos_as_xyz
  x,y,z
_cell_length_a                    9.5752
_cell_length_b                    13.8957
_cell_length_c                    21.7473
_cell_angle_alpha                 90.0000
_cell_angle_beta                  92.1096
_cell_angle_gamma                 90.0000
loop_
_atom_site_label
_atom_site_type_symbol
_atom_site_fract_x
_atom_site_fract_y
_atom_site_fract_z
_atom_site_U_iso_or_equiv
_atom_site_adp_type
_atom_site_occupancy
C1     C     0.22263   0.68021   0.46985   0.00000  Uiso   1.00
C2     C     0.12456   0.74766   0.43367   0.00000  Uiso   1.00
C3     C     0.98024   0.75063   0.43735   0.00000  Uiso   1.00
C4     C     0.90927   0.81749   0.40048   0.00000  Uiso   1.00
C5     C     0.74619   0.91283   0.35022   0.00000  Uiso   1.00
C6     C     0.30498   0.62605   0.42213   0.00000  Uiso   1.00
C7     C     0.31238   0.52676   0.41613   0.00000  Uiso   1.00
C8     C     0.39331   0.49124   0.36956   0.00000  Uiso   1.00
C9     C     0.51043   0.39777   0.30143   0.00000  Uiso   1.00
C10    C     0.32784   0.74465   0.50439   0.00000  Uiso   1.00
C11    C     0.35449   0.74507   0.56755   0.00000  Uiso   1.00
C12    C     0.45469   0.80939   0.59023   0.00000  Uiso   1.00
C13    C     0.60730   0.90006   0.64981   0.00000  Uiso   1.00
C14    C     0.35323   0.79366   0.39782   0.00000  Uiso   1.00
C15    C     0.19550   0.80929   0.39454   0.00000  Uiso   1.00
C16    C     0.12473   0.87616   0.35766   0.00000  Uiso   1.00
C17    C     0.98033   0.87923   0.36129   0.00000  Uiso   1.00
C18    C     0.37592   0.68767   0.38301   0.00000  Uiso   1.00
C19    C     0.45687   0.65229   0.33644   0.00000  Uiso   1.00
C20    C     0.46438   0.55298   0.33036   0.00000  Uiso   1.00
C21    C     0.39878   0.80628   0.46527   0.00000  Uiso   1.00
C22    C     0.49897   0.87060   0.48785   0.00000  Uiso   1.00
C23    C     0.52576   0.87112   0.55104   0.00000  Uiso   1.00
H24    H     0.16740   0.63222   0.50031   0.00000  Uiso   1.00
H25    H     0.92537   0.70292   0.46763   0.00000  Uiso   1.00
H26    H     0.25748   0.47909   0.44642   0.00000  Uiso   1.00
H27    H     0.29957   0.69737   0.59781   0.00000  Uiso   1.00
H28    H     0.68832   0.80846   0.41413   0.00000  Uiso   1.00
H29    H     0.38862   0.33649   0.36942   0.00000  Uiso   1.00
H30    H     0.47738   0.79677   0.68866   0.00000  Uiso   1.00
H31    H     0.40846   0.84164   0.36736   0.00000  Uiso   1.00
H32    H     0.17966   0.92384   0.32738   0.00000  Uiso   1.00
H33    H     0.51176   0.70000   0.30617   0.00000  Uiso   1.00
H34    H     0.55385   0.91828   0.45756   0.00000  Uiso   1.00
H35    H     0.89470   0.98776   0.30030   0.00000  Uiso   1.00
H36    H     0.59501   0.51579   0.25559   0.00000  Uiso   1.00
H37    H     0.68376   0.97607   0.57483   0.00000  Uiso   1.00
O38    O     0.63664   0.94838   0.33330   0.00000  Uiso   1.00
O39    O     0.55542   0.32918   0.27465   0.00000  Uiso   1.00
O40    O     0.67187   0.93306   0.69349   0.00000  Uiso   1.00
N41    N     0.76830   0.83939   0.39284   0.00000  Uiso   1.00
N42    N     0.42301   0.39813   0.35103   0.00000  Uiso   1.00
N43    N     0.50603   0.82843   0.64949   0.00000  Uiso   1.00
N44    N     0.87935   0.93587   0.33158   0.00000  Uiso   1.00
N45    N     0.53407   0.49461   0.28977   0.00000  Uiso   1.00
N46    N     0.61708   0.92491   0.58824   0.00000  Uiso   1.00
C47    C     0.77737   0.18021   0.03015   0.00000  Uiso   1.00
C48    C     0.87544   0.24766   0.06633   0.00000  Uiso   1.00
C49    C     0.01976   0.25063   0.06265   0.00000  Uiso   1.00
C50    C     0.09073   0.31749   0.09952   0.00000  Uiso   1.00
C51    C     0.25381   0.41283   0.14978   0.00000  Uiso   1.00
C52    C     0.69502   0.12605   0.07787   0.00000  Uiso   1.00
C53    C     0.68762   0.02676   0.08387   0.00000  Uiso   1.00
C54    C     0.60669   0.99124   0.13044   0.00000  Uiso   1.00
C55    C     0.48957   0.89777   0.19857   0.00000  Uiso   1.00
C56    C     0.67216   0.24465   0.99561   0.00000  Uiso   1.00
C57    C     0.64551   0.24507   0.93245   0.00000  Uiso   1.00
C58    C     0.54531   0.30939   0.90977   0.00000  Uiso   1.00
C59    C     0.39270   0.40006   0.85019   0.00000  Uiso   1.00
C60    C     0.64677   0.29366   0.10218   0.00000  Uiso   1.00
C61    C     0.80450   0.30929   0.10546   0.00000  Uiso   1.00
C62    C     0.87527   0.37616   0.14234   0.00000  Uiso   1.00
C63    C     0.01967   0.37923   0.13871   0.00000  Uiso   1.00
C64    C     0.62408   0.18767   0.11699   0.00000  Uiso   1.00
C65    C     0.54313   0.15229   0.16356   0.00000  Uiso   1.00
C66    C     0.53562   0.05298   0.16964   0.00000  Uiso   1.00
C67    C     0.60122   0.30628   0.03473   0.00000  Uiso   1.00
C68    C     0.50103   0.37060   0.01215   0.00000  Uiso   1.00
C69    C     0.47424   0.37112   0.94896   0.00000  Uiso   1.00
H70    H     0.83260   0.13222   0.99969   0.00000  Uiso   1.00
H71    H     0.07463   0.20292   0.03237   0.00000  Uiso   1.00
H72    H     0.74252   0.97909   0.05358   0.00000  Uiso   1.00
H73    H     0.70043   0.19737   0.90219   0.00000  Uiso   1.00
H74    H     0.31168   0.30846   0.08587   0.00000  Uiso   1.00
H75    H     0.61138   0.83649   0.13058   0.00000  Uiso   1.00
H76    H     0.52262   0.29677   0.81134   0.00000  Uiso   1.00
H77    H     0.59154   0.34164   0.13264   0.00000  Uiso   1.00
H78    H     0.82034   0.42384   0.17262   0.00000  Uiso   1.00
H79    H     0.48824   0.20000   0.19383   0.00000  Uiso   1.00
H80    H     0.44615   0.41828   0.04244   0.00000  Uiso   1.00
H81    H     0.10530   0.48776   0.19970   0.00000  Uiso   1.00
H82    H     0.40499   0.01579   0.24441   0.00000  Uiso   1.00
H83    H     0.31624   0.47607   0.92517   0.00000  Uiso   1.00
O84    O     0.36336   0.44838   0.16670   0.00000  Uiso   1.00
O85    O     0.44458   0.82918   0.22535   0.00000  Uiso   1.00
O86    O     0.32813   0.43306   0.80651   0.00000  Uiso   1.00
N87    N     0.23170   0.33939   0.10716   0.00000  Uiso   1.00
N88    N     0.57699   0.89813   0.14897   0.00000  Uiso   1.00
N89    N     0.49397   0.32843   0.85051   0.00000  Uiso   1.00
N90    N     0.12065   0.43587   0.16842   0.00000  Uiso   1.00
N91    N     0.46593   0.99461   0.21023   0.00000  Uiso   1.00
N92    N     0.38292   0.42491   0.91176   0.00000  Uiso   1.00
C93    C     0.77737   0.31979   0.53015   0.00000  Uiso   1.00
C94    C     0.87544   0.25234   0.56633   0.00000  Uiso   1.00
C95    C     0.01976   0.24937   0.56265   0.00000  Uiso   1.00
C96    C     0.09073   0.18251   0.59952   0.00000  Uiso   1.00
C97    C     0.25381   0.08717   0.64978   0.00000  Uiso   1.00
C98    C     0.69502   0.37395   0.57787   0.00000  Uiso   1.00
C99    C     0.68762   0.47324   0.58387   0.00000  Uiso   1.00
C100   C     0.60669   0.50876   0.63044   0.00000  Uiso   1.00
C101   C     0.48957   0.60223   0.69857   0.00000  Uiso   1.00
C102   C     0.67216   0.25535   0.49561   0.00000  Uiso   1.00
C103   C     0.64551   0.25493   0.43245   0.00000  Uiso   1.00
C104   C     0.54531   0.19061   0.40977   0.00000  Uiso   1.00
C105   C     0.39270   0.09994   0.35019   0.00000  Uiso   1.00
C106   C     0.64677   0.20634   0.60218   0.00000  Uiso   1.00
C107   C     0.80450   0.19071   0.60546   0.00000  Uiso   1.00
C108   C     0.87527   0.12384   0.64234   0.00000  Uiso   1.00
C109   C     0.01967   0.12077   0.63871   0.00000  Uiso   1.00
C110   C     0.62408   0.31233   0.61699   0.00000  Uiso   1.00
C111   C     0.54313   0.34771   0.66356   0.00000  Uiso   1.00
C112   C     0.53562   0.44702   0.66964   0.00000  Uiso   1.00
C113   C     0.60122   0.19372   0.53473   0.00000  Uiso   1.00
C114   C     0.50103   0.12940   0.51215   0.00000  Uiso   1.00
C115   C     0.47424   0.12888   0.44896   0.00000  Uiso   1.00
H116   H     0.83260   0.36778   0.49969   0.00000  Uiso   1.00
H117   H     0.07463   0.29708   0.53237   0.00000  Uiso   1.00
H118   H     0.74252   0.52091   0.55358   0.00000  Uiso   1.00
H119   H     0.70043   0.30263   0.40219   0.00000  Uiso   1.00
H120   H     0.31168   0.19154   0.58587   0.00000  Uiso   1.00
H121   H     0.61138   0.66351   0.63058   0.00000  Uiso   1.00
H122   H     0.52262   0.20323   0.31134   0.00000  Uiso   1.00
H123   H     0.59154   0.15836   0.63264   0.00000  Uiso   1.00
H124   H     0.82034   0.07616   0.67262   0.00000  Uiso   1.00
H125   H     0.48824   0.30000   0.69383   0.00000  Uiso   1.00
H126   H     0.44615   0.08172   0.54244   0.00000  Uiso   1.00
H127   H     0.10530   0.01224   0.69970   0.00000  Uiso   1.00
H128   H     0.40499   0.48421   0.74441   0.00000  Uiso   1.00
H129   H     0.31624   0.02393   0.42517   0.00000  Uiso   1.00
O130   O     0.36336   0.05162   0.66670   0.00000  Uiso   1.00
O131   O     0.44458   0.67082   0.72535   0.00000  Uiso   1.00
O132   O     0.32813   0.06694   0.30651   0.00000  Uiso   1.00
N133   N     0.23170   0.16061   0.60716   0.00000  Uiso   1.00
N134   N     0.57699   0.60187   0.64897   0.00000  Uiso   1.00
N135   N     0.49397   0.17157   0.35051   0.00000  Uiso   1.00
N136   N     0.12065   0.06413   0.66842   0.00000  Uiso   1.00
N137   N     0.46593   0.50539   0.71023   0.00000  Uiso   1.00
N138   N     0.38292   0.07509   0.41176   0.00000  Uiso   1.00
C139   C     0.22263   0.81979   0.96985   0.00000  Uiso   1.00
C140   C     0.12456   0.75234   0.93367   0.00000  Uiso   1.00
C141   C     0.98024   0.74937   0.93735   0.00000  Uiso   1.00
C142   C     0.90927   0.68251   0.90048   0.00000  Uiso   1.00
C143   C     0.74619   0.58717   0.85022   0.00000  Uiso   1.00
C144   C     0.30498   0.87395   0.92213   0.00000  Uiso   1.00
C145   C     0.31238   0.97324   0.91613   0.00000  Uiso   1.00
C146   C     0.39331   0.00876   0.86956   0.00000  Uiso   1.00
C147   C     0.51043   0.10223   0.80143   0.00000  Uiso   1.00
C148   C     0.32784   0.75535   0.00439   0.00000  Uiso   1.00
C149   C     0.35449   0.75493   0.06755   0.00000  Uiso   1.00
C150   C     0.45469   0.69061   0.09023   0.00000  Uiso   1.00
C151   C     0.60730   0.59994   0.14981   0.00000  Uiso   1.00
C152   C     0.35323   0.70634   0.89782   0.00000  Uiso   1.00
C153   C     0.19550   0.69071   0.89454   0.00000  Uiso   1.00
C154   C     0.12473   0.62384   0.85766   0.00000  Uiso   1.00
C155   C     0.98033   0.62077   0.86129   0.00000  Uiso   1.00
C156   C     0.37592   0.81233   0.88301   0.00000  Uiso   1.00
C157   C     0.45687   0.84771   0.83644   0.00000  Uiso   1.00
C158   C     0.46438   0.94702   0.83036   0.00000  Uiso   1.00
C159   C     0.39878   0.69372   0.96527   0.00000  Uiso   1.00
C160   C     0.49897   0.62940   0.98785   0.00000  Uiso   1.00
C161   C     0.52576   0.62888   0.05104   0.00000  Uiso   1.00
H162   H     0.16740   0.86778   0.00031   0.00000  Uiso   1.00
H163   H     0.92537   0.79708   0.96763   0.00000  Uiso   1.00
H164   H     0.25748   0.02091   0.94642   0.00000  Uiso   1.00
H165   H     0.29957   0.80263   0.09781   0.00000  Uiso   1.00
H166   H     0.68832   0.69154   0.91413   0.00000  Uiso   1.00
H167   H     0.38862   0.16351   0.86942   0.00000  Uiso   1.00
H168   H     0.47738   0.70323   0.18866   0.00000  Uiso   1.00
H169   H     0.40846   0.65836   0.86736   0.00000  Uiso   1.00
H170   H     0.17966   0.57616   0.82738   0.00000  Uiso   1.00
H171   H     0.51176   0.80000   0.80617   0.00000  Uiso   1.00
H172   H     0.55385   0.58172   0.95756   0.00000  Uiso   1.00
H173   H     0.89470   0.51224   0.80030   0.00000  Uiso   1.00
H174   H     0.59501   0.98421   0.75559   0.00000  Uiso   1.00
H175   H     0.68376   0.52393   0.07483   0.00000  Uiso   1.00
O176   O     0.63664   0.55162   0.83330   0.00000  Uiso   1.00
O177   O     0.55542   0.17082   0.77465   0.00000  Uiso   1.00
O178   O     0.67187   0.56694   0.19349   0.00000  Uiso   1.00
N179   N     0.76830   0.66061   0.89284   0.00000  Uiso   1.00
N180   N     0.42301   0.10187   0.85103   0.00000  Uiso   1.00
N181   N     0.50603   0.67157   0.14949   0.00000  Uiso   1.00
N182   N     0.87935   0.56413   0.83158   0.00000  Uiso   1.00
N183   N     0.53407   0.00539   0.78977   0.00000  Uiso   1.00
N184   N     0.61708   0.57509   0.08824   0.00000  Uiso   1.00
