data_job_06881
_audit_creation_date              2018-12-19
_audit_creation_method            'Materials Studio'
_symmetry_space_group_name_H-M    'P1'
_symmetry_Int_Tables_number       1
_symmetry_cell_setting            triclinic
loop_
_symmetry_equiv_pos_as_xyz
  x,y,z
_cell_length_a                    20.7450
_cell_length_b                    25.0807
_cell_length_c                    17.4155
_cell_angle_alpha                 81.5912
_cell_angle_beta                  89.0586
_cell_angle_gamma                 86.3315
loop_
_atom_site_label
_atom_site_type_symbol
_atom_site_fract_x
_atom_site_fract_y
_atom_site_fract_z
_atom_site_U_iso_or_equiv
_atom_site_adp_type
_atom_site_occupancy
C1     C     0.65700   0.17704   0.02948   0.00000  Uiso   1.00
C2     C     0.62893   0.12911   0.08017   0.00000  Uiso   1.00
C3     C     0.56433   0.12463   0.10051   0.00000  Uiso   1.00
C4     C     0.54838   0.07758   0.14737   0.00000  Uiso   1.00
C5     C     0.49765   0.00942   0.22222   0.00000  Uiso   1.00
C6     C     0.70929   0.19606   0.07779   0.00000  Uiso   1.00
C7     C     0.71226   0.24786   0.09612   0.00000  Uiso   1.00
C8     C     0.76397   0.25716   0.14096   0.00000  Uiso   1.00
C9     C     0.83802   0.29295   0.21207   0.00000  Uiso   1.00
C10    C     0.69210   0.15414   0.96273   0.00000  Uiso   1.00
C11    C     0.68063   0.17071   0.88432   0.00000  Uiso   1.00
C12    C     0.71787   0.14472   0.83230   0.00000  Uiso   1.00
C13    C     0.76523   0.11542   0.72476   0.00000  Uiso   1.00
C14    C     0.74355   0.10144   0.07652   0.00000  Uiso   1.00
C15    C     0.67594   0.08805   0.10572   0.00000  Uiso   1.00
C16    C     0.66008   0.04099   0.15255   0.00000  Uiso   1.00
C17    C     0.59547   0.03644   0.17296   0.00000  Uiso   1.00
C18    C     0.75629   0.15500   0.10333   0.00000  Uiso   1.00
C19    C     0.80801   0.16422   0.14816   0.00000  Uiso   1.00
C20    C     0.81106   0.21603   0.16656   0.00000  Uiso   1.00
C21    C     0.73910   0.11308   0.98828   0.00000  Uiso   1.00
C22    C     0.77638   0.08706   0.93636   0.00000  Uiso   1.00
C23    C     0.76496   0.10359   0.85789   0.00000  Uiso   1.00
H24    H     0.62041   0.20901   0.00959   0.00000  Uiso   1.00
H25    H     0.52797   0.15642   0.08074   0.00000  Uiso   1.00
H26    H     0.67588   0.27963   0.07633   0.00000  Uiso   1.00
H27    H     0.64425   0.20248   0.86457   0.00000  Uiso   1.00
H28    H     0.44622   0.08001   0.17090   0.00000  Uiso   1.00
H29    H     0.75811   0.33982   0.16160   0.00000  Uiso   1.00
H30    H     0.69141   0.17714   0.71506   0.00000  Uiso   1.00
H31    H     0.78015   0.06947   0.09641   0.00000  Uiso   1.00
H32    H     0.69647   0.00922   0.17232   0.00000  Uiso   1.00
H33    H     0.84438   0.13244   0.16791   0.00000  Uiso   1.00
H34    H     0.81275   0.05529   0.95615   0.00000  Uiso   1.00
H35    H     0.58298   0.96055   0.24523   0.00000  Uiso   1.00
H36    H     0.89487   0.22036   0.23593   0.00000  Uiso   1.00
H37    H     0.82817   0.05767   0.78939   0.00000  Uiso   1.00
O38    O     0.45668   0.98317   0.25646   0.00000  Uiso   1.00
O39    O     0.86587   0.32403   0.24423   0.00000  Uiso   1.00
O40    O     0.77836   0.11060   0.65839   0.00000  Uiso   1.00
N41    N     0.48989   0.06016   0.17796   0.00000  Uiso   1.00
N42    N     0.78148   0.30306   0.16928   0.00000  Uiso   1.00
N43    N     0.71913   0.15098   0.75180   0.00000  Uiso   1.00
N44    N     0.56348   0.99588   0.21796   0.00000  Uiso   1.00
N45    N     0.85507   0.23878   0.20927   0.00000  Uiso   1.00
N46    N     0.79272   0.08670   0.79180   0.00000  Uiso   1.00
C47    C     0.11755   0.70941   0.26916   0.00000  Uiso   1.00
C48    C     0.16863   0.66256   0.27378   0.00000  Uiso   1.00
C49    C     0.16607   0.61342   0.32176   0.00000  Uiso   1.00
C50    C     0.21760   0.57581   0.31739   0.00000  Uiso   1.00
C51    C     0.28899   0.50138   0.33228   0.00000  Uiso   1.00
C52    C     0.15260   0.75811   0.28560   0.00000  Uiso   1.00
C53    C     0.13656   0.78930   0.34351   0.00000  Uiso   1.00
C54    C     0.17460   0.83213   0.34908   0.00000  Uiso   1.00
C55    C     0.22108   0.90606   0.38229   0.00000  Uiso   1.00
C56    C     0.09727   0.72168   0.18433   0.00000  Uiso   1.00
C57    C     0.03470   0.72225   0.15709   0.00000  Uiso   1.00
C58    C     0.02615   0.73442   0.07740   0.00000  Uiso   1.00
C59    C     0.98672   0.75179   0.95337   0.00000  Uiso   1.00
C60    C     0.21363   0.73002   0.17610   0.00000  Uiso   1.00
C61    C     0.22082   0.67376   0.22323   0.00000  Uiso   1.00
C62    C     0.27237   0.63622   0.21879   0.00000  Uiso   1.00
C63    C     0.26988   0.58702   0.26675   0.00000  Uiso   1.00
C64    C     0.20479   0.76930   0.23506   0.00000  Uiso   1.00
C65    C     0.24286   0.81210   0.24054   0.00000  Uiso   1.00
C66    C     0.22689   0.84334   0.29844   0.00000  Uiso   1.00
C67    C     0.14946   0.73287   0.13378   0.00000  Uiso   1.00
C68    C     0.14100   0.74505   0.05412   0.00000  Uiso   1.00
C69    C     0.07844   0.74564   0.02676   0.00000  Uiso   1.00
H70    H     0.07692   0.70070   0.30852   0.00000  Uiso   1.00
H71    H     0.12567   0.60477   0.36088   0.00000  Uiso   1.00
H72    H     0.09617   0.78063   0.38261   0.00000  Uiso   1.00
H73    H     0.99433   0.71359   0.19622   0.00000  Uiso   1.00
H74    H     0.20275   0.50337   0.39665   0.00000  Uiso   1.00
H75    H     0.14052   0.87418   0.44247   0.00000  Uiso   1.00
H76    H     0.92577   0.73282   0.04943   0.00000  Uiso   1.00
H77    H     0.25426   0.73873   0.13674   0.00000  Uiso   1.00
H78    H     0.31275   0.64489   0.17967   0.00000  Uiso   1.00
H79    H     0.28324   0.82075   0.20141   0.00000  Uiso   1.00
H80    H     0.18140   0.75371   0.01502   0.00000  Uiso   1.00
H81    H     0.35459   0.53593   0.24958   0.00000  Uiso   1.00
H82    H     0.29236   0.90675   0.29540   0.00000  Uiso   1.00
H83    H     0.07760   0.76538   0.90236   0.00000  Uiso   1.00
O84    O     0.31395   0.45724   0.35447   0.00000  Uiso   1.00
O85    O     0.23230   0.94374   0.41458   0.00000  Uiso   1.00
O86    O     0.95055   0.75827   0.89892   0.00000  Uiso   1.00
N87    N     0.23045   0.52390   0.35613   0.00000  Uiso   1.00
N88    N     0.17228   0.87059   0.39898   0.00000  Uiso   1.00
N89    N     0.97150   0.73844   0.03152   0.00000  Uiso   1.00
N90    N     0.31215   0.54143   0.27699   0.00000  Uiso   1.00
N91    N     0.25398   0.88811   0.31984   0.00000  Uiso   1.00
N92    N     0.05320   0.75596   0.95238   0.00000  Uiso   1.00
C93    C     0.18274   0.11735   0.76902   0.00000  Uiso   1.00
C94    C     0.11916   0.15088   0.75319   0.00000  Uiso   1.00
C95    C     0.09974   0.17918   0.68199   0.00000  Uiso   1.00
C96    C     0.03983   0.20739   0.67952   0.00000  Uiso   1.00
C97    C     0.94705   0.25949   0.64485   0.00000  Uiso   1.00
C98    C     0.21521   0.14020   0.83397   0.00000  Uiso   1.00
C99    C     0.27657   0.15950   0.83068   0.00000  Uiso   1.00
C100   C     0.29752   0.17872   0.89622   0.00000  Uiso   1.00
C101   C     0.35389   0.21419   0.98698   0.00000  Uiso   1.00
C102   C     0.16461   0.06084   0.80366   0.00000  Uiso   1.00
C103   C     0.18342   0.01341   0.77491   0.00000  Uiso   1.00
C104   C     0.16178   0.96581   0.81494   0.00000  Uiso   1.00
C105   C     0.13957   0.87807   0.85864   0.00000  Uiso   1.00
C106   C     0.11087   0.11714   0.89124   0.00000  Uiso   1.00
C107   C     0.08012   0.15076   0.81958   0.00000  Uiso   1.00
C108   C     0.02022   0.17894   0.81722   0.00000  Uiso   1.00
C109   C     0.00072   0.20728   0.74602   0.00000  Uiso   1.00
C110   C     0.17618   0.14008   0.90035   0.00000  Uiso   1.00
C111   C     0.19705   0.15927   0.96591   0.00000  Uiso   1.00
C112   C     0.25841   0.17860   0.96273   0.00000  Uiso   1.00
C113   C     0.12556   0.06072   0.87005   0.00000  Uiso   1.00
C114   C     0.10390   0.01318   0.91013   0.00000  Uiso   1.00
C115   C     0.12267   0.96570   0.88145   0.00000  Uiso   1.00
H116   H     0.21314   0.11744   0.71734   0.00000  Uiso   1.00
H117   H     0.12997   0.17926   0.63063   0.00000  Uiso   1.00
H118   H     0.30677   0.15958   0.77930   0.00000  Uiso   1.00
H119   H     0.21363   0.01352   0.72354   0.00000  Uiso   1.00
H120   H     0.02055   0.24776   0.56378   0.00000  Uiso   1.00
H121   H     0.39336   0.20625   0.87728   0.00000  Uiso   1.00
H122   H     0.19696   0.89825   0.75968   0.00000  Uiso   1.00
H123   H     0.08047   0.11705   0.94293   0.00000  Uiso   1.00
H124   H     0.99002   0.17885   0.86860   0.00000  Uiso   1.00
H125   H     0.16682   0.15917   0.01727   0.00000  Uiso   1.00
H126   H     0.07369   0.01311   0.96151   0.00000  Uiso   1.00
H127   H     0.90697   0.24743   0.75693   0.00000  Uiso   1.00
H128   H     0.27977   0.20592   0.07043   0.00000  Uiso   1.00
H129   H     0.08337   0.89792   0.95283   0.00000  Uiso   1.00
O130   O     0.90666   0.28827   0.60739   0.00000  Uiso   1.00
O131   O     0.39577   0.23380   0.01869   0.00000  Uiso   1.00
O132   O     0.13810   0.82971   0.86441   0.00000  Uiso   1.00
N133   N     0.00623   0.23919   0.61943   0.00000  Uiso   1.00
N134   N     0.35478   0.20039   0.91253   0.00000  Uiso   1.00
N135   N     0.17118   0.91244   0.80260   0.00000  Uiso   1.00
N136   N     0.94511   0.23901   0.72336   0.00000  Uiso   1.00
N137   N     0.29366   0.20021   0.01646   0.00000  Uiso   1.00
N138   N     0.11005   0.91226   0.90653   0.00000  Uiso   1.00
C139   C     0.23768   0.47322   0.78050   0.00000  Uiso   1.00
C140   C     0.16747   0.49405   0.76736   0.00000  Uiso   1.00
C141   C     0.11549   0.47816   0.81449   0.00000  Uiso   1.00
C142   C     0.05506   0.50197   0.79253   0.00000  Uiso   1.00
C143   C     0.94728   0.52850   0.78229   0.00000  Uiso   1.00
C144   C     0.27576   0.52293   0.78325   0.00000  Uiso   1.00
C145   C     0.31484   0.53130   0.84375   0.00000  Uiso   1.00
C146   C     0.34558   0.57942   0.83516   0.00000  Uiso   1.00
C147   C     0.40596   0.65076   0.84958   0.00000  Uiso   1.00
C148   C     0.25961   0.45104   0.70672   0.00000  Uiso   1.00
C149   C     0.28512   0.39897   0.70286   0.00000  Uiso   1.00
C150   C     0.30227   0.38655   0.62983   0.00000  Uiso   1.00
C151   C     0.33757   0.34628   0.52542   0.00000  Uiso   1.00
C152   C     0.22279   0.54377   0.65766   0.00000  Uiso   1.00
C153   C     0.15939   0.53237   0.70064   0.00000  Uiso   1.00
C154   C     0.09902   0.55621   0.67859   0.00000  Uiso   1.00
C155   C     0.04696   0.54035   0.72569   0.00000  Uiso   1.00
C156   C     0.26768   0.56125   0.71653   0.00000  Uiso   1.00
C157   C     0.29837   0.60936   0.70785   0.00000  Uiso   1.00
C158   C     0.33748   0.61781   0.76832   0.00000  Uiso   1.00
C159   C     0.25152   0.48935   0.63999   0.00000  Uiso   1.00
C160   C     0.26864   0.47702   0.56696   0.00000  Uiso   1.00
C161   C     0.29417   0.42495   0.56299   0.00000  Uiso   1.00
H162   H     0.24398   0.44339   0.83245   0.00000  Uiso   1.00
H163   H     0.12177   0.44850   0.86613   0.00000  Uiso   1.00
H164   H     0.32109   0.50164   0.89538   0.00000  Uiso   1.00
H165   H     0.29137   0.36932   0.75451   0.00000  Uiso   1.00
H166   H     0.98271   0.47109   0.87406   0.00000  Uiso   1.00
H167   H     0.40302   0.58312   0.93572   0.00000  Uiso   1.00
H168   H     0.34034   0.30410   0.63868   0.00000  Uiso   1.00
H169   H     0.21650   0.57361   0.60571   0.00000  Uiso   1.00
H170   H     0.09278   0.58587   0.62695   0.00000  Uiso   1.00
H171   H     0.29211   0.63900   0.65620   0.00000  Uiso   1.00
H172   H     0.26238   0.50669   0.51534   0.00000  Uiso   1.00
H173   H     0.95918   0.58258   0.67994   0.00000  Uiso   1.00
H174   H     0.37950   0.69461   0.74160   0.00000  Uiso   1.00
H175   H     0.31681   0.41559   0.44456   0.00000  Uiso   1.00
O176   O     0.89006   0.53256   0.79508   0.00000  Uiso   1.00
O177   O     0.44150   0.67953   0.87597   0.00000  Uiso   1.00
O178   O     0.35926   0.31347   0.48625   0.00000  Uiso   1.00
N179   N     0.99415   0.49564   0.82545   0.00000  Uiso   1.00
N180   N     0.38711   0.60038   0.88311   0.00000  Uiso   1.00
N181   N     0.32852   0.33953   0.60540   0.00000  Uiso   1.00
N182   N     0.98149   0.55563   0.72100   0.00000  Uiso   1.00
N183   N     0.37445   0.66037   0.77865   0.00000  Uiso   1.00
N184   N     0.31586   0.39952   0.50094   0.00000  Uiso   1.00
C185   C     0.57649   0.67415   0.31437   0.00000  Uiso   1.00
C186   C     0.62046   0.62438   0.30507   0.00000  Uiso   1.00
C187   C     0.64052   0.60832   0.23510   0.00000  Uiso   1.00
C188   C     0.68072   0.56158   0.23891   0.00000  Uiso   1.00
C189   C     0.74606   0.48880   0.21362   0.00000  Uiso   1.00
C190   C     0.61382   0.70708   0.36355   0.00000  Uiso   1.00
C191   C     0.62830   0.76056   0.34275   0.00000  Uiso   1.00
C192   C     0.66289   0.78344   0.39580   0.00000  Uiso   1.00
C193   C     0.71789   0.83907   0.46133   0.00000  Uiso   1.00
C194   C     0.51967   0.65370   0.36442   0.00000  Uiso   1.00
C195   C     0.45497   0.66231   0.34436   0.00000  Uiso   1.00
C196   C     0.41030   0.64027   0.39815   0.00000  Uiso   1.00
C197   C     0.31911   0.61302   0.46503   0.00000  Uiso   1.00
C198   C     0.61219   0.61971   0.44558   0.00000  Uiso   1.00
C199   C     0.63985   0.59481   0.37633   0.00000  Uiso   1.00
C200   C     0.68002   0.54808   0.38026   0.00000  Uiso   1.00
C201   C     0.70014   0.53195   0.31030   0.00000  Uiso   1.00
C202   C     0.63321   0.67751   0.43481   0.00000  Uiso   1.00
C203   C     0.66779   0.70032   0.48791   0.00000  Uiso   1.00
C204   C     0.68232   0.75382   0.46720   0.00000  Uiso   1.00
C205   C     0.53906   0.62413   0.43568   0.00000  Uiso   1.00
C206   C     0.49447   0.60207   0.48952   0.00000  Uiso   1.00
C207   C     0.42972   0.61064   0.46955   0.00000  Uiso   1.00
H208   H     0.56140   0.69718   0.25889   0.00000  Uiso   1.00
H209   H     0.62551   0.63121   0.17996   0.00000  Uiso   1.00
H210   H     0.61328   0.78343   0.28760   0.00000  Uiso   1.00
H211   H     0.43999   0.68520   0.28921   0.00000  Uiso   1.00
H212   H     0.70517   0.54505   0.12387   0.00000  Uiso   1.00
H213   H     0.67935   0.86601   0.35085   0.00000  Uiso   1.00
H214   H     0.31393   0.65887   0.35424   0.00000  Uiso   1.00
H215   H     0.62729   0.59669   0.50106   0.00000  Uiso   1.00
H216   H     0.69502   0.52521   0.43542   0.00000  Uiso   1.00
H217   H     0.68278   0.67743   0.54305   0.00000  Uiso   1.00
H218   H     0.50949   0.57919   0.54466   0.00000  Uiso   1.00
H219   H     0.76158   0.45901   0.33121   0.00000  Uiso   1.00
H220   H     0.73576   0.77998   0.55819   0.00000  Uiso   1.00
H221   H     0.37034   0.57283   0.56158   0.00000  Uiso   1.00
O222   O     0.77676   0.45683   0.17999   0.00000  Uiso   1.00
O223   O     0.74287   0.87792   0.47778   0.00000  Uiso   1.00
O224   O     0.26346   0.60615   0.48222   0.00000  Uiso   1.00
N225   N     0.70914   0.53460   0.18168   0.00000  Uiso   1.00
N226   N     0.68501   0.83468   0.39388   0.00000  Uiso   1.00
N227   N     0.34337   0.64103   0.39706   0.00000  Uiso   1.00
N228   N     0.73949   0.48831   0.29324   0.00000  Uiso   1.00
N229   N     0.71537   0.78839   0.50545   0.00000  Uiso   1.00
N230   N     0.37373   0.59474   0.50863   0.00000  Uiso   1.00
C231   C     0.58197   0.27358   0.51309   0.00000  Uiso   1.00
C232   C     0.52611   0.23995   0.54468   0.00000  Uiso   1.00
C233   C     0.50922   0.19271   0.51964   0.00000  Uiso   1.00
C234   C     0.45657   0.16794   0.55592   0.00000  Uiso   1.00
C235   C     0.37510   0.11240   0.59599   0.00000  Uiso   1.00
C236   C     0.62392   0.27784   0.58276   0.00000  Uiso   1.00
C237   C     0.68927   0.26247   0.58973   0.00000  Uiso   1.00
C238   C     0.71896   0.26960   0.65806   0.00000  Uiso   1.00
C239   C     0.78935   0.27292   0.75723   0.00000  Uiso   1.00
C240   C     0.55238   0.33038   0.48650   0.00000  Uiso   1.00
C241   C     0.55758   0.35920   0.41254   0.00000  Uiso   1.00
C242   C     0.52704   0.41058   0.39984   0.00000  Uiso   1.00
C243   C     0.48635   0.49548   0.34955   0.00000  Uiso   1.00
C244   C     0.51849   0.31360   0.62204   0.00000  Uiso   1.00
C245   C     0.49163   0.26169   0.60386   0.00000  Uiso   1.00
C246   C     0.43899   0.23699   0.64018   0.00000  Uiso   1.00
C247   C     0.42202   0.18972   0.61520   0.00000  Uiso   1.00
C248   C     0.58945   0.29958   0.64193   0.00000  Uiso   1.00
C249   C     0.61904   0.30674   0.71027   0.00000  Uiso   1.00
C250   C     0.68441   0.29138   0.71734   0.00000  Uiso   1.00
C251   C     0.51790   0.35212   0.54568   0.00000  Uiso   1.00
C252   C     0.48735   0.40347   0.53309   0.00000  Uiso   1.00
C253   C     0.49250   0.43236   0.45912   0.00000  Uiso   1.00
H254   H     0.60882   0.25666   0.46702   0.00000  Uiso   1.00
H255   H     0.53592   0.17590   0.47385   0.00000  Uiso   1.00
H256   H     0.71595   0.24565   0.54392   0.00000  Uiso   1.00
H257   H     0.58427   0.34236   0.36677   0.00000  Uiso   1.00
H258   H     0.43991   0.09593   0.50753   0.00000  Uiso   1.00
H259   H     0.81951   0.24302   0.65527   0.00000  Uiso   1.00
H260   H     0.54185   0.44696   0.28171   0.00000  Uiso   1.00
H261   H     0.49165   0.33053   0.66811   0.00000  Uiso   1.00
H262   H     0.41231   0.25382   0.68597   0.00000  Uiso   1.00
H263   H     0.59234   0.32357   0.75605   0.00000  Uiso   1.00
H264   H     0.46067   0.42028   0.57889   0.00000  Uiso   1.00
H265   H     0.33959   0.15917   0.67970   0.00000  Uiso   1.00
H266   H     0.71919   0.30627   0.82744   0.00000  Uiso   1.00
H267   H     0.44152   0.51020   0.45388   0.00000  Uiso   1.00
O268   O     0.33969   0.07575   0.60176   0.00000  Uiso   1.00
O269   O     0.83771   0.26873   0.79558   0.00000  Uiso   1.00
O270   O     0.47342   0.53630   0.30547   0.00000  Uiso   1.00
N271   N     0.42718   0.12135   0.54559   0.00000  Uiso   1.00
N272   N     0.78208   0.25886   0.68373   0.00000  Uiso   1.00
N273   N     0.52250   0.44954   0.33448   0.00000  Uiso   1.00
N274   N     0.37320   0.15538   0.63823   0.00000  Uiso   1.00
N275   N     0.72809   0.29289   0.77637   0.00000  Uiso   1.00
N276   N     0.46852   0.48357   0.42712   0.00000  Uiso   1.00
C277   C     0.38513   0.96023   0.07647   0.00000  Uiso   1.00
C278   C     0.41085   0.99574   0.00544   0.00000  Uiso   1.00
C279   C     0.47171   0.01599   0.99822   0.00000  Uiso   1.00
C280   C     0.48602   0.04768   0.92856   0.00000  Uiso   1.00
C281   C     0.53283   0.10112   0.82741   0.00000  Uiso   1.00
C282   C     0.36479   0.90926   0.04775   0.00000  Uiso   1.00
C283   C     0.38691   0.85680   0.07612   0.00000  Uiso   1.00
C284   C     0.36243   0.81569   0.04209   0.00000  Uiso   1.00
C285   C     0.33768   0.73486   0.00667   0.00000  Uiso   1.00
C286   C     0.32299   0.98958   0.10026   0.00000  Uiso   1.00
C287   C     0.30996   0.00464   0.17278   0.00000  Uiso   1.00
C288   C     0.25028   0.03114   0.18296   0.00000  Uiso   1.00
C289   C     0.16063   0.07502   0.22907   0.00000  Uiso   1.00
C290   C     0.30231   0.98051   0.96562   0.00000  Uiso   1.00
C291   C     0.36587   0.00675   0.94522   0.00000  Uiso   1.00
C292   C     0.38009   0.03842   0.87556   0.00000  Uiso   1.00
C293   C     0.44096   0.05871   0.86824   0.00000  Uiso   1.00
C294   C     0.31981   0.92027   0.98754   0.00000  Uiso   1.00
C295   C     0.29529   0.87923   0.95347   0.00000  Uiso   1.00
C296   C     0.31737   0.82672   0.98177   0.00000  Uiso   1.00
C297   C     0.27801   0.00059   0.04004   0.00000  Uiso   1.00
C298   C     0.21834   0.02707   0.05012   0.00000  Uiso   1.00
C299   C     0.20522   0.04217   0.12264   0.00000  Uiso   1.00
H300   H     0.42015   0.95166   0.12335   0.00000  Uiso   1.00
H301   H     0.50652   0.00745   0.04483   0.00000  Uiso   1.00
H302   H     0.42172   0.84829   0.12272   0.00000  Uiso   1.00
H303   H     0.34478   0.99611   0.21936   0.00000  Uiso   1.00
H304   H     0.58244   0.07416   0.93120   0.00000  Uiso   1.00
H305   H     0.40363   0.73855   0.09547   0.00000  Uiso   1.00
H306   H     0.24138   0.05025   0.29925   0.00000  Uiso   1.00
H307   H     0.26729   0.98908   0.91874   0.00000  Uiso   1.00
H308   H     0.34527   0.04693   0.82898   0.00000  Uiso   1.00
H309   H     0.26047   0.88777   0.90688   0.00000  Uiso   1.00
H310   H     0.18354   0.03559   0.00351   0.00000  Uiso   1.00
H311   H     0.45157   0.10620   0.75601   0.00000  Uiso   1.00
H312   H     0.27275   0.77059   0.92028   0.00000  Uiso   1.00
H313   H     0.11051   0.08229   0.12406   0.00000  Uiso   1.00
O314   O     0.57107   0.12754   0.78824   0.00000  Uiso   1.00
O315   O     0.33646   0.68724   0.00377   0.00000  Uiso   1.00
O316   O     0.12361   0.09619   0.27112   0.00000  Uiso   1.00
N317   N     0.54093   0.07377   0.90229   0.00000  Uiso   1.00
N318   N     0.37376   0.75999   0.05587   0.00000  Uiso   1.00
N319   N     0.22207   0.05140   0.24639   0.00000  Uiso   1.00
N320   N     0.47051   0.09101   0.80802   0.00000  Uiso   1.00
N321   N     0.30334   0.77723   0.96160   0.00000  Uiso   1.00
N322   N     0.15165   0.06864   0.15212   0.00000  Uiso   1.00
C323   C     0.17563   0.39636   0.16734   0.00000  Uiso   1.00
C324   C     0.13976   0.41856   0.23415   0.00000  Uiso   1.00
C325   C     0.10293   0.46713   0.22864   0.00000  Uiso   1.00
C326   C     0.07397   0.48021   0.29644   0.00000  Uiso   1.00
C327   C     0.01709   0.51988   0.38942   0.00000  Uiso   1.00
C328   C     0.15071   0.34073   0.16496   0.00000  Uiso   1.00
C329   C     0.12310   0.32387   0.10128   0.00000  Uiso   1.00
C330   C     0.10336   0.27143   0.11085   0.00000  Uiso   1.00
C331   C     0.06352   0.19026   0.09640   0.00000  Uiso   1.00
C332   C     0.24606   0.38652   0.19213   0.00000  Uiso   1.00
C333   C     0.29862   0.40814   0.15129   0.00000  Uiso   1.00
C334   C     0.35916   0.39423   0.18372   0.00000  Uiso   1.00
C335   C     0.46736   0.38415   0.21145   0.00000  Uiso   1.00
C336   C     0.18970   0.33322   0.29755   0.00000  Uiso   1.00
C337   C     0.14740   0.38426   0.30487   0.00000  Uiso   1.00
C338   C     0.11850   0.39727   0.37270   0.00000  Uiso   1.00
C339   C     0.08163   0.44585   0.36730   0.00000  Uiso   1.00
C340   C     0.15835   0.30644   0.23568   0.00000  Uiso   1.00
C341   C     0.13866   0.25401   0.24535   0.00000  Uiso   1.00
C342   C     0.11102   0.23707   0.18170   0.00000  Uiso   1.00
C343   C     0.25370   0.35222   0.26286   0.00000  Uiso   1.00
C344   C     0.31418   0.33828   0.29535   0.00000  Uiso   1.00
C345   C     0.36681   0.35987   0.25457   0.00000  Uiso   1.00
H346   H     0.16968   0.42306   0.11227   0.00000  Uiso   1.00
H347   H     0.09703   0.49366   0.17389   0.00000  Uiso   1.00
H348   H     0.11720   0.35042   0.04656   0.00000  Uiso   1.00
H349   H     0.29268   0.43467   0.09656   0.00000  Uiso   1.00
H350   H     0.01982   0.55679   0.27340   0.00000  Uiso   1.00
H351   H     0.06237   0.25475   0.00489   0.00000  Uiso   1.00
H352   H     0.43242   0.43243   0.11033   0.00000  Uiso   1.00
H353   H     0.19565   0.30652   0.35261   0.00000  Uiso   1.00
H354   H     0.12442   0.37072   0.42742   0.00000  Uiso   1.00
H355   H     0.14458   0.22748   0.30008   0.00000  Uiso   1.00
H356   H     0.32007   0.31174   0.35009   0.00000  Uiso   1.00
H357   H     0.04205   0.45701   0.47917   0.00000  Uiso   1.00
H358   H     0.08460   0.15497   0.21066   0.00000  Uiso   1.00
H359   H     0.45465   0.33265   0.31610   0.00000  Uiso   1.00
O360   O     0.98359   0.55123   0.42116   0.00000  Uiso   1.00
O361   O     0.03943   0.15497   0.06888   0.00000  Uiso   1.00
O362   O     0.52492   0.38807   0.20721   0.00000  Uiso   1.00
N363   N     0.03484   0.52450   0.31156   0.00000  Uiso   1.00
N364   N     0.07461   0.24212   0.06053   0.00000  Uiso   1.00
N365   N     0.42058   0.40822   0.15909   0.00000  Uiso   1.00
N366   N     0.04680   0.47081   0.42229   0.00000  Uiso   1.00
N367   N     0.08657   0.18843   0.17125   0.00000  Uiso   1.00
N368   N     0.43254   0.35453   0.26982   0.00000  Uiso   1.00
C369   C     0.92013   0.07544   0.50577   0.00000  Uiso   1.00
C370   C     0.98457   0.04264   0.51774   0.00000  Uiso   1.00
C371   C     0.00908   0.01751   0.58847   0.00000  Uiso   1.00
C372   C     0.06889   0.98943   0.58718   0.00000  Uiso   1.00
C373   C     0.16376   0.93891   0.61635   0.00000  Uiso   1.00
C374   C     0.88287   0.04926   0.44797   0.00000  Uiso   1.00
C375   C     0.82188   0.02971   0.46004   0.00000  Uiso   1.00
C376   C     0.79607   0.00721   0.40000   0.00000  Uiso   1.00
C377   C     0.73303   0.96701   0.32083   0.00000  Uiso   1.00
C378   C     0.93585   0.13086   0.46382   0.00000  Uiso   1.00
C379   C     0.91940   0.17991   0.48920   0.00000  Uiso   1.00
C380   C     0.93818   0.22611   0.44250   0.00000  Uiso   1.00
C381   C     0.95741   0.31259   0.38794   0.00000  Uiso   1.00
C382   C     0.98274   0.07026   0.37769   0.00000  Uiso   1.00
C383   C     0.01857   0.03982   0.44817   0.00000  Uiso   1.00
C384   C     0.07836   0.01178   0.44677   0.00000  Uiso   1.00
C385   C     0.10296   0.98661   0.51749   0.00000  Uiso   1.00
C386   C     0.91687   0.04645   0.37840   0.00000  Uiso   1.00
C387   C     0.89115   0.02398   0.31833   0.00000  Uiso   1.00
C388   C     0.83014   0.00440   0.33031   0.00000  Uiso   1.00
C389   C     0.96986   0.12804   0.39425   0.00000  Uiso   1.00
C390   C     0.98867   0.17418   0.34750   0.00000  Uiso   1.00
C391   C     0.97225   0.22329   0.37281   0.00000  Uiso   1.00
H392   H     0.89365   0.07763   0.55993   0.00000  Uiso   1.00
H393   H     0.98275   0.01969   0.64230   0.00000  Uiso   1.00
H394   H     0.79557   0.03190   0.51388   0.00000  Uiso   1.00
H395   H     0.89308   0.18207   0.54304   0.00000  Uiso   1.00
H396   H     0.09652   0.95420   0.70294   0.00000  Uiso   1.00
H397   H     0.70183   0.97996   0.43215   0.00000  Uiso   1.00
H398   H     0.90745   0.29663   0.49365   0.00000  Uiso   1.00
H399   H     0.00922   0.06807   0.32352   0.00000  Uiso   1.00
H400   H     0.10466   0.00961   0.39292   0.00000  Uiso   1.00
H401   H     0.91748   0.02181   0.26450   0.00000  Uiso   1.00
H402   H     0.01499   0.17199   0.29367   0.00000  Uiso   1.00
H403   H     0.19547   0.94601   0.50054   0.00000  Uiso   1.00
H404   H     0.80078   0.97177   0.22974   0.00000  Uiso   1.00
H405   H     0.00640   0.28844   0.29124   0.00000  Uiso   1.00
O406   O     0.20668   0.91181   0.65166   0.00000  Uiso   1.00
O407   O     0.68886   0.94561   0.29638   0.00000  Uiso   1.00
O408   O     0.95863   0.36107   0.37707   0.00000  Uiso   1.00
N409   N     0.10671   0.96031   0.64578   0.00000  Uiso   1.00
N410   N     0.73771   0.98438   0.39261   0.00000  Uiso   1.00
N411   N     0.92993   0.28044   0.45010   0.00000  Uiso   1.00
N412   N     0.15996   0.95590   0.53687   0.00000  Uiso   1.00
N413   N     0.79095   0.97997   0.28370   0.00000  Uiso   1.00
N414   N     0.98317   0.27604   0.34119   0.00000  Uiso   1.00
C415   C     0.89930   0.46788   0.58077   0.00000  Uiso   1.00
C416   C     0.91669   0.43153   0.65657   0.00000  Uiso   1.00
C417   C     0.97859   0.41245   0.68001   0.00000  Uiso   1.00
C418   C     0.98436   0.37969   0.75137   0.00000  Uiso   1.00
C419   C     0.01961   0.32523   0.86202   0.00000  Uiso   1.00
C420   C     0.85117   0.43803   0.54036   0.00000  Uiso   1.00
C421   C     0.85798   0.42442   0.46609   0.00000  Uiso   1.00
C422   C     0.80860   0.39714   0.43962   0.00000  Uiso   1.00
C423   C     0.74211   0.35281   0.36983   0.00000  Uiso   1.00
C424   C     0.86164   0.51745   0.60365   0.00000  Uiso   1.00
C425   C     0.87724   0.57062   0.58259   0.00000  Uiso   1.00
C426   C     0.83666   0.61020   0.60940   0.00000  Uiso   1.00
C427   C     0.78642   0.68918   0.63788   0.00000  Uiso   1.00
C428   C     0.79949   0.44362   0.66581   0.00000  Uiso   1.00
C429   C     0.86248   0.41835   0.70275   0.00000  Uiso   1.00
C430   C     0.86816   0.38561   0.77410   0.00000  Uiso   1.00
C431   C     0.93005   0.36649   0.79765   0.00000  Uiso   1.00
C432   C     0.79696   0.42485   0.58654   0.00000  Uiso   1.00
C433   C     0.74756   0.39759   0.56018   0.00000  Uiso   1.00
C434   C     0.75429   0.38394   0.48589   0.00000  Uiso   1.00
C435   C     0.80743   0.50427   0.64984   0.00000  Uiso   1.00
C436   C     0.76681   0.54378   0.67668   0.00000  Uiso   1.00
C437   C     0.78235   0.59700   0.65567   0.00000  Uiso   1.00
H438   H     0.94151   0.47813   0.54480   0.00000  Uiso   1.00
H439   H     0.02053   0.42265   0.64425   0.00000  Uiso   1.00
H440   H     0.89994   0.43463   0.43036   0.00000  Uiso   1.00
H441   H     0.91920   0.58080   0.54684   0.00000  Uiso   1.00
H442   H     0.08423   0.35532   0.77486   0.00000  Uiso   1.00
H443   H     0.82995   0.38058   0.32385   0.00000  Uiso   1.00
H444   H     0.87055   0.68882   0.56948   0.00000  Uiso   1.00
H445   H     0.75728   0.43336   0.70177   0.00000  Uiso   1.00
H446   H     0.82620   0.37542   0.80983   0.00000  Uiso   1.00
H447   H     0.70561   0.38740   0.59594   0.00000  Uiso   1.00
H448   H     0.72486   0.53357   0.71242   0.00000  Uiso   1.00
H449   H     0.92650   0.31698   0.90925   0.00000  Uiso   1.00
H450   H     0.67222   0.34225   0.45823   0.00000  Uiso   1.00
H451   H     0.71283   0.65048   0.70387   0.00000  Uiso   1.00
O452   O     0.05402   0.29883   0.91029   0.00000  Uiso   1.00
O453   O     0.72041   0.33199   0.31858   0.00000  Uiso   1.00
O454   O     0.77369   0.73638   0.64085   0.00000  Uiso   1.00
N455   N     0.03765   0.35425   0.79166   0.00000  Uiso   1.00
N456   N     0.79992   0.37787   0.37000   0.00000  Uiso   1.00
N457   N     0.83787   0.66604   0.59963   0.00000  Uiso   1.00
N458   N     0.95278   0.33363   0.86398   0.00000  Uiso   1.00
N459   N     0.71505   0.35724   0.44231   0.00000  Uiso   1.00
N460   N     0.75300   0.64542   0.67194   0.00000  Uiso   1.00
C461   C     0.59183   0.44050   0.03949   0.00000  Uiso   1.00
C462   C     0.56236   0.49716   0.04464   0.00000  Uiso   1.00
C463   C     0.53736   0.51525   0.11128   0.00000  Uiso   1.00
C464   C     0.51257   0.56849   0.10393   0.00000  Uiso   1.00
C465   C     0.46674   0.65130   0.12278   0.00000  Uiso   1.00
C466   C     0.55374   0.41930   0.97742   0.00000  Uiso   1.00
C467   C     0.52151   0.37193   0.98754   0.00000  Uiso   1.00
C468   C     0.48948   0.35962   0.92360   0.00000  Uiso   1.00
C469   C     0.43032   0.32154   0.83809   0.00000  Uiso   1.00
C470   C     0.65969   0.44777   0.00627   0.00000  Uiso   1.00
C471   C     0.71654   0.42433   0.04062   0.00000  Uiso   1.00
C472   C     0.77372   0.43598   0.00096   0.00000  Uiso   1.00
C473   C     0.87906   0.44211   0.96022   0.00000  Uiso   1.00
C474   C     0.59228   0.50286   0.90795   0.00000  Uiso   1.00
C475   C     0.56260   0.53102   0.97319   0.00000  Uiso   1.00
C476   C     0.53785   0.58425   0.96574   0.00000  Uiso   1.00
C477   C     0.51282   0.60242   0.03235   0.00000  Uiso   1.00
C478   C     0.55399   0.45317   0.90598   0.00000  Uiso   1.00
C479   C     0.52201   0.44092   0.84201   0.00000  Uiso   1.00
C480   C     0.48973   0.39355   0.85202   0.00000  Uiso   1.00
C481   C     0.65994   0.48164   0.93482   0.00000  Uiso   1.00
C482   C     0.71704   0.49333   0.89509   0.00000  Uiso   1.00
C483   C     0.77396   0.46991   0.92938   0.00000  Uiso   1.00
H484   H     0.59164   0.41413   0.09512   0.00000  Uiso   1.00
H485   H     0.53717   0.48903   0.16656   0.00000  Uiso   1.00
H486   H     0.52133   0.34573   0.04284   0.00000  Uiso   1.00
H487   H     0.71634   0.39812   0.09591   0.00000  Uiso   1.00
H488   H     0.47687   0.58700   0.21425   0.00000  Uiso   1.00
H489   H     0.44349   0.28483   0.95338   0.00000  Uiso   1.00
H490   H     0.85469   0.39532   0.06529   0.00000  Uiso   1.00
H491   H     0.59247   0.52922   0.85232   0.00000  Uiso   1.00
H492   H     0.53805   0.61045   0.91044   0.00000  Uiso   1.00
H493   H     0.52221   0.46714   0.78672   0.00000  Uiso   1.00
H494   H     0.71721   0.51954   0.83980   0.00000  Uiso   1.00
H495   H     0.47758   0.68555   0.00637   0.00000  Uiso   1.00
H496   H     0.44420   0.38338   0.74550   0.00000  Uiso   1.00
H497   H     0.85540   0.49386   0.85742   0.00000  Uiso   1.00
O498   O     0.44139   0.68762   0.15292   0.00000  Uiso   1.00
O499   O     0.39761   0.29118   0.81066   0.00000  Uiso   1.00
O500   O     0.93709   0.43614   0.95750   0.00000  Uiso   1.00
N501   N     0.48452   0.59905   0.15735   0.00000  Uiso   1.00
N502   N     0.45330   0.31655   0.91345   0.00000  Uiso   1.00
N503   N     0.83774   0.41983   0.01808   0.00000  Uiso   1.00
N504   N     0.48490   0.65208   0.04550   0.00000  Uiso   1.00
N505   N     0.45368   0.36957   0.80160   0.00000  Uiso   1.00
N506   N     0.83812   0.47286   0.90622   0.00000  Uiso   1.00
C507   C     0.34340   0.81835   0.63377   0.00000  Uiso   1.00
C508   C     0.35611   0.86494   0.56979   0.00000  Uiso   1.00
C509   C     0.35094   0.91936   0.57745   0.00000  Uiso   1.00
C510   C     0.36461   0.95573   0.51207   0.00000  Uiso   1.00
C511   C     0.38156   0.03073   0.42345   0.00000  Uiso   1.00
C512   C     0.29200   0.78660   0.60236   0.00000  Uiso   1.00
C513   C     0.23293   0.77514   0.63741   0.00000  Uiso   1.00
C514   C     0.19263   0.74555   0.59945   0.00000  Uiso   1.00
C515   C     0.11006   0.69889   0.56142   0.00000  Uiso   1.00
C516   C     0.40501   0.78146   0.64024   0.00000  Uiso   1.00
C517   C     0.44095   0.76567   0.70714   0.00000  Uiso   1.00
C518   C     0.49579   0.73174   0.70108   0.00000  Uiso   1.00
C519   C     0.58868   0.67710   0.72186   0.00000  Uiso   1.00
C520   C     0.37687   0.78617   0.50404   0.00000  Uiso   1.00
C521   C     0.37429   0.84746   0.49933   0.00000  Uiso   1.00
C522   C     0.38798   0.88376   0.43392   0.00000  Uiso   1.00
C523   C     0.38283   0.93822   0.44148   0.00000  Uiso   1.00
C524   C     0.31018   0.76912   0.53190   0.00000  Uiso   1.00
C525   C     0.26996   0.73954   0.49388   0.00000  Uiso   1.00
C526   C     0.21084   0.72804   0.52886   0.00000  Uiso   1.00
C527   C     0.42319   0.76398   0.56978   0.00000  Uiso   1.00
C528   C     0.47798   0.73007   0.56361   0.00000  Uiso   1.00
C529   C     0.51400   0.71423   0.63049   0.00000  Uiso   1.00
H530   H     0.32924   0.83195   0.68862   0.00000  Uiso   1.00
H531   H     0.33687   0.93287   0.63199   0.00000  Uiso   1.00
H532   H     0.21887   0.78866   0.69194   0.00000  Uiso   1.00
H533   H     0.42686   0.77920   0.76166   0.00000  Uiso   1.00
H534   H     0.35332   0.03704   0.53812   0.00000  Uiso   1.00
H535   H     0.10453   0.73296   0.66454   0.00000  Uiso   1.00
H536   H     0.54312   0.71300   0.81156   0.00000  Uiso   1.00
H537   H     0.39102   0.77257   0.44918   0.00000  Uiso   1.00
H538   H     0.40204   0.87022   0.37940   0.00000  Uiso   1.00
H539   H     0.28405   0.72602   0.43936   0.00000  Uiso   1.00
H540   H     0.49204   0.71655   0.50908   0.00000  Uiso   1.00
H541   H     0.40621   0.98620   0.33311   0.00000  Uiso   1.00
H542   H     0.15743   0.68212   0.45954   0.00000  Uiso   1.00
H543   H     0.59601   0.66216   0.60655   0.00000  Uiso   1.00
O544   O     0.38588   0.07693   0.39402   0.00000  Uiso   1.00
O545   O     0.05949   0.67798   0.55990   0.00000  Uiso   1.00
O546   O     0.63490   0.65180   0.75278   0.00000  Uiso   1.00
N547   N     0.36427   0.01167   0.49945   0.00000  Uiso   1.00
N548   N     0.13166   0.72738   0.61764   0.00000  Uiso   1.00
N549   N     0.54169   0.70871   0.75510   0.00000  Uiso   1.00
N550   N     0.39273   0.98431   0.38913   0.00000  Uiso   1.00
N551   N     0.16013   0.70003   0.50733   0.00000  Uiso   1.00
N552   N     0.57016   0.68135   0.64478   0.00000  Uiso   1.00
