data_job_05281
_audit_creation_date              2018-12-19
_audit_creation_method            'Materials Studio'
_symmetry_space_group_name_H-M    'P1'
_symmetry_Int_Tables_number       1
_symmetry_cell_setting            triclinic
loop_
_symmetry_equiv_pos_as_xyz
  x,y,z
_cell_length_a                    24.3028
_cell_length_b                    24.7804
_cell_length_c                    9.8764
_cell_angle_alpha                 90.0000
_cell_angle_beta                  83.7994
_cell_angle_gamma                 90.0000
loop_
_atom_site_label
_atom_site_type_symbol
_atom_site_fract_x
_atom_site_fract_y
_atom_site_fract_z
_atom_site_U_iso_or_equiv
_atom_site_adp_type
_atom_site_occupancy
C1     C     0.75347   0.46117   0.63875   0.00000  Uiso   1.00
C2     C     0.80416   0.47105   0.71390   0.00000  Uiso   1.00
C3     C     0.83552   0.51795   0.70826   0.00000  Uiso   1.00
C4     C     0.88031   0.51903   0.78441   0.00000  Uiso   1.00
C5     C     0.95706   0.54109   0.88904   0.00000  Uiso   1.00
C6     C     0.76594   0.41027   0.55420   0.00000  Uiso   1.00
C7     C     0.76517   0.40606   0.41429   0.00000  Uiso   1.00
C8     C     0.77777   0.35597   0.35601   0.00000  Uiso   1.00
C9     C     0.79515   0.28366   0.21271   0.00000  Uiso   1.00
C10    C     0.70660   0.44634   0.74768   0.00000  Uiso   1.00
C11    C     0.65594   0.47246   0.77044   0.00000  Uiso   1.00
C12    C     0.61858   0.45274   0.87504   0.00000  Uiso   1.00
C13    C     0.54383   0.43645   0.03217   0.00000  Uiso   1.00
C14    C     0.77722   0.37968   0.78401   0.00000  Uiso   1.00
C15    C     0.81705   0.42679   0.79279   0.00000  Uiso   1.00
C16    C     0.86180   0.42780   0.86898   0.00000  Uiso   1.00
C17    C     0.89323   0.47469   0.86346   0.00000  Uiso   1.00
C18    C     0.77884   0.36601   0.63309   0.00000  Uiso   1.00
C19    C     0.79144   0.31591   0.57501   0.00000  Uiso   1.00
C20    C     0.79069   0.31163   0.43505   0.00000  Uiso   1.00
C21    C     0.71950   0.40208   0.82659   0.00000  Uiso   1.00
C22    C     0.68221   0.38231   0.93117   0.00000  Uiso   1.00
C23    C     0.63150   0.40840   0.95409   0.00000  Uiso   1.00
H24    H     0.74343   0.49562   0.57731   0.00000  Uiso   1.00
H25    H     0.82553   0.55219   0.64717   0.00000  Uiso   1.00
H26    H     0.75518   0.44032   0.35326   0.00000  Uiso   1.00
H27    H     0.64597   0.50671   0.70936   0.00000  Uiso   1.00
H28    H     0.92226   0.59538   0.75939   0.00000  Uiso   1.00
H29    H     0.77390   0.35949   0.13965   0.00000  Uiso   1.00
H30    H     0.54360   0.49949   0.89056   0.00000  Uiso   1.00
H31    H     0.78726   0.34522   0.84544   0.00000  Uiso   1.00
H32    H     0.87177   0.39354   0.93003   0.00000  Uiso   1.00
H33    H     0.80142   0.28167   0.63610   0.00000  Uiso   1.00
H34    H     0.69221   0.34806   0.99220   0.00000  Uiso   1.00
H35    H     0.95979   0.46661   0.98896   0.00000  Uiso   1.00
H36    H     0.81142   0.23072   0.36921   0.00000  Uiso   1.00
H37    H     0.58113   0.37073   0.12013   0.00000  Uiso   1.00
O38    O     0.99583   0.56549   0.92494   0.00000  Uiso   1.00
O39    O     0.80118   0.25601   0.11187   0.00000  Uiso   1.00
O40    O     0.49904   0.43969   0.09705   0.00000  Uiso   1.00
N41    N     0.91948   0.55845   0.80183   0.00000  Uiso   1.00
N42    N     0.78079   0.33791   0.22241   0.00000  Uiso   1.00
N43    N     0.56547   0.46879   0.92442   0.00000  Uiso   1.00
N44    N     0.93968   0.48916   0.92536   0.00000  Uiso   1.00
N45    N     0.80098   0.26862   0.34594   0.00000  Uiso   1.00
N46    N     0.58567   0.39950   0.04795   0.00000  Uiso   1.00
C47    C     0.25347   0.96117   0.63875   0.00000  Uiso   1.00
C48    C     0.30416   0.97105   0.71390   0.00000  Uiso   1.00
C49    C     0.33552   0.01795   0.70826   0.00000  Uiso   1.00
C50    C     0.38031   0.01903   0.78441   0.00000  Uiso   1.00
C51    C     0.45706   0.04109   0.88904   0.00000  Uiso   1.00
C52    C     0.26594   0.91027   0.55420   0.00000  Uiso   1.00
C53    C     0.26517   0.90606   0.41429   0.00000  Uiso   1.00
C54    C     0.27777   0.85597   0.35601   0.00000  Uiso   1.00
C55    C     0.29515   0.78366   0.21271   0.00000  Uiso   1.00
C56    C     0.20660   0.94634   0.74768   0.00000  Uiso   1.00
C57    C     0.15594   0.97246   0.77044   0.00000  Uiso   1.00
C58    C     0.11858   0.95274   0.87504   0.00000  Uiso   1.00
C59    C     0.04383   0.93645   0.03217   0.00000  Uiso   1.00
C60    C     0.27722   0.87968   0.78401   0.00000  Uiso   1.00
C61    C     0.31705   0.92679   0.79279   0.00000  Uiso   1.00
C62    C     0.36180   0.92780   0.86898   0.00000  Uiso   1.00
C63    C     0.39323   0.97469   0.86346   0.00000  Uiso   1.00
C64    C     0.27884   0.86601   0.63309   0.00000  Uiso   1.00
C65    C     0.29144   0.81591   0.57501   0.00000  Uiso   1.00
C66    C     0.29069   0.81163   0.43505   0.00000  Uiso   1.00
C67    C     0.21950   0.90208   0.82659   0.00000  Uiso   1.00
C68    C     0.18221   0.88231   0.93117   0.00000  Uiso   1.00
C69    C     0.13150   0.90840   0.95409   0.00000  Uiso   1.00
H70    H     0.24343   0.99562   0.57731   0.00000  Uiso   1.00
H71    H     0.32553   0.05219   0.64717   0.00000  Uiso   1.00
H72    H     0.25518   0.94032   0.35326   0.00000  Uiso   1.00
H73    H     0.14597   0.00671   0.70936   0.00000  Uiso   1.00
H74    H     0.42226   0.09538   0.75939   0.00000  Uiso   1.00
H75    H     0.27390   0.85949   0.13965   0.00000  Uiso   1.00
H76    H     0.04360   0.99949   0.89056   0.00000  Uiso   1.00
H77    H     0.28726   0.84522   0.84544   0.00000  Uiso   1.00
H78    H     0.37177   0.89354   0.93003   0.00000  Uiso   1.00
H79    H     0.30142   0.78167   0.63610   0.00000  Uiso   1.00
H80    H     0.19221   0.84806   0.99220   0.00000  Uiso   1.00
H81    H     0.45979   0.96661   0.98896   0.00000  Uiso   1.00
H82    H     0.31142   0.73072   0.36921   0.00000  Uiso   1.00
H83    H     0.08113   0.87073   0.12013   0.00000  Uiso   1.00
O84    O     0.49583   0.06549   0.92494   0.00000  Uiso   1.00
O85    O     0.30118   0.75601   0.11187   0.00000  Uiso   1.00
O86    O     0.99904   0.93969   0.09705   0.00000  Uiso   1.00
N87    N     0.41948   0.05845   0.80183   0.00000  Uiso   1.00
N88    N     0.28079   0.83791   0.22241   0.00000  Uiso   1.00
N89    N     0.06547   0.96879   0.92442   0.00000  Uiso   1.00
N90    N     0.43968   0.98916   0.92536   0.00000  Uiso   1.00
N91    N     0.30098   0.76862   0.34594   0.00000  Uiso   1.00
N92    N     0.08567   0.89950   0.04795   0.00000  Uiso   1.00
C93    C     0.24653   0.46117   0.86125   0.00000  Uiso   1.00
C94    C     0.19584   0.47105   0.78610   0.00000  Uiso   1.00
C95    C     0.16448   0.51795   0.79174   0.00000  Uiso   1.00
C96    C     0.11969   0.51903   0.71559   0.00000  Uiso   1.00
C97    C     0.04294   0.54109   0.61096   0.00000  Uiso   1.00
C98    C     0.23406   0.41027   0.94580   0.00000  Uiso   1.00
C99    C     0.23483   0.40606   0.08571   0.00000  Uiso   1.00
C100   C     0.22223   0.35597   0.14399   0.00000  Uiso   1.00
C101   C     0.20485   0.28366   0.28729   0.00000  Uiso   1.00
C102   C     0.29340   0.44634   0.75232   0.00000  Uiso   1.00
C103   C     0.34406   0.47246   0.72956   0.00000  Uiso   1.00
C104   C     0.38142   0.45274   0.62496   0.00000  Uiso   1.00
C105   C     0.45617   0.43645   0.46783   0.00000  Uiso   1.00
C106   C     0.22278   0.37968   0.71599   0.00000  Uiso   1.00
C107   C     0.18295   0.42679   0.70721   0.00000  Uiso   1.00
C108   C     0.13820   0.42780   0.63102   0.00000  Uiso   1.00
C109   C     0.10677   0.47469   0.63654   0.00000  Uiso   1.00
C110   C     0.22116   0.36601   0.86691   0.00000  Uiso   1.00
C111   C     0.20856   0.31591   0.92499   0.00000  Uiso   1.00
C112   C     0.20931   0.31163   0.06495   0.00000  Uiso   1.00
C113   C     0.28050   0.40208   0.67341   0.00000  Uiso   1.00
C114   C     0.31779   0.38231   0.56883   0.00000  Uiso   1.00
C115   C     0.36850   0.40840   0.54591   0.00000  Uiso   1.00
H116   H     0.25657   0.49562   0.92269   0.00000  Uiso   1.00
H117   H     0.17447   0.55219   0.85283   0.00000  Uiso   1.00
H118   H     0.24482   0.44032   0.14674   0.00000  Uiso   1.00
H119   H     0.35403   0.50671   0.79064   0.00000  Uiso   1.00
H120   H     0.07774   0.59538   0.74061   0.00000  Uiso   1.00
H121   H     0.22610   0.35949   0.36035   0.00000  Uiso   1.00
H122   H     0.45640   0.49949   0.60944   0.00000  Uiso   1.00
H123   H     0.21274   0.34522   0.65456   0.00000  Uiso   1.00
H124   H     0.12823   0.39354   0.56997   0.00000  Uiso   1.00
H125   H     0.19858   0.28167   0.86390   0.00000  Uiso   1.00
H126   H     0.30779   0.34806   0.50780   0.00000  Uiso   1.00
H127   H     0.04021   0.46661   0.51104   0.00000  Uiso   1.00
H128   H     0.18858   0.23072   0.13079   0.00000  Uiso   1.00
H129   H     0.41887   0.37073   0.37987   0.00000  Uiso   1.00
O130   O     0.00417   0.56549   0.57506   0.00000  Uiso   1.00
O131   O     0.19882   0.25601   0.38813   0.00000  Uiso   1.00
O132   O     0.50096   0.43969   0.40295   0.00000  Uiso   1.00
N133   N     0.08052   0.55845   0.69817   0.00000  Uiso   1.00
N134   N     0.21921   0.33791   0.27759   0.00000  Uiso   1.00
N135   N     0.43453   0.46879   0.57558   0.00000  Uiso   1.00
N136   N     0.06032   0.48916   0.57464   0.00000  Uiso   1.00
N137   N     0.19902   0.26862   0.15406   0.00000  Uiso   1.00
N138   N     0.41433   0.39950   0.45205   0.00000  Uiso   1.00
C139   C     0.74653   0.96117   0.86125   0.00000  Uiso   1.00
C140   C     0.69584   0.97105   0.78610   0.00000  Uiso   1.00
C141   C     0.66448   0.01795   0.79174   0.00000  Uiso   1.00
C142   C     0.61969   0.01903   0.71559   0.00000  Uiso   1.00
C143   C     0.54294   0.04109   0.61096   0.00000  Uiso   1.00
C144   C     0.73406   0.91027   0.94580   0.00000  Uiso   1.00
C145   C     0.73483   0.90606   0.08571   0.00000  Uiso   1.00
C146   C     0.72223   0.85597   0.14399   0.00000  Uiso   1.00
C147   C     0.70485   0.78366   0.28729   0.00000  Uiso   1.00
C148   C     0.79340   0.94634   0.75232   0.00000  Uiso   1.00
C149   C     0.84406   0.97246   0.72956   0.00000  Uiso   1.00
C150   C     0.88142   0.95274   0.62496   0.00000  Uiso   1.00
C151   C     0.95617   0.93645   0.46783   0.00000  Uiso   1.00
C152   C     0.72278   0.87968   0.71599   0.00000  Uiso   1.00
C153   C     0.68295   0.92679   0.70721   0.00000  Uiso   1.00
C154   C     0.63820   0.92780   0.63102   0.00000  Uiso   1.00
C155   C     0.60677   0.97469   0.63654   0.00000  Uiso   1.00
C156   C     0.72116   0.86601   0.86691   0.00000  Uiso   1.00
C157   C     0.70856   0.81591   0.92499   0.00000  Uiso   1.00
C158   C     0.70931   0.81163   0.06495   0.00000  Uiso   1.00
C159   C     0.78050   0.90208   0.67341   0.00000  Uiso   1.00
C160   C     0.81779   0.88231   0.56883   0.00000  Uiso   1.00
C161   C     0.86850   0.90840   0.54591   0.00000  Uiso   1.00
H162   H     0.75657   0.99562   0.92269   0.00000  Uiso   1.00
H163   H     0.67447   0.05219   0.85283   0.00000  Uiso   1.00
H164   H     0.74482   0.94032   0.14674   0.00000  Uiso   1.00
H165   H     0.85403   0.00671   0.79064   0.00000  Uiso   1.00
H166   H     0.57774   0.09538   0.74061   0.00000  Uiso   1.00
H167   H     0.72610   0.85949   0.36035   0.00000  Uiso   1.00
H168   H     0.95640   0.99949   0.60944   0.00000  Uiso   1.00
H169   H     0.71274   0.84522   0.65456   0.00000  Uiso   1.00
H170   H     0.62823   0.89354   0.56997   0.00000  Uiso   1.00
H171   H     0.69858   0.78167   0.86390   0.00000  Uiso   1.00
H172   H     0.80779   0.84806   0.50780   0.00000  Uiso   1.00
H173   H     0.54021   0.96661   0.51104   0.00000  Uiso   1.00
H174   H     0.68858   0.73072   0.13079   0.00000  Uiso   1.00
H175   H     0.91887   0.87073   0.37987   0.00000  Uiso   1.00
O176   O     0.50417   0.06549   0.57506   0.00000  Uiso   1.00
O177   O     0.69882   0.75601   0.38813   0.00000  Uiso   1.00
O178   O     0.00096   0.93969   0.40295   0.00000  Uiso   1.00
N179   N     0.58052   0.05845   0.69817   0.00000  Uiso   1.00
N180   N     0.71921   0.83791   0.27759   0.00000  Uiso   1.00
N181   N     0.93453   0.96879   0.57558   0.00000  Uiso   1.00
N182   N     0.56032   0.98916   0.57464   0.00000  Uiso   1.00
N183   N     0.69902   0.76862   0.15406   0.00000  Uiso   1.00
N184   N     0.91433   0.89950   0.45205   0.00000  Uiso   1.00
C185   C     0.24653   0.53883   0.36125   0.00000  Uiso   1.00
C186   C     0.19584   0.52895   0.28610   0.00000  Uiso   1.00
C187   C     0.16448   0.48205   0.29174   0.00000  Uiso   1.00
C188   C     0.11969   0.48097   0.21559   0.00000  Uiso   1.00
C189   C     0.04294   0.45891   0.11096   0.00000  Uiso   1.00
C190   C     0.23406   0.58973   0.44580   0.00000  Uiso   1.00
C191   C     0.23483   0.59394   0.58571   0.00000  Uiso   1.00
C192   C     0.22223   0.64403   0.64399   0.00000  Uiso   1.00
C193   C     0.20485   0.71634   0.78729   0.00000  Uiso   1.00
C194   C     0.29340   0.55366   0.25232   0.00000  Uiso   1.00
C195   C     0.34406   0.52754   0.22956   0.00000  Uiso   1.00
C196   C     0.38142   0.54726   0.12496   0.00000  Uiso   1.00
C197   C     0.45617   0.56355   0.96783   0.00000  Uiso   1.00
C198   C     0.22278   0.62032   0.21599   0.00000  Uiso   1.00
C199   C     0.18295   0.57321   0.20721   0.00000  Uiso   1.00
C200   C     0.13820   0.57220   0.13102   0.00000  Uiso   1.00
C201   C     0.10677   0.52531   0.13654   0.00000  Uiso   1.00
C202   C     0.22116   0.63399   0.36691   0.00000  Uiso   1.00
C203   C     0.20856   0.68409   0.42499   0.00000  Uiso   1.00
C204   C     0.20931   0.68837   0.56495   0.00000  Uiso   1.00
C205   C     0.28050   0.59792   0.17341   0.00000  Uiso   1.00
C206   C     0.31779   0.61769   0.06883   0.00000  Uiso   1.00
C207   C     0.36850   0.59160   0.04591   0.00000  Uiso   1.00
H208   H     0.25657   0.50438   0.42269   0.00000  Uiso   1.00
H209   H     0.17447   0.44781   0.35283   0.00000  Uiso   1.00
H210   H     0.24482   0.55968   0.64674   0.00000  Uiso   1.00
H211   H     0.35403   0.49329   0.29064   0.00000  Uiso   1.00
H212   H     0.07774   0.40462   0.24061   0.00000  Uiso   1.00
H213   H     0.22610   0.64051   0.86035   0.00000  Uiso   1.00
H214   H     0.45640   0.50051   0.10944   0.00000  Uiso   1.00
H215   H     0.21274   0.65478   0.15456   0.00000  Uiso   1.00
H216   H     0.12823   0.60646   0.06997   0.00000  Uiso   1.00
H217   H     0.19858   0.71833   0.36390   0.00000  Uiso   1.00
H218   H     0.30779   0.65194   0.00780   0.00000  Uiso   1.00
H219   H     0.04021   0.53339   0.01104   0.00000  Uiso   1.00
H220   H     0.18858   0.76928   0.63079   0.00000  Uiso   1.00
H221   H     0.41887   0.62927   0.87987   0.00000  Uiso   1.00
O222   O     0.00417   0.43451   0.07506   0.00000  Uiso   1.00
O223   O     0.19882   0.74399   0.88813   0.00000  Uiso   1.00
O224   O     0.50096   0.56031   0.90295   0.00000  Uiso   1.00
N225   N     0.08052   0.44155   0.19817   0.00000  Uiso   1.00
N226   N     0.21921   0.66209   0.77759   0.00000  Uiso   1.00
N227   N     0.43453   0.53121   0.07558   0.00000  Uiso   1.00
N228   N     0.06032   0.51084   0.07464   0.00000  Uiso   1.00
N229   N     0.19902   0.73138   0.65406   0.00000  Uiso   1.00
N230   N     0.41433   0.60050   0.95205   0.00000  Uiso   1.00
C231   C     0.74653   0.03883   0.36125   0.00000  Uiso   1.00
C232   C     0.69584   0.02895   0.28610   0.00000  Uiso   1.00
C233   C     0.66448   0.98205   0.29174   0.00000  Uiso   1.00
C234   C     0.61969   0.98097   0.21559   0.00000  Uiso   1.00
C235   C     0.54294   0.95891   0.11096   0.00000  Uiso   1.00
C236   C     0.73406   0.08973   0.44580   0.00000  Uiso   1.00
C237   C     0.73483   0.09394   0.58571   0.00000  Uiso   1.00
C238   C     0.72223   0.14403   0.64399   0.00000  Uiso   1.00
C239   C     0.70485   0.21634   0.78729   0.00000  Uiso   1.00
C240   C     0.79340   0.05366   0.25232   0.00000  Uiso   1.00
C241   C     0.84406   0.02754   0.22956   0.00000  Uiso   1.00
C242   C     0.88142   0.04726   0.12496   0.00000  Uiso   1.00
C243   C     0.95617   0.06355   0.96783   0.00000  Uiso   1.00
C244   C     0.72278   0.12032   0.21599   0.00000  Uiso   1.00
C245   C     0.68295   0.07321   0.20721   0.00000  Uiso   1.00
C246   C     0.63820   0.07220   0.13102   0.00000  Uiso   1.00
C247   C     0.60677   0.02531   0.13654   0.00000  Uiso   1.00
C248   C     0.72116   0.13399   0.36691   0.00000  Uiso   1.00
C249   C     0.70856   0.18409   0.42499   0.00000  Uiso   1.00
C250   C     0.70931   0.18837   0.56495   0.00000  Uiso   1.00
C251   C     0.78050   0.09792   0.17341   0.00000  Uiso   1.00
C252   C     0.81779   0.11769   0.06883   0.00000  Uiso   1.00
C253   C     0.86850   0.09160   0.04591   0.00000  Uiso   1.00
H254   H     0.75657   0.00438   0.42269   0.00000  Uiso   1.00
H255   H     0.67447   0.94781   0.35283   0.00000  Uiso   1.00
H256   H     0.74482   0.05968   0.64674   0.00000  Uiso   1.00
H257   H     0.85403   0.99329   0.29064   0.00000  Uiso   1.00
H258   H     0.57774   0.90462   0.24061   0.00000  Uiso   1.00
H259   H     0.72610   0.14051   0.86035   0.00000  Uiso   1.00
H260   H     0.95640   0.00051   0.10944   0.00000  Uiso   1.00
H261   H     0.71274   0.15478   0.15456   0.00000  Uiso   1.00
H262   H     0.62823   0.10646   0.06997   0.00000  Uiso   1.00
H263   H     0.69858   0.21833   0.36390   0.00000  Uiso   1.00
H264   H     0.80779   0.15194   0.00780   0.00000  Uiso   1.00
H265   H     0.54021   0.03339   0.01104   0.00000  Uiso   1.00
H266   H     0.68858   0.26928   0.63079   0.00000  Uiso   1.00
H267   H     0.91887   0.12927   0.87987   0.00000  Uiso   1.00
O268   O     0.50417   0.93451   0.07506   0.00000  Uiso   1.00
O269   O     0.69882   0.24399   0.88813   0.00000  Uiso   1.00
O270   O     0.00096   0.06031   0.90295   0.00000  Uiso   1.00
N271   N     0.58052   0.94155   0.19817   0.00000  Uiso   1.00
N272   N     0.71921   0.16209   0.77759   0.00000  Uiso   1.00
N273   N     0.93453   0.03121   0.07558   0.00000  Uiso   1.00
N274   N     0.56032   0.01084   0.07464   0.00000  Uiso   1.00
N275   N     0.69902   0.23138   0.65406   0.00000  Uiso   1.00
N276   N     0.91433   0.10050   0.95205   0.00000  Uiso   1.00
C277   C     0.75347   0.53883   0.13875   0.00000  Uiso   1.00
C278   C     0.80416   0.52895   0.21390   0.00000  Uiso   1.00
C279   C     0.83552   0.48205   0.20826   0.00000  Uiso   1.00
C280   C     0.88031   0.48097   0.28441   0.00000  Uiso   1.00
C281   C     0.95706   0.45891   0.38904   0.00000  Uiso   1.00
C282   C     0.76594   0.58973   0.05420   0.00000  Uiso   1.00
C283   C     0.76517   0.59394   0.91429   0.00000  Uiso   1.00
C284   C     0.77777   0.64403   0.85601   0.00000  Uiso   1.00
C285   C     0.79515   0.71634   0.71271   0.00000  Uiso   1.00
C286   C     0.70660   0.55366   0.24768   0.00000  Uiso   1.00
C287   C     0.65594   0.52754   0.27044   0.00000  Uiso   1.00
C288   C     0.61858   0.54726   0.37504   0.00000  Uiso   1.00
C289   C     0.54383   0.56355   0.53217   0.00000  Uiso   1.00
C290   C     0.77722   0.62032   0.28401   0.00000  Uiso   1.00
C291   C     0.81705   0.57321   0.29279   0.00000  Uiso   1.00
C292   C     0.86180   0.57220   0.36898   0.00000  Uiso   1.00
C293   C     0.89323   0.52531   0.36346   0.00000  Uiso   1.00
C294   C     0.77884   0.63399   0.13309   0.00000  Uiso   1.00
C295   C     0.79144   0.68409   0.07501   0.00000  Uiso   1.00
C296   C     0.79069   0.68837   0.93505   0.00000  Uiso   1.00
C297   C     0.71950   0.59792   0.32659   0.00000  Uiso   1.00
C298   C     0.68221   0.61769   0.43117   0.00000  Uiso   1.00
C299   C     0.63150   0.59160   0.45409   0.00000  Uiso   1.00
H300   H     0.74343   0.50438   0.07731   0.00000  Uiso   1.00
H301   H     0.82553   0.44781   0.14717   0.00000  Uiso   1.00
H302   H     0.75518   0.55968   0.85326   0.00000  Uiso   1.00
H303   H     0.64597   0.49329   0.20936   0.00000  Uiso   1.00
H304   H     0.92226   0.40462   0.25939   0.00000  Uiso   1.00
H305   H     0.77390   0.64051   0.63965   0.00000  Uiso   1.00
H306   H     0.54360   0.50051   0.39056   0.00000  Uiso   1.00
H307   H     0.78726   0.65478   0.34544   0.00000  Uiso   1.00
H308   H     0.87177   0.60646   0.43003   0.00000  Uiso   1.00
H309   H     0.80142   0.71833   0.13610   0.00000  Uiso   1.00
H310   H     0.69221   0.65194   0.49220   0.00000  Uiso   1.00
H311   H     0.95979   0.53339   0.48896   0.00000  Uiso   1.00
H312   H     0.81142   0.76928   0.86921   0.00000  Uiso   1.00
H313   H     0.58113   0.62927   0.62013   0.00000  Uiso   1.00
O314   O     0.99583   0.43451   0.42494   0.00000  Uiso   1.00
O315   O     0.80118   0.74399   0.61187   0.00000  Uiso   1.00
O316   O     0.49904   0.56031   0.59705   0.00000  Uiso   1.00
N317   N     0.91948   0.44155   0.30183   0.00000  Uiso   1.00
N318   N     0.78079   0.66209   0.72241   0.00000  Uiso   1.00
N319   N     0.56547   0.53121   0.42442   0.00000  Uiso   1.00
N320   N     0.93968   0.51084   0.42536   0.00000  Uiso   1.00
N321   N     0.80098   0.73138   0.84594   0.00000  Uiso   1.00
N322   N     0.58567   0.60050   0.54795   0.00000  Uiso   1.00
C323   C     0.25347   0.03883   0.13875   0.00000  Uiso   1.00
C324   C     0.30416   0.02895   0.21390   0.00000  Uiso   1.00
C325   C     0.33552   0.98205   0.20826   0.00000  Uiso   1.00
C326   C     0.38031   0.98097   0.28441   0.00000  Uiso   1.00
C327   C     0.45706   0.95891   0.38904   0.00000  Uiso   1.00
C328   C     0.26594   0.08973   0.05420   0.00000  Uiso   1.00
C329   C     0.26517   0.09394   0.91429   0.00000  Uiso   1.00
C330   C     0.27777   0.14403   0.85601   0.00000  Uiso   1.00
C331   C     0.29515   0.21634   0.71271   0.00000  Uiso   1.00
C332   C     0.20660   0.05366   0.24768   0.00000  Uiso   1.00
C333   C     0.15594   0.02754   0.27044   0.00000  Uiso   1.00
C334   C     0.11858   0.04726   0.37504   0.00000  Uiso   1.00
C335   C     0.04383   0.06355   0.53217   0.00000  Uiso   1.00
C336   C     0.27722   0.12032   0.28401   0.00000  Uiso   1.00
C337   C     0.31705   0.07321   0.29279   0.00000  Uiso   1.00
C338   C     0.36180   0.07220   0.36898   0.00000  Uiso   1.00
C339   C     0.39323   0.02531   0.36346   0.00000  Uiso   1.00
C340   C     0.27884   0.13399   0.13309   0.00000  Uiso   1.00
C341   C     0.29144   0.18409   0.07501   0.00000  Uiso   1.00
C342   C     0.29069   0.18837   0.93505   0.00000  Uiso   1.00
C343   C     0.21950   0.09792   0.32659   0.00000  Uiso   1.00
C344   C     0.18221   0.11769   0.43117   0.00000  Uiso   1.00
C345   C     0.13150   0.09160   0.45409   0.00000  Uiso   1.00
H346   H     0.24343   0.00438   0.07731   0.00000  Uiso   1.00
H347   H     0.32553   0.94781   0.14717   0.00000  Uiso   1.00
H348   H     0.25518   0.05968   0.85326   0.00000  Uiso   1.00
H349   H     0.14597   0.99329   0.20936   0.00000  Uiso   1.00
H350   H     0.42226   0.90462   0.25939   0.00000  Uiso   1.00
H351   H     0.27390   0.14051   0.63965   0.00000  Uiso   1.00
H352   H     0.04360   0.00051   0.39056   0.00000  Uiso   1.00
H353   H     0.28726   0.15478   0.34544   0.00000  Uiso   1.00
H354   H     0.37177   0.10646   0.43003   0.00000  Uiso   1.00
H355   H     0.30142   0.21833   0.13610   0.00000  Uiso   1.00
H356   H     0.19221   0.15194   0.49220   0.00000  Uiso   1.00
H357   H     0.45979   0.03339   0.48896   0.00000  Uiso   1.00
H358   H     0.31142   0.26928   0.86921   0.00000  Uiso   1.00
H359   H     0.08113   0.12927   0.62013   0.00000  Uiso   1.00
O360   O     0.49583   0.93451   0.42494   0.00000  Uiso   1.00
O361   O     0.30118   0.24399   0.61187   0.00000  Uiso   1.00
O362   O     0.99904   0.06031   0.59705   0.00000  Uiso   1.00
N363   N     0.41948   0.94155   0.30183   0.00000  Uiso   1.00
N364   N     0.28079   0.16209   0.72241   0.00000  Uiso   1.00
N365   N     0.06547   0.03121   0.42442   0.00000  Uiso   1.00
N366   N     0.43968   0.01084   0.42536   0.00000  Uiso   1.00
N367   N     0.30098   0.23138   0.84594   0.00000  Uiso   1.00
N368   N     0.08567   0.10050   0.54795   0.00000  Uiso   1.00
