data_job_06712
_audit_creation_date              2018-12-19
_audit_creation_method            'Materials Studio'
_symmetry_space_group_name_H-M    'P1'
_symmetry_Int_Tables_number       1
_symmetry_cell_setting            triclinic
loop_
_symmetry_equiv_pos_as_xyz
  x,y,z
_cell_length_a                    18.3106
_cell_length_b                    23.6631
_cell_length_c                    21.0543
_cell_angle_alpha                 99.1096
_cell_angle_beta                  87.9048
_cell_angle_gamma                 96.3327
loop_
_atom_site_label
_atom_site_type_symbol
_atom_site_fract_x
_atom_site_fract_y
_atom_site_fract_z
_atom_site_U_iso_or_equiv
_atom_site_adp_type
_atom_site_occupancy
C1     C     0.32716   0.86915   0.24777   0.00000  Uiso   1.00
C2     C     0.40724   0.86487   0.26205   0.00000  Uiso   1.00
C3     C     0.43437   0.81798   0.28151   0.00000  Uiso   1.00
C4     C     0.50932   0.82250   0.29215   0.00000  Uiso   1.00
C5     C     0.62664   0.80831   0.31567   0.00000  Uiso   1.00
C6     C     0.30562   0.92285   0.29128   0.00000  Uiso   1.00
C7     C     0.24731   0.92472   0.33531   0.00000  Uiso   1.00
C8     C     0.23672   0.97805   0.37055   0.00000  Uiso   1.00
C9     C     0.19625   0.05390   0.43941   0.00000  Uiso   1.00
C10    C     0.32676   0.88235   0.17921   0.00000  Uiso   1.00
C11    C     0.28621   0.85018   0.12900   0.00000  Uiso   1.00
C12    C     0.29340   0.86942   0.06989   0.00000  Uiso   1.00
C13    C     0.28576   0.88238   0.96474   0.00000  Uiso   1.00
C14    C     0.41201   0.96054   0.23206   0.00000  Uiso   1.00
C15    C     0.45332   0.91451   0.25353   0.00000  Uiso   1.00
C16    C     0.52825   0.91910   0.26414   0.00000  Uiso   1.00
C17    C     0.55549   0.87223   0.28361   0.00000  Uiso   1.00
C18    C     0.35171   0.97249   0.28276   0.00000  Uiso   1.00
C19    C     0.34120   0.02583   0.31794   0.00000  Uiso   1.00
C20    C     0.28289   0.02778   0.36201   0.00000  Uiso   1.00
C21    C     0.37285   0.93199   0.17068   0.00000  Uiso   1.00
C22    C     0.38010   0.95129   0.11163   0.00000  Uiso   1.00
C23    C     0.33957   0.91915   0.06135   0.00000  Uiso   1.00
H24    H     0.29127   0.83051   0.25441   0.00000  Uiso   1.00
H25    H     0.39868   0.77958   0.28811   0.00000  Uiso   1.00
H26    H     0.21165   0.88630   0.34189   0.00000  Uiso   1.00
H27    H     0.25055   0.81177   0.13562   0.00000  Uiso   1.00
H28    H     0.53809   0.74502   0.32174   0.00000  Uiso   1.00
H29    H     0.14371   0.97005   0.43513   0.00000  Uiso   1.00
H30    H     0.22573   0.81289   0.00016   0.00000  Uiso   1.00
H31    H     0.44789   0.99919   0.22543   0.00000  Uiso   1.00
H32    H     0.56391   0.95752   0.25754   0.00000  Uiso   1.00
H33    H     0.37687   0.06424   0.31132   0.00000  Uiso   1.00
H34    H     0.41577   0.98971   0.10505   0.00000  Uiso   1.00
H35    H     0.67219   0.88944   0.29693   0.00000  Uiso   1.00
H36    H     0.27781   0.11447   0.41032   0.00000  Uiso   1.00
H37    H     0.35983   0.95731   0.97535   0.00000  Uiso   1.00
O38    O     0.67863   0.78678   0.33100   0.00000  Uiso   1.00
O39    O     0.16121   0.08202   0.47976   0.00000  Uiso   1.00
O40    O     0.26882   0.87582   0.90909   0.00000  Uiso   1.00
N41    N     0.55373   0.78472   0.31148   0.00000  Uiso   1.00
N42    N     0.18502   0.99511   0.41750   0.00000  Uiso   1.00
N43    N     0.26169   0.84819   0.01085   0.00000  Uiso   1.00
N44    N     0.62589   0.86243   0.29813   0.00000  Uiso   1.00
N45    N     0.25718   0.07282   0.40415   0.00000  Uiso   1.00
N46    N     0.33384   0.92590   0.99750   0.00000  Uiso   1.00
C47    C     0.38783   0.26660   0.81644   0.00000  Uiso   1.00
C48    C     0.43260   0.32402   0.83924   0.00000  Uiso   1.00
C49    C     0.49769   0.34496   0.81118   0.00000  Uiso   1.00
C50    C     0.53025   0.39842   0.83923   0.00000  Uiso   1.00
C51    C     0.60458   0.48280   0.86642   0.00000  Uiso   1.00
C52    C     0.38038   0.23448   0.87407   0.00000  Uiso   1.00
C53    C     0.40155   0.18012   0.87528   0.00000  Uiso   1.00
C54    C     0.39013   0.15821   0.93265   0.00000  Uiso   1.00
C55    C     0.38334   0.10355   0.01389   0.00000  Uiso   1.00
C56    C     0.31081   0.28084   0.80436   0.00000  Uiso   1.00
C57    C     0.27348   0.26547   0.74697   0.00000  Uiso   1.00
C58    C     0.20348   0.28258   0.74567   0.00000  Uiso   1.00
C59    C     0.08867   0.29992   0.71867   0.00000  Uiso   1.00
C60    C     0.32991   0.32431   0.91617   0.00000  Uiso   1.00
C61    C     0.40114   0.35537   0.89341   0.00000  Uiso   1.00
C62    C     0.43361   0.40881   0.92152   0.00000  Uiso   1.00
C63    C     0.49873   0.42983   0.89350   0.00000  Uiso   1.00
C64    C     0.34892   0.26582   0.92824   0.00000  Uiso   1.00
C65    C     0.33747   0.24398   0.98562   0.00000  Uiso   1.00
C66    C     0.35862   0.18961   0.98692   0.00000  Uiso   1.00
C67    C     0.27935   0.31219   0.85853   0.00000  Uiso   1.00
C68    C     0.20940   0.32933   0.85731   0.00000  Uiso   1.00
C69    C     0.17197   0.31398   0.79993   0.00000  Uiso   1.00
H70    H     0.41232   0.24219   0.77427   0.00000  Uiso   1.00
H71    H     0.52202   0.32068   0.76926   0.00000  Uiso   1.00
H72    H     0.42589   0.15587   0.83335   0.00000  Uiso   1.00
H73    H     0.29784   0.24121   0.70506   0.00000  Uiso   1.00
H74    H     0.62979   0.42152   0.78761   0.00000  Uiso   1.00
H75    H     0.42706   0.07401   0.92274   0.00000  Uiso   1.00
H76    H     0.15704   0.25395   0.65222   0.00000  Uiso   1.00
H77    H     0.30541   0.34872   0.95835   0.00000  Uiso   1.00
H78    H     0.40925   0.43306   0.96344   0.00000  Uiso   1.00
H79    H     0.31312   0.26825   0.02753   0.00000  Uiso   1.00
H80    H     0.18507   0.35358   0.89924   0.00000  Uiso   1.00
H81    H     0.53826   0.51273   0.94521   0.00000  Uiso   1.00
H82    H     0.33553   0.16521   0.08034   0.00000  Uiso   1.00
H83    H     0.06552   0.34516   0.80983   0.00000  Uiso   1.00
O84    O     0.65427   0.52068   0.86645   0.00000  Uiso   1.00
O85    O     0.38829   0.06475   0.04373   0.00000  Uiso   1.00
O86    O     0.03404   0.30083   0.68882   0.00000  Uiso   1.00
N87    N     0.59399   0.43142   0.82399   0.00000  Uiso   1.00
N88    N     0.40446   0.10651   0.95034   0.00000  Uiso   1.00
N89    N     0.15201   0.27473   0.69743   0.00000  Uiso   1.00
N90    N     0.54474   0.48050   0.90880   0.00000  Uiso   1.00
N91    N     0.35521   0.15559   0.03514   0.00000  Uiso   1.00
N92    N     0.10276   0.32381   0.78224   0.00000  Uiso   1.00
C93    C     0.95820   0.21153   0.32243   0.00000  Uiso   1.00
C94    C     0.96256   0.24378   0.39111   0.00000  Uiso   1.00
C95    C     0.93050   0.29370   0.41414   0.00000  Uiso   1.00
C96    C     0.94089   0.31658   0.47847   0.00000  Uiso   1.00
C97    C     0.94146   0.37065   0.57905   0.00000  Uiso   1.00
C98    C     0.03743   0.20771   0.29864   0.00000  Uiso   1.00
C99    C     0.06832   0.22730   0.24391   0.00000  Uiso   1.00
C100   C     0.14173   0.21981   0.23039   0.00000  Uiso   1.00
C101   C     0.25852   0.21784   0.18738   0.00000  Uiso   1.00
C102   C     0.92631   0.15012   0.32777   0.00000  Uiso   1.00
C103   C     0.86378   0.12127   0.29751   0.00000  Uiso   1.00
C104   C     0.84364   0.06528   0.30851   0.00000  Uiso   1.00
C105   C     0.78790   0.97389   0.31072   0.00000  Uiso   1.00
C106   C     0.03364   0.16339   0.39573   0.00000  Uiso   1.00
C107   C     0.00354   0.21763   0.43093   0.00000  Uiso   1.00
C108   C     0.01397   0.24044   0.49524   0.00000  Uiso   1.00
C109   C     0.98193   0.29039   0.51836   0.00000  Uiso   1.00
C110   C     0.07841   0.18156   0.33845   0.00000  Uiso   1.00
C111   C     0.15179   0.17404   0.32501   0.00000  Uiso   1.00
C112   C     0.18278   0.19361   0.27028   0.00000  Uiso   1.00
C113   C     0.96729   0.12397   0.36758   0.00000  Uiso   1.00
C114   C     0.94725   0.06801   0.37862   0.00000  Uiso   1.00
C115   C     0.88469   0.03909   0.34839   0.00000  Uiso   1.00
H116   H     0.92630   0.23189   0.29143   0.00000  Uiso   1.00
H117   H     0.89880   0.31393   0.38331   0.00000  Uiso   1.00
H118   H     0.03659   0.24753   0.21311   0.00000  Uiso   1.00
H119   H     0.83208   0.14152   0.26671   0.00000  Uiso   1.00
H120   H     0.88641   0.39336   0.50273   0.00000  Uiso   1.00
H121   H     0.17694   0.25334   0.14383   0.00000  Uiso   1.00
H122   H     0.74568   0.02980   0.25686   0.00000  Uiso   1.00
H123   H     0.06555   0.14303   0.42673   0.00000  Uiso   1.00
H124   H     0.04569   0.22020   0.52604   0.00000  Uiso   1.00
H125   H     0.18348   0.15380   0.35583   0.00000  Uiso   1.00
H126   H     0.97897   0.04779   0.40943   0.00000  Uiso   1.00
H127   H     0.00563   0.31729   0.61857   0.00000  Uiso   1.00
H128   H     0.29616   0.17726   0.25967   0.00000  Uiso   1.00
H129   H     0.86491   0.95373   0.37270   0.00000  Uiso   1.00
O130   O     0.93046   0.40770   0.62353   0.00000  Uiso   1.00
O131   O     0.31162   0.22398   0.15266   0.00000  Uiso   1.00
O132   O     0.74583   0.93071   0.30095   0.00000  Uiso   1.00
N133   N     0.91718   0.36486   0.51637   0.00000  Uiso   1.00
N134   N     0.18881   0.23396   0.18082   0.00000  Uiso   1.00
N135   N     0.78564   0.02496   0.28648   0.00000  Uiso   1.00
N136   N     0.98133   0.32393   0.57870   0.00000  Uiso   1.00
N137   N     0.25297   0.19302   0.24316   0.00000  Uiso   1.00
N138   N     0.84979   0.98403   0.34881   0.00000  Uiso   1.00
C139   C     0.74346   0.59287   0.39988   0.00000  Uiso   1.00
C140   C     0.79060   0.65061   0.40456   0.00000  Uiso   1.00
C141   C     0.77351   0.69821   0.37941   0.00000  Uiso   1.00
C142   C     0.82383   0.74701   0.38881   0.00000  Uiso   1.00
C143   C     0.88713   0.83652   0.39104   0.00000  Uiso   1.00
C144   C     0.72950   0.58162   0.46886   0.00000  Uiso   1.00
C145   C     0.66104   0.57121   0.49776   0.00000  Uiso   1.00
C146   C     0.65993   0.56192   0.56129   0.00000  Uiso   1.00
C147   C     0.62837   0.54428   0.66332   0.00000  Uiso   1.00
C148   C     0.79233   0.54774   0.36831   0.00000  Uiso   1.00
C149   C     0.77668   0.50883   0.31269   0.00000  Uiso   1.00
C150   C     0.82846   0.47101   0.29158   0.00000  Uiso   1.00
C151   C     0.89444   0.40076   0.23750   0.00000  Uiso   1.00
C152   C     0.86321   0.59487   0.46129   0.00000  Uiso   1.00
C153   C     0.85565   0.65170   0.43792   0.00000  Uiso   1.00
C154   C     0.90601   0.70043   0.44736   0.00000  Uiso   1.00
C155   C     0.88900   0.74810   0.42223   0.00000  Uiso   1.00
C156   C     0.79455   0.58271   0.50221   0.00000  Uiso   1.00
C157   C     0.79354   0.57343   0.56571   0.00000  Uiso   1.00
C158   C     0.72509   0.56301   0.59471   0.00000  Uiso   1.00
C159   C     0.85737   0.54883   0.40167   0.00000  Uiso   1.00
C160   C     0.90918   0.51105   0.38064   0.00000  Uiso   1.00
C161   C     0.89362   0.47210   0.32500   0.00000  Uiso   1.00
H162   H     0.69281   0.59202   0.37391   0.00000  Uiso   1.00
H163   H     0.72316   0.69736   0.35360   0.00000  Uiso   1.00
H164   H     0.61071   0.57037   0.47194   0.00000  Uiso   1.00
H165   H     0.72634   0.50800   0.28689   0.00000  Uiso   1.00
H166   H     0.78549   0.81463   0.34582   0.00000  Uiso   1.00
H167   H     0.54838   0.54685   0.59532   0.00000  Uiso   1.00
H168   H     0.79219   0.41534   0.20512   0.00000  Uiso   1.00
H169   H     0.91386   0.59572   0.48727   0.00000  Uiso   1.00
H170   H     0.95634   0.70126   0.47318   0.00000  Uiso   1.00
H171   H     0.84389   0.57427   0.59151   0.00000  Uiso   1.00
H172   H     0.95951   0.51191   0.40647   0.00000  Uiso   1.00
H173   H     0.97474   0.81780   0.44288   0.00000  Uiso   1.00
H174   H     0.73763   0.55002   0.69238   0.00000  Uiso   1.00
H175   H     0.98145   0.41851   0.30217   0.00000  Uiso   1.00
O176   O     0.90406   0.88559   0.38305   0.00000  Uiso   1.00
O177   O     0.59298   0.53426   0.71038   0.00000  Uiso   1.00
O178   O     0.91286   0.36172   0.19845   0.00000  Uiso   1.00
N179   N     0.82421   0.80089   0.37059   0.00000  Uiso   1.00
N180   N     0.60252   0.55054   0.60386   0.00000  Uiso   1.00
N181   N     0.83046   0.42757   0.23906   0.00000  Uiso   1.00
N182   N     0.92604   0.80260   0.42281   0.00000  Uiso   1.00
N183   N     0.70436   0.55224   0.65608   0.00000  Uiso   1.00
N184   N     0.93230   0.42928   0.29128   0.00000  Uiso   1.00
C185   C     0.86696   0.27795   0.85232   0.00000  Uiso   1.00
C186   C     0.90812   0.28970   0.91552   0.00000  Uiso   1.00
C187   C     0.97709   0.27359   0.92475   0.00000  Uiso   1.00
C188   C     0.00530   0.28836   0.98618   0.00000  Uiso   1.00
C189   C     0.07522   0.30209   0.07664   0.00000  Uiso   1.00
C190   C     0.84995   0.33645   0.83858   0.00000  Uiso   1.00
C191   C     0.87001   0.35964   0.78313   0.00000  Uiso   1.00
C192   C     0.84925   0.41376   0.77979   0.00000  Uiso   1.00
C193   C     0.82881   0.50006   0.75078   0.00000  Uiso   1.00
C194   C     0.79310   0.24533   0.86638   0.00000  Uiso   1.00
C195   C     0.76535   0.19191   0.83428   0.00000  Uiso   1.00
C196   C     0.69671   0.16932   0.85433   0.00000  Uiso   1.00
C197   C     0.58801   0.11414   0.86848   0.00000  Uiso   1.00
C198   C     0.79441   0.33285   0.94500   0.00000  Uiso   1.00
C199   C     0.86871   0.31952   0.96585   0.00000  Uiso   1.00
C200   C     0.89683   0.33432   0.02728   0.00000  Uiso   1.00
C201   C     0.96583   0.31823   0.03661   0.00000  Uiso   1.00
C202   C     0.81055   0.36627   0.88892   0.00000  Uiso   1.00
C203   C     0.78975   0.42037   0.88566   0.00000  Uiso   1.00
C204   C     0.80977   0.44364   0.83021   0.00000  Uiso   1.00
C205   C     0.75370   0.27515   0.91671   0.00000  Uiso   1.00
C206   C     0.68509   0.25264   0.93682   0.00000  Uiso   1.00
C207   C     0.65723   0.19919   0.90476   0.00000  Uiso   1.00
H208   H     0.89764   0.25474   0.81313   0.00000  Uiso   1.00
H209   H     0.00757   0.25052   0.88578   0.00000  Uiso   1.00
H210   H     0.90050   0.33655   0.74418   0.00000  Uiso   1.00
H211   H     0.79586   0.16885   0.79533   0.00000  Uiso   1.00
H212   H     0.11209   0.25900   0.98852   0.00000  Uiso   1.00
H213   H     0.88629   0.44040   0.68993   0.00000  Uiso   1.00
H214   H     0.66563   0.08676   0.79779   0.00000  Uiso   1.00
H215   H     0.76373   0.35607   0.98419   0.00000  Uiso   1.00
H216   H     0.86632   0.35740   0.06623   0.00000  Uiso   1.00
H217   H     0.75925   0.44343   0.92462   0.00000  Uiso   1.00
H218   H     0.65461   0.27573   0.97577   0.00000  Uiso   1.00
H219   H     0.99744   0.34575   0.13498   0.00000  Uiso   1.00
H220   H     0.77165   0.52715   0.83638   0.00000  Uiso   1.00
H221   H     0.55099   0.17351   0.94424   0.00000  Uiso   1.00
O222   O     0.12468   0.30144   0.11263   0.00000  Uiso   1.00
O223   O     0.82843   0.53942   0.72088   0.00000  Uiso   1.00
O224   O     0.53894   0.07546   0.86239   0.00000  Uiso   1.00
N225   N     0.07102   0.27922   0.01174   0.00000  Uiso   1.00
N226   N     0.85993   0.44882   0.73257   0.00000  Uiso   1.00
N227   N     0.65362   0.11821   0.83340   0.00000  Uiso   1.00
N228   N     0.00933   0.32590   0.09054   0.00000  Uiso   1.00
N229   N     0.79824   0.49550   0.81138   0.00000  Uiso   1.00
N230   N     0.59193   0.16489   0.91221   0.00000  Uiso   1.00
C231   C     0.51576   0.72965   0.71704   0.00000  Uiso   1.00
C232   C     0.50583   0.79124   0.74767   0.00000  Uiso   1.00
C233   C     0.44479   0.80890   0.78317   0.00000  Uiso   1.00
C234   C     0.44631   0.86715   0.80713   0.00000  Uiso   1.00
C235   C     0.42172   0.95684   0.85641   0.00000  Uiso   1.00
C236   C     0.58681   0.71563   0.74372   0.00000  Uiso   1.00
C237   C     0.59385   0.66972   0.77589   0.00000  Uiso   1.00
C238   C     0.66355   0.66432   0.79652   0.00000  Uiso   1.00
C239   C     0.76468   0.63660   0.83963   0.00000  Uiso   1.00
C240   C     0.53089   0.73143   0.64565   0.00000  Uiso   1.00
C241   C     0.49092   0.69879   0.59536   0.00000  Uiso   1.00
C242   C     0.51355   0.70668   0.53342   0.00000  Uiso   1.00
C243   C     0.52786   0.70349   0.42425   0.00000  Uiso   1.00
C244   C     0.62702   0.80169   0.69646   0.00000  Uiso   1.00
C245   C     0.56627   0.83037   0.73649   0.00000  Uiso   1.00
C246   C     0.56789   0.88861   0.76040   0.00000  Uiso   1.00
C247   C     0.50685   0.90636   0.79593   0.00000  Uiso   1.00
C248   C     0.64724   0.75476   0.73254   0.00000  Uiso   1.00
C249   C     0.71695   0.74943   0.75312   0.00000  Uiso   1.00
C250   C     0.72409   0.70352   0.78532   0.00000  Uiso   1.00
C251   C     0.59132   0.77056   0.63446   0.00000  Uiso   1.00
C252   C     0.61402   0.77850   0.57259   0.00000  Uiso   1.00
C253   C     0.57409   0.74588   0.52222   0.00000  Uiso   1.00
H254   H     0.46871   0.69918   0.72575   0.00000  Uiso   1.00
H255   H     0.39803   0.77861   0.79182   0.00000  Uiso   1.00
H256   H     0.54707   0.63945   0.78453   0.00000  Uiso   1.00
H257   H     0.44416   0.66852   0.60403   0.00000  Uiso   1.00
H258   H     0.34633   0.88392   0.86016   0.00000  Uiso   1.00
H259   H     0.66060   0.59048   0.84478   0.00000  Uiso   1.00
H260   H     0.44358   0.65177   0.46415   0.00000  Uiso   1.00
H261   H     0.67408   0.83215   0.68776   0.00000  Uiso   1.00
H262   H     0.61466   0.91888   0.75174   0.00000  Uiso   1.00
H263   H     0.76370   0.77972   0.74446   0.00000  Uiso   1.00
H264   H     0.66079   0.80879   0.56395   0.00000  Uiso   1.00
H265   H     0.52216   0.99777   0.82763   0.00000  Uiso   1.00
H266   H     0.83642   0.70433   0.81225   0.00000  Uiso   1.00
H267   H     0.61941   0.76562   0.43162   0.00000  Uiso   1.00
O268   O     0.39147   0.99550   0.88669   0.00000  Uiso   1.00
O269   O     0.80377   0.61050   0.86650   0.00000  Uiso   1.00
O270   O     0.51905   0.69093   0.36713   0.00000  Uiso   1.00
N271   N     0.39586   0.89882   0.84371   0.00000  Uiso   1.00
N272   N     0.68968   0.62447   0.82934   0.00000  Uiso   1.00
N273   N     0.48680   0.68176   0.47349   0.00000  Uiso   1.00
N274   N     0.49047   0.96008   0.82621   0.00000  Uiso   1.00
N275   N     0.78429   0.68573   0.81184   0.00000  Uiso   1.00
N276   N     0.58141   0.74303   0.45598   0.00000  Uiso   1.00
C277   C     0.89622   0.11602   0.69852   0.00000  Uiso   1.00
C278   C     0.81596   0.11700   0.68219   0.00000  Uiso   1.00
C279   C     0.78573   0.16321   0.66417   0.00000  Uiso   1.00
C280   C     0.71118   0.15552   0.65122   0.00000  Uiso   1.00
C281   C     0.59306   0.16495   0.62510   0.00000  Uiso   1.00
C282   C     0.92320   0.06516   0.65354   0.00000  Uiso   1.00
C283   C     0.98315   0.06778   0.61143   0.00000  Uiso   1.00
C284   C     0.99888   0.01645   0.57437   0.00000  Uiso   1.00
C285   C     0.04730   0.94539   0.50379   0.00000  Uiso   1.00
C286   C     0.89559   0.10024   0.76601   0.00000  Uiso   1.00
C287   C     0.93235   0.13234   0.81848   0.00000  Uiso   1.00
C288   C     0.92485   0.11053   0.87611   0.00000  Uiso   1.00
C289   C     0.93040   0.09393   0.98017   0.00000  Uiso   1.00
C290   C     0.81756   0.02021   0.70757   0.00000  Uiso   1.00
C291   C     0.77323   0.06496   0.68711   0.00000  Uiso   1.00
C292   C     0.69871   0.05720   0.67419   0.00000  Uiso   1.00
C293   C     0.66838   0.10339   0.65615   0.00000  Uiso   1.00
C294   C     0.88048   0.01312   0.65845   0.00000  Uiso   1.00
C295   C     0.89613   0.96177   0.62144   0.00000  Uiso   1.00
C296   C     0.95609   0.96432   0.57929   0.00000  Uiso   1.00
C297   C     0.85287   0.04819   0.77093   0.00000  Uiso   1.00
C298   C     0.84532   0.02633   0.82849   0.00000  Uiso   1.00
C299   C     0.88205   0.05839   0.88104   0.00000  Uiso   1.00
H300   H     0.92948   0.15654   0.69469   0.00000  Uiso   1.00
H301   H     0.81882   0.20348   0.66037   0.00000  Uiso   1.00
H302   H     0.01621   0.10806   0.60764   0.00000  Uiso   1.00
H303   H     0.96540   0.17261   0.81466   0.00000  Uiso   1.00
H304   H     0.67729   0.23256   0.62446   0.00000  Uiso   1.00
H305   H     0.09352   0.03137   0.51330   0.00000  Uiso   1.00
H306   H     0.98639   0.16748   0.94984   0.00000  Uiso   1.00
H307   H     0.78430   0.97969   0.71139   0.00000  Uiso   1.00
H308   H     0.66566   0.01692   0.67799   0.00000  Uiso   1.00
H309   H     0.86306   0.92151   0.62527   0.00000  Uiso   1.00
H310   H     0.81225   0.98606   0.83228   0.00000  Uiso   1.00
H311   H     0.55298   0.08114   0.63877   0.00000  Uiso   1.00
H312   H     0.96922   0.87996   0.52761   0.00000  Uiso   1.00
H313   H     0.86208   0.01607   0.96414   0.00000  Uiso   1.00
O314   O     0.53972   0.18453   0.60932   0.00000  Uiso   1.00
O315   O     0.08580   0.92058   0.46349   0.00000  Uiso   1.00
O316   O     0.94525   0.09915   0.03621   0.00000  Uiso   1.00
N317   N     0.66431   0.19182   0.63243   0.00000  Uiso   1.00
N318   N     0.05345   0.00372   0.52849   0.00000  Uiso   1.00
N319   N     0.95332   0.13096   0.93661   0.00000  Uiso   1.00
N320   N     0.59742   0.11034   0.64012   0.00000  Uiso   1.00
N321   N     0.98657   0.92224   0.53619   0.00000  Uiso   1.00
N322   N     0.88643   0.04949   0.94431   0.00000  Uiso   1.00
C323   C     0.82771   0.70953   0.12556   0.00000  Uiso   1.00
C324   C     0.78248   0.65240   0.10237   0.00000  Uiso   1.00
C325   C     0.71722   0.63161   0.13028   0.00000  Uiso   1.00
C326   C     0.68423   0.57842   0.10185   0.00000  Uiso   1.00
C327   C     0.60922   0.49448   0.07409   0.00000  Uiso   1.00
C328   C     0.83552   0.74204   0.06825   0.00000  Uiso   1.00
C329   C     0.81487   0.79662   0.06749   0.00000  Uiso   1.00
C330   C     0.82655   0.81888   0.01035   0.00000  Uiso   1.00
C331   C     0.83394   0.87413   0.92963   0.00000  Uiso   1.00
C332   C     0.90452   0.69474   0.13746   0.00000  Uiso   1.00
C333   C     0.94189   0.70956   0.19488   0.00000  Uiso   1.00
C334   C     0.01167   0.69201   0.19600   0.00000  Uiso   1.00
C335   C     0.12620   0.67381   0.22273   0.00000  Uiso   1.00
C336   C     0.88519   0.65202   0.02545   0.00000  Uiso   1.00
C337   C     0.81370   0.62117   0.04798   0.00000  Uiso   1.00
C338   C     0.78080   0.56799   0.01951   0.00000  Uiso   1.00
C339   C     0.71550   0.54712   0.04738   0.00000  Uiso   1.00
C340   C     0.86674   0.71081   0.01387   0.00000  Uiso   1.00
C341   C     0.87846   0.73300   0.95672   0.00000  Uiso   1.00
C342   C     0.85782   0.78760   0.95587   0.00000  Uiso   1.00
C343   C     0.93574   0.66350   0.08308   0.00000  Uiso   1.00
C344   C     0.00548   0.64593   0.08411   0.00000  Uiso   1.00
C345   C     0.04295   0.66072   0.14152   0.00000  Uiso   1.00
H346   H     0.80341   0.73385   0.16790   0.00000  Uiso   1.00
H347   H     0.69307   0.65580   0.17236   0.00000  Uiso   1.00
H348   H     0.79072   0.82078   0.10958   0.00000  Uiso   1.00
H349   H     0.91772   0.73373   0.23695   0.00000  Uiso   1.00
H350   H     0.58449   0.55550   0.15331   0.00000  Uiso   1.00
H351   H     0.79041   0.90339   0.02094   0.00000  Uiso   1.00
H352   H     0.05822   0.71982   0.28952   0.00000  Uiso   1.00
H353   H     0.90949   0.62771   0.98311   0.00000  Uiso   1.00
H354   H     0.80497   0.54383   0.97743   0.00000  Uiso   1.00
H355   H     0.90262   0.70882   0.91465   0.00000  Uiso   1.00
H356   H     0.02962   0.62176   0.04202   0.00000  Uiso   1.00
H357   H     0.67531   0.46463   0.99509   0.00000  Uiso   1.00
H358   H     0.88124   0.81252   0.86273   0.00000  Uiso   1.00
H359   H     0.14904   0.62895   0.13131   0.00000  Uiso   1.00
O360   O     0.55922   0.45681   0.07379   0.00000  Uiso   1.00
O361   O     0.82939   0.91323   0.90013   0.00000  Uiso   1.00
O362   O     0.18074   0.67239   0.25251   0.00000  Uiso   1.00
N363   N     0.62022   0.54562   0.11686   0.00000  Uiso   1.00
N364   N     0.81273   0.87087   0.99310   0.00000  Uiso   1.00
N365   N     0.06311   0.69926   0.24420   0.00000  Uiso   1.00
N366   N     0.66909   0.49672   0.03173   0.00000  Uiso   1.00
N367   N     0.86160   0.82197   0.90797   0.00000  Uiso   1.00
N368   N     0.11198   0.65036   0.15907   0.00000  Uiso   1.00
C369   C     0.25798   0.76011   0.61949   0.00000  Uiso   1.00
C370   C     0.25270   0.72800   0.55078   0.00000  Uiso   1.00
C371   C     0.28266   0.67715   0.52770   0.00000  Uiso   1.00
C372   C     0.27176   0.65458   0.46335   0.00000  Uiso   1.00
C373   C     0.26955   0.60055   0.36272   0.00000  Uiso   1.00
C374   C     0.17908   0.76591   0.64326   0.00000  Uiso   1.00
C375   C     0.14714   0.74693   0.69795   0.00000  Uiso   1.00
C376   C     0.07427   0.75629   0.71146   0.00000  Uiso   1.00
C377   C     0.95776   0.76115   0.75444   0.00000  Uiso   1.00
C378   C     0.29237   0.82092   0.61423   0.00000  Uiso   1.00
C379   C     0.35568   0.84821   0.64453   0.00000  Uiso   1.00
C380   C     0.37818   0.90389   0.63361   0.00000  Uiso   1.00
C381   C     0.43758   0.99417   0.63152   0.00000  Uiso   1.00
C382   C     0.18536   0.81047   0.54624   0.00000  Uiso   1.00
C383   C     0.21326   0.75535   0.51099   0.00000  Uiso   1.00
C384   C     0.20232   0.73286   0.44666   0.00000  Uiso   1.00
C385   C     0.23225   0.68198   0.42350   0.00000  Uiso   1.00
C386   C     0.13964   0.79326   0.60348   0.00000  Uiso   1.00
C387   C     0.06680   0.80265   0.61691   0.00000  Uiso   1.00
C388   C     0.03475   0.78369   0.67161   0.00000  Uiso   1.00
C389   C     0.25293   0.84827   0.57445   0.00000  Uiso   1.00
C390   C     0.27534   0.90393   0.56348   0.00000  Uiso   1.00
C391   C     0.33867   0.93129   0.59375   0.00000  Uiso   1.00
H392   H     0.28868   0.73881   0.65047   0.00000  Uiso   1.00
H393   H     0.31317   0.65599   0.55851   0.00000  Uiso   1.00
H394   H     0.17768   0.72577   0.72874   0.00000  Uiso   1.00
H395   H     0.38618   0.82703   0.67531   0.00000  Uiso   1.00
H396   H     0.32291   0.57621   0.43902   0.00000  Uiso   1.00
H397   H     0.03722   0.72337   0.79796   0.00000  Uiso   1.00
H398   H     0.47690   0.93690   0.68532   0.00000  Uiso   1.00
H399   H     0.15465   0.83176   0.51527   0.00000  Uiso   1.00
H400   H     0.17180   0.75404   0.41589   0.00000  Uiso   1.00
H401   H     0.03630   0.82382   0.58612   0.00000  Uiso   1.00
H402   H     0.24481   0.92508   0.53269   0.00000  Uiso   1.00
H403   H     0.20816   0.65579   0.32326   0.00000  Uiso   1.00
H404   H     0.92247   0.80296   0.68221   0.00000  Uiso   1.00
H405   H     0.36215   0.01648   0.56956   0.00000  Uiso   1.00
O406   O     0.27921   0.56319   0.31821   0.00000  Uiso   1.00
O407   O     0.90440   0.75626   0.78914   0.00000  Uiso   1.00
O408   O     0.48125   0.03640   0.64134   0.00000  Uiso   1.00
N409   N     0.29356   0.60562   0.42541   0.00000  Uiso   1.00
N410   N     0.02645   0.74319   0.76100   0.00000  Uiso   1.00
N411   N     0.43751   0.94283   0.65570   0.00000  Uiso   1.00
N412   N     0.23182   0.64844   0.36312   0.00000  Uiso   1.00
N413   N     0.96471   0.78601   0.69871   0.00000  Uiso   1.00
N414   N     0.37576   0.98565   0.59341   0.00000  Uiso   1.00
C415   C     0.46406   0.37961   0.54916   0.00000  Uiso   1.00
C416   C     0.41859   0.32117   0.54492   0.00000  Uiso   1.00
C417   C     0.43745   0.27421   0.57030   0.00000  Uiso   1.00
C418   C     0.38848   0.22461   0.56130   0.00000  Uiso   1.00
C419   C     0.32785   0.13424   0.55974   0.00000  Uiso   1.00
C420   C     0.47710   0.39068   0.48003   0.00000  Uiso   1.00
C421   C     0.54516   0.40217   0.45086   0.00000  Uiso   1.00
C422   C     0.54544   0.41108   0.38723   0.00000  Uiso   1.00
C423   C     0.57565   0.42868   0.28495   0.00000  Uiso   1.00
C424   C     0.41391   0.42382   0.58063   0.00000  Uiso   1.00
C425   C     0.42883   0.46319   0.63603   0.00000  Uiso   1.00
C426   C     0.37591   0.50002   0.65709   0.00000  Uiso   1.00
C427   C     0.30799   0.56907   0.71101   0.00000  Uiso   1.00
C428   C     0.34355   0.37503   0.48804   0.00000  Uiso   1.00
C429   C     0.35314   0.31869   0.51172   0.00000  Uiso   1.00
C430   C     0.30412   0.26914   0.50268   0.00000  Uiso   1.00
C431   C     0.32290   0.22211   0.52804   0.00000  Uiso   1.00
C432   C     0.41165   0.38819   0.44683   0.00000  Uiso   1.00
C433   C     0.41183   0.39710   0.38324   0.00000  Uiso   1.00
C434   C     0.47986   0.40859   0.35398   0.00000  Uiso   1.00
C435   C     0.34845   0.42134   0.54743   0.00000  Uiso   1.00
C436   C     0.29549   0.45812   0.56841   0.00000  Uiso   1.00
C437   C     0.31033   0.49753   0.62384   0.00000  Uiso   1.00
H438   H     0.51503   0.38154   0.57500   0.00000  Uiso   1.00
H439   H     0.48812   0.27615   0.59598   0.00000  Uiso   1.00
H440   H     0.59580   0.40410   0.47656   0.00000  Uiso   1.00
H441   H     0.47949   0.46510   0.66171   0.00000  Uiso   1.00
H442   H     0.42943   0.15820   0.60459   0.00000  Uiso   1.00
H443   H     0.65649   0.42800   0.35279   0.00000  Uiso   1.00
H444   H     0.41123   0.55664   0.74320   0.00000  Uiso   1.00
H445   H     0.29259   0.37309   0.46219   0.00000  Uiso   1.00
H446   H     0.25347   0.26723   0.47699   0.00000  Uiso   1.00
H447   H     0.36116   0.39518   0.35757   0.00000  Uiso   1.00
H448   H     0.24485   0.45618   0.54271   0.00000  Uiso   1.00
H449   H     0.23898   0.15096   0.50800   0.00000  Uiso   1.00
H450   H     0.46605   0.42076   0.25621   0.00000  Uiso   1.00
H451   H     0.22078   0.54940   0.64662   0.00000  Uiso   1.00
O452   O     0.31250   0.08509   0.56804   0.00000  Uiso   1.00
O453   O     0.61040   0.43906   0.23770   0.00000  Uiso   1.00
O454   O     0.28861   0.60784   0.74992   0.00000  Uiso   1.00
N455   N     0.38997   0.17103   0.57984   0.00000  Uiso   1.00
N456   N     0.60226   0.42326   0.34442   0.00000  Uiso   1.00
N457   N     0.37297   0.54355   0.70941   0.00000  Uiso   1.00
N458   N     0.28749   0.16713   0.52787   0.00000  Uiso   1.00
N459   N     0.49978   0.41937   0.29245   0.00000  Uiso   1.00
N460   N     0.27049   0.53965   0.65744   0.00000  Uiso   1.00
C461   C     0.34558   0.69777   0.09276   0.00000  Uiso   1.00
C462   C     0.30356   0.68681   0.03003   0.00000  Uiso   1.00
C463   C     0.23466   0.70351   0.02180   0.00000  Uiso   1.00
C464   C     0.20557   0.68942   0.96065   0.00000  Uiso   1.00
C465   C     0.13445   0.67691   0.87102   0.00000  Uiso   1.00
C466   C     0.36225   0.63890   0.10558   0.00000  Uiso   1.00
C467   C     0.34270   0.61532   0.16088   0.00000  Uiso   1.00
C468   C     0.36303   0.56090   0.16333   0.00000  Uiso   1.00
C469   C     0.38307   0.47402   0.19101   0.00000  Uiso   1.00
C470   C     0.41950   0.73008   0.07827   0.00000  Uiso   1.00
C471   C     0.44810   0.78317   0.11062   0.00000  Uiso   1.00
C472   C     0.51664   0.80551   0.09008   0.00000  Uiso   1.00
C473   C     0.62558   0.86021   0.07536   0.00000  Uiso   1.00
C474   C     0.41647   0.64304   0.99879   0.00000  Uiso   1.00
C475   C     0.34207   0.65709   0.97899   0.00000  Uiso   1.00
C476   C     0.31308   0.64297   0.91783   0.00000  Uiso   1.00
C477   C     0.24414   0.65965   0.90951   0.00000  Uiso   1.00
C478   C     0.40075   0.60917   0.05454   0.00000  Uiso   1.00
C479   C     0.42112   0.55478   0.05691   0.00000  Uiso   1.00
C480   C     0.40160   0.53112   0.11219   0.00000  Uiso   1.00
C481   C     0.45801   0.70036   0.02723   0.00000  Uiso   1.00
C482   C     0.52652   0.72262   0.00664   0.00000  Uiso   1.00
C483   C     0.55521   0.77574   0.03895   0.00000  Uiso   1.00
H484   H     0.31561   0.72090   0.13250   0.00000  Uiso   1.00
H485   H     0.20488   0.72651   0.06132   0.00000  Uiso   1.00
H486   H     0.31291   0.63833   0.20037   0.00000  Uiso   1.00
H487   H     0.41829   0.80616   0.15011   0.00000  Uiso   1.00
H488   H     0.09907   0.71960   0.95989   0.00000  Uiso   1.00
H489   H     0.32689   0.53368   0.25311   0.00000  Uiso   1.00
H490   H     0.54911   0.88757   0.14714   0.00000  Uiso   1.00
H491   H     0.44644   0.61990   0.95905   0.00000  Uiso   1.00
H492   H     0.34288   0.61997   0.87834   0.00000  Uiso   1.00
H493   H     0.45092   0.53179   0.01740   0.00000  Uiso   1.00
H494   H     0.55630   0.69961   0.96714   0.00000  Uiso   1.00
H495   H     0.21108   0.63312   0.81138   0.00000  Uiso   1.00
H496   H     0.43890   0.44721   0.10460   0.00000  Uiso   1.00
H497   H     0.66112   0.80109   0.99863   0.00000  Uiso   1.00
O498   O     0.08458   0.67821   0.83568   0.00000  Uiso   1.00
O499   O     0.38348   0.43430   0.22038   0.00000  Uiso   1.00
O500   O     0.67502   0.89859   0.08134   0.00000  Uiso   1.00
N501   N     0.13965   0.69925   0.93601   0.00000  Uiso   1.00
N502   N     0.35264   0.52542   0.21015   0.00000  Uiso   1.00
N503   N     0.56040   0.85627   0.11108   0.00000  Uiso   1.00
N504   N     0.19993   0.65272   0.85610   0.00000  Uiso   1.00
N505   N     0.41291   0.47889   0.13024   0.00000  Uiso   1.00
N506   N     0.62067   0.80974   0.03117   0.00000  Uiso   1.00
C507   C     0.69927   0.24650   0.22685   0.00000  Uiso   1.00
C508   C     0.70901   0.18475   0.19667   0.00000  Uiso   1.00
C509   C     0.77027   0.16671   0.16179   0.00000  Uiso   1.00
C510   C     0.76852   0.10838   0.13815   0.00000  Uiso   1.00
C511   C     0.79288   0.01842   0.08960   0.00000  Uiso   1.00
C512   C     0.62874   0.26068   0.19943   0.00000  Uiso   1.00
C513   C     0.62251   0.30649   0.16687   0.00000  Uiso   1.00
C514   C     0.55318   0.31209   0.14556   0.00000  Uiso   1.00
C515   C     0.45292   0.34004   0.10134   0.00000  Uiso   1.00
C516   C     0.68328   0.24505   0.29819   0.00000  Uiso   1.00
C517   C     0.72288   0.27772   0.34868   0.00000  Uiso   1.00
C518   C     0.69945   0.27016   0.41054   0.00000  Uiso   1.00
C519   C     0.68386   0.27383   0.51966   0.00000  Uiso   1.00
C520   C     0.58723   0.17499   0.24691   0.00000  Uiso   1.00
C521   C     0.64815   0.14591   0.20757   0.00000  Uiso   1.00
C522   C     0.64631   0.08760   0.18398   0.00000  Uiso   1.00
C523   C     0.70755   0.06947   0.14907   0.00000  Uiso   1.00
C524   C     0.56789   0.22185   0.21032   0.00000  Uiso   1.00
C525   C     0.49855   0.22738   0.18906   0.00000  Uiso   1.00
C526   C     0.49222   0.27318   0.15648   0.00000  Uiso   1.00
C527   C     0.62242   0.20621   0.30909   0.00000  Uiso   1.00
C528   C     0.59892   0.19860   0.37088   0.00000  Uiso   1.00
C529   C     0.63848   0.23125   0.42145   0.00000  Uiso   1.00
H530   H     0.74665   0.27674   0.21836   0.00000  Uiso   1.00
H531   H     0.81735   0.19678   0.15336   0.00000  Uiso   1.00
H532   H     0.66962   0.33654   0.15845   0.00000  Uiso   1.00
H533   H     0.76997   0.30777   0.34023   0.00000  Uiso   1.00
H534   H     0.86889   0.09101   0.08607   0.00000  Uiso   1.00
H535   H     0.55738   0.38572   0.09682   0.00000  Uiso   1.00
H536   H     0.76899   0.32505   0.48015   0.00000  Uiso   1.00
H537   H     0.53985   0.14475   0.25540   0.00000  Uiso   1.00
H538   H     0.59920   0.05755   0.19242   0.00000  Uiso   1.00
H539   H     0.45147   0.19732   0.19751   0.00000  Uiso   1.00
H540   H     0.55182   0.16854   0.37929   0.00000  Uiso   1.00
H541   H     0.69183   0.97801   0.11777   0.00000  Uiso   1.00
H542   H     0.38032   0.27272   0.12852   0.00000  Uiso   1.00
H543   H     0.59194   0.21205   0.51186   0.00000  Uiso   1.00
O544   O     0.82313   0.97953   0.05981   0.00000  Uiso   1.00
O545   O     0.41444   0.36618   0.07392   0.00000  Uiso   1.00
O546   O     0.69207   0.28658   0.57684   0.00000  Uiso   1.00
N547   N     0.81908   0.07638   0.10219   0.00000  Uiso   1.00
N548   N     0.52784   0.35191   0.11223   0.00000  Uiso   1.00
N549   N     0.72567   0.29520   0.47061   0.00000  Uiso   1.00
N550   N     0.72381   0.01558   0.11925   0.00000  Uiso   1.00
N551   N     0.43256   0.29110   0.12929   0.00000  Uiso   1.00
N552   N     0.63040   0.23440   0.48767   0.00000  Uiso   1.00
