data_job_02251
_audit_creation_date              2018-12-19
_audit_creation_method            'Materials Studio'
_symmetry_space_group_name_H-M    'P1'
_symmetry_Int_Tables_number       1
_symmetry_cell_setting            triclinic
loop_
_symmetry_equiv_pos_as_xyz
  x,y,z
_cell_length_a                    20.6006
_cell_length_b                    18.6089
_cell_length_c                    9.5128
_cell_angle_alpha                 90.0000
_cell_angle_beta                  93.7655
_cell_angle_gamma                 90.0000
loop_
_atom_site_label
_atom_site_type_symbol
_atom_site_fract_x
_atom_site_fract_y
_atom_site_fract_z
_atom_site_U_iso_or_equiv
_atom_site_adp_type
_atom_site_occupancy
C1     C     0.64794   0.00861   0.79067   0.00000  Uiso   1.00
C2     C     0.72026   0.00533   0.83614   0.00000  Uiso   1.00
C3     C     0.74976   0.95521   0.92754   0.00000  Uiso   1.00
C4     C     0.81650   0.96134   0.95589   0.00000  Uiso   1.00
C5     C     0.92332   0.94801   0.03583   0.00000  Uiso   1.00
C6     C     0.62540   0.08376   0.82882   0.00000  Uiso   1.00
C7     C     0.57514   0.09958   0.91404   0.00000  Uiso   1.00
C8     C     0.56204   0.17174   0.93619   0.00000  Uiso   1.00
C9     C     0.52156   0.28017   0.00467   0.00000  Uiso   1.00
C10    C     0.64345   0.00528   0.63016   0.00000  Uiso   1.00
C11    C     0.60836   0.95511   0.54834   0.00000  Uiso   1.00
C12    C     0.61044   0.96120   0.40323   0.00000  Uiso   1.00
C13    C     0.59799   0.94777   0.16327   0.00000  Uiso   1.00
C14    C     0.71402   0.10863   0.67846   0.00000  Uiso   1.00
C15    C     0.75615   0.05966   0.77520   0.00000  Uiso   1.00
C16    C     0.82287   0.06587   0.80340   0.00000  Uiso   1.00
C17    C     0.85246   0.01576   0.89483   0.00000  Uiso   1.00
C18    C     0.66129   0.13809   0.76788   0.00000  Uiso   1.00
C19    C     0.64825   0.21024   0.78990   0.00000  Uiso   1.00
C20    C     0.59799   0.22616   0.87514   0.00000  Uiso   1.00
C21    C     0.67935   0.05960   0.56921   0.00000  Uiso   1.00
C22    C     0.68147   0.06577   0.42420   0.00000  Uiso   1.00
C23    C     0.64639   0.01563   0.34218   0.00000  Uiso   1.00
H24    H     0.62000   0.96632   0.83812   0.00000  Uiso   1.00
H25    H     0.72196   0.91318   0.97470   0.00000  Uiso   1.00
H26    H     0.54737   0.05753   0.96118   0.00000  Uiso   1.00
H27    H     0.58059   0.91308   0.59554   0.00000  Uiso   1.00
H28    H     0.85083   0.87824   0.09929   0.00000  Uiso   1.00
H29    H     0.48269   0.18260   0.07074   0.00000  Uiso   1.00
H30    H     0.55272   0.87801   0.29972   0.00000  Uiso   1.00
H31    H     0.74197   0.15093   0.63101   0.00000  Uiso   1.00
H32    H     0.85063   0.10792   0.75623   0.00000  Uiso   1.00
H33    H     0.67604   0.25227   0.74271   0.00000  Uiso   1.00
H34    H     0.70925   0.10782   0.37708   0.00000  Uiso   1.00
H35    H     0.95526   0.03630   0.92197   0.00000  Uiso   1.00
H36    H     0.58711   0.34067   0.89343   0.00000  Uiso   1.00
H37    H     0.65716   0.03607   0.12241   0.00000  Uiso   1.00
O38    O     0.97232   0.92566   0.09677   0.00000  Uiso   1.00
O39    O     0.48932   0.32497   0.05930   0.00000  Uiso   1.00
O40    O     0.58121   0.92536   0.04774   0.00000  Uiso   1.00
N41    N     0.86050   0.92133   0.04035   0.00000  Uiso   1.00
N42    N     0.51631   0.20590   0.01368   0.00000  Uiso   1.00
N43    N     0.58178   0.92114   0.29284   0.00000  Uiso   1.00
N44    N     0.91669   0.00638   0.94494   0.00000  Uiso   1.00
N45    N     0.57251   0.29095   0.91827   0.00000  Uiso   1.00
N46    N     0.63797   0.00619   0.19743   0.00000  Uiso   1.00
C47    C     0.35206   0.50861   0.70933   0.00000  Uiso   1.00
C48    C     0.27974   0.50533   0.66386   0.00000  Uiso   1.00
C49    C     0.25024   0.45521   0.57246   0.00000  Uiso   1.00
C50    C     0.18350   0.46134   0.54411   0.00000  Uiso   1.00
C51    C     0.07668   0.44801   0.46417   0.00000  Uiso   1.00
C52    C     0.37460   0.58376   0.67118   0.00000  Uiso   1.00
C53    C     0.42486   0.59958   0.58596   0.00000  Uiso   1.00
C54    C     0.43796   0.67174   0.56381   0.00000  Uiso   1.00
C55    C     0.47844   0.78017   0.49533   0.00000  Uiso   1.00
C56    C     0.35655   0.50528   0.86984   0.00000  Uiso   1.00
C57    C     0.39164   0.45511   0.95166   0.00000  Uiso   1.00
C58    C     0.38956   0.46120   0.09677   0.00000  Uiso   1.00
C59    C     0.40201   0.44777   0.33673   0.00000  Uiso   1.00
C60    C     0.28598   0.60863   0.82154   0.00000  Uiso   1.00
C61    C     0.24385   0.55966   0.72480   0.00000  Uiso   1.00
C62    C     0.17713   0.56587   0.69660   0.00000  Uiso   1.00
C63    C     0.14754   0.51576   0.60517   0.00000  Uiso   1.00
C64    C     0.33871   0.63809   0.73212   0.00000  Uiso   1.00
C65    C     0.35175   0.71024   0.71010   0.00000  Uiso   1.00
C66    C     0.40201   0.72616   0.62486   0.00000  Uiso   1.00
C67    C     0.32065   0.55960   0.93079   0.00000  Uiso   1.00
C68    C     0.31853   0.56577   0.07580   0.00000  Uiso   1.00
C69    C     0.35361   0.51563   0.15782   0.00000  Uiso   1.00
H70    H     0.38000   0.46632   0.66188   0.00000  Uiso   1.00
H71    H     0.27804   0.41318   0.52530   0.00000  Uiso   1.00
H72    H     0.45263   0.55753   0.53882   0.00000  Uiso   1.00
H73    H     0.41941   0.41308   0.90446   0.00000  Uiso   1.00
H74    H     0.14917   0.37824   0.40071   0.00000  Uiso   1.00
H75    H     0.51731   0.68260   0.42926   0.00000  Uiso   1.00
H76    H     0.44728   0.37801   0.20028   0.00000  Uiso   1.00
H77    H     0.25803   0.65093   0.86899   0.00000  Uiso   1.00
H78    H     0.14937   0.60792   0.74377   0.00000  Uiso   1.00
H79    H     0.32396   0.75227   0.75729   0.00000  Uiso   1.00
H80    H     0.29075   0.60782   0.12292   0.00000  Uiso   1.00
H81    H     0.04474   0.53630   0.57803   0.00000  Uiso   1.00
H82    H     0.41289   0.84067   0.60657   0.00000  Uiso   1.00
H83    H     0.34284   0.53607   0.37759   0.00000  Uiso   1.00
O84    O     0.02768   0.42566   0.40323   0.00000  Uiso   1.00
O85    O     0.51068   0.82497   0.44070   0.00000  Uiso   1.00
O86    O     0.41879   0.42536   0.45226   0.00000  Uiso   1.00
N87    N     0.13950   0.42133   0.45965   0.00000  Uiso   1.00
N88    N     0.48369   0.70590   0.48632   0.00000  Uiso   1.00
N89    N     0.41822   0.42114   0.20716   0.00000  Uiso   1.00
N90    N     0.08331   0.50638   0.55506   0.00000  Uiso   1.00
N91    N     0.42749   0.79095   0.58173   0.00000  Uiso   1.00
N92    N     0.36203   0.50619   0.30257   0.00000  Uiso   1.00
C93    C     0.35206   0.99139   0.20933   0.00000  Uiso   1.00
C94    C     0.27974   0.99467   0.16386   0.00000  Uiso   1.00
C95    C     0.25024   0.04479   0.07246   0.00000  Uiso   1.00
C96    C     0.18350   0.03866   0.04411   0.00000  Uiso   1.00
C97    C     0.07668   0.05199   0.96417   0.00000  Uiso   1.00
C98    C     0.37460   0.91624   0.17118   0.00000  Uiso   1.00
C99    C     0.42486   0.90042   0.08596   0.00000  Uiso   1.00
C100   C     0.43796   0.82826   0.06381   0.00000  Uiso   1.00
C101   C     0.47844   0.71983   0.99533   0.00000  Uiso   1.00
C102   C     0.35655   0.99472   0.36984   0.00000  Uiso   1.00
C103   C     0.39164   0.04489   0.45166   0.00000  Uiso   1.00
C104   C     0.38956   0.03880   0.59677   0.00000  Uiso   1.00
C105   C     0.40201   0.05223   0.83673   0.00000  Uiso   1.00
C106   C     0.28598   0.89137   0.32154   0.00000  Uiso   1.00
C107   C     0.24385   0.94034   0.22480   0.00000  Uiso   1.00
C108   C     0.17713   0.93413   0.19660   0.00000  Uiso   1.00
C109   C     0.14754   0.98424   0.10517   0.00000  Uiso   1.00
C110   C     0.33871   0.86191   0.23212   0.00000  Uiso   1.00
C111   C     0.35175   0.78976   0.21010   0.00000  Uiso   1.00
C112   C     0.40201   0.77384   0.12486   0.00000  Uiso   1.00
C113   C     0.32065   0.94040   0.43079   0.00000  Uiso   1.00
C114   C     0.31853   0.93423   0.57580   0.00000  Uiso   1.00
C115   C     0.35361   0.98437   0.65782   0.00000  Uiso   1.00
H116   H     0.38000   0.03368   0.16188   0.00000  Uiso   1.00
H117   H     0.27804   0.08682   0.02530   0.00000  Uiso   1.00
H118   H     0.45263   0.94247   0.03882   0.00000  Uiso   1.00
H119   H     0.41941   0.08692   0.40446   0.00000  Uiso   1.00
H120   H     0.14917   0.12176   0.90071   0.00000  Uiso   1.00
H121   H     0.51731   0.81740   0.92926   0.00000  Uiso   1.00
H122   H     0.44728   0.12199   0.70028   0.00000  Uiso   1.00
H123   H     0.25803   0.84907   0.36899   0.00000  Uiso   1.00
H124   H     0.14937   0.89208   0.24377   0.00000  Uiso   1.00
H125   H     0.32396   0.74773   0.25729   0.00000  Uiso   1.00
H126   H     0.29075   0.89218   0.62292   0.00000  Uiso   1.00
H127   H     0.04474   0.96370   0.07803   0.00000  Uiso   1.00
H128   H     0.41289   0.65933   0.10657   0.00000  Uiso   1.00
H129   H     0.34284   0.96393   0.87759   0.00000  Uiso   1.00
O130   O     0.02768   0.07434   0.90323   0.00000  Uiso   1.00
O131   O     0.51068   0.67503   0.94070   0.00000  Uiso   1.00
O132   O     0.41879   0.07464   0.95226   0.00000  Uiso   1.00
N133   N     0.13950   0.07867   0.95965   0.00000  Uiso   1.00
N134   N     0.48369   0.79410   0.98632   0.00000  Uiso   1.00
N135   N     0.41822   0.07886   0.70716   0.00000  Uiso   1.00
N136   N     0.08331   0.99362   0.05506   0.00000  Uiso   1.00
N137   N     0.42749   0.70905   0.08173   0.00000  Uiso   1.00
N138   N     0.36203   0.99381   0.80257   0.00000  Uiso   1.00
C139   C     0.64794   0.49139   0.29067   0.00000  Uiso   1.00
C140   C     0.72026   0.49467   0.33614   0.00000  Uiso   1.00
C141   C     0.74976   0.54479   0.42754   0.00000  Uiso   1.00
C142   C     0.81650   0.53866   0.45589   0.00000  Uiso   1.00
C143   C     0.92332   0.55199   0.53583   0.00000  Uiso   1.00
C144   C     0.62540   0.41624   0.32882   0.00000  Uiso   1.00
C145   C     0.57514   0.40042   0.41404   0.00000  Uiso   1.00
C146   C     0.56204   0.32826   0.43619   0.00000  Uiso   1.00
C147   C     0.52156   0.21983   0.50467   0.00000  Uiso   1.00
C148   C     0.64345   0.49472   0.13016   0.00000  Uiso   1.00
C149   C     0.60836   0.54489   0.04834   0.00000  Uiso   1.00
C150   C     0.61044   0.53880   0.90323   0.00000  Uiso   1.00
C151   C     0.59799   0.55223   0.66327   0.00000  Uiso   1.00
C152   C     0.71402   0.39137   0.17846   0.00000  Uiso   1.00
C153   C     0.75615   0.44034   0.27520   0.00000  Uiso   1.00
C154   C     0.82287   0.43413   0.30340   0.00000  Uiso   1.00
C155   C     0.85246   0.48424   0.39483   0.00000  Uiso   1.00
C156   C     0.66129   0.36191   0.26788   0.00000  Uiso   1.00
C157   C     0.64825   0.28976   0.28990   0.00000  Uiso   1.00
C158   C     0.59799   0.27384   0.37514   0.00000  Uiso   1.00
C159   C     0.67935   0.44040   0.06921   0.00000  Uiso   1.00
C160   C     0.68147   0.43423   0.92420   0.00000  Uiso   1.00
C161   C     0.64639   0.48437   0.84218   0.00000  Uiso   1.00
H162   H     0.62000   0.53368   0.33812   0.00000  Uiso   1.00
H163   H     0.72196   0.58682   0.47470   0.00000  Uiso   1.00
H164   H     0.54737   0.44247   0.46118   0.00000  Uiso   1.00
H165   H     0.58059   0.58692   0.09554   0.00000  Uiso   1.00
H166   H     0.85083   0.62176   0.59929   0.00000  Uiso   1.00
H167   H     0.48269   0.31740   0.57074   0.00000  Uiso   1.00
H168   H     0.55272   0.62199   0.79972   0.00000  Uiso   1.00
H169   H     0.74197   0.34907   0.13101   0.00000  Uiso   1.00
H170   H     0.85063   0.39208   0.25623   0.00000  Uiso   1.00
H171   H     0.67604   0.24773   0.24271   0.00000  Uiso   1.00
H172   H     0.70925   0.39218   0.87708   0.00000  Uiso   1.00
H173   H     0.95526   0.46370   0.42197   0.00000  Uiso   1.00
H174   H     0.58711   0.15933   0.39343   0.00000  Uiso   1.00
H175   H     0.65716   0.46393   0.62241   0.00000  Uiso   1.00
O176   O     0.97232   0.57434   0.59677   0.00000  Uiso   1.00
O177   O     0.48932   0.17503   0.55930   0.00000  Uiso   1.00
O178   O     0.58121   0.57464   0.54774   0.00000  Uiso   1.00
N179   N     0.86050   0.57867   0.54035   0.00000  Uiso   1.00
N180   N     0.51631   0.29410   0.51368   0.00000  Uiso   1.00
N181   N     0.58178   0.57886   0.79284   0.00000  Uiso   1.00
N182   N     0.91669   0.49362   0.44494   0.00000  Uiso   1.00
N183   N     0.57251   0.20905   0.41827   0.00000  Uiso   1.00
N184   N     0.63797   0.49381   0.69743   0.00000  Uiso   1.00
