data_job_01296
_audit_creation_date              2018-12-19
_audit_creation_method            'Materials Studio'
_symmetry_space_group_name_H-M    'P1'
_symmetry_Int_Tables_number       1
_symmetry_cell_setting            triclinic
loop_
_symmetry_equiv_pos_as_xyz
  x,y,z
_cell_length_a                    27.7982
_cell_length_b                    9.6784
_cell_length_c                    22.6862
_cell_angle_alpha                 90.0000
_cell_angle_beta                  154.0937
_cell_angle_gamma                 90.0000
loop_
_atom_site_label
_atom_site_type_symbol
_atom_site_fract_x
_atom_site_fract_y
_atom_site_fract_z
_atom_site_U_iso_or_equiv
_atom_site_adp_type
_atom_site_occupancy
C1     C     0.03992   0.58248   0.83476   0.00000  Uiso   1.00
C2     C     0.08033   0.48073   0.92584   0.00000  Uiso   1.00
C3     C     0.07075   0.33800   0.91247   0.00000  Uiso   1.00
C4     C     0.11292   0.26306   0.00600   0.00000  Uiso   1.00
C5     C     0.16802   0.09510   0.13169   0.00000  Uiso   1.00
C6     C     0.96239   0.68141   0.78115   0.00000  Uiso   1.00
C7     C     0.85364   0.70742   0.64612   0.00000  Uiso   1.00
C8     C     0.79653   0.80143   0.61785   0.00000  Uiso   1.00
C9     C     0.66855   0.94510   0.51890   0.00000  Uiso   1.00
C10    C     0.14004   0.66804   0.92741   0.00000  Uiso   1.00
C11    C     0.18065   0.68283   0.91534   0.00000  Uiso   1.00
C12    C     0.27309   0.76561   0.01020   0.00000  Uiso   1.00
C13    C     0.42093   0.88851   0.13835   0.00000  Uiso   1.00
C14    C     0.13186   0.70321   0.02465   0.00000  Uiso   1.00
C15    C     0.13027   0.54631   0.02898   0.00000  Uiso   1.00
C16    C     0.17246   0.47157   0.12255   0.00000  Uiso   1.00
C17    C     0.16295   0.32875   0.10932   0.00000  Uiso   1.00
C18    C     0.01232   0.74698   0.88428   0.00000  Uiso   1.00
C19    C     0.95536   0.84099   0.85620   0.00000  Uiso   1.00
C20    C     0.84655   0.86712   0.72117   0.00000  Uiso   1.00
C21    C     0.18998   0.73361   0.03055   0.00000  Uiso   1.00
C22    C     0.28237   0.81639   0.12543   0.00000  Uiso   1.00
C23    C     0.32312   0.83130   0.11352   0.00000  Uiso   1.00
H24    H     0.00104   0.53144   0.75446   0.00000  Uiso   1.00
H25    H     0.03209   0.28730   0.83263   0.00000  Uiso   1.00
H26    H     0.81503   0.65667   0.56633   0.00000  Uiso   1.00
H27    H     0.14199   0.63208   0.83552   0.00000  Uiso   1.00
H28    H     0.08850   0.04554   0.96475   0.00000  Uiso   1.00
H29    H     0.63082   0.82442   0.40323   0.00000  Uiso   1.00
H30    H     0.32027   0.77256   0.97087   0.00000  Uiso   1.00
H31    H     0.17073   0.75426   0.10494   0.00000  Uiso   1.00
H32    H     0.21110   0.52234   0.20236   0.00000  Uiso   1.00
H33    H     0.99403   0.89171   0.93604   0.00000  Uiso   1.00
H34    H     0.32099   0.86712   0.20523   0.00000  Uiso   1.00
H35    H     0.23379   0.23630   0.26483   0.00000  Uiso   1.00
H36    H     0.77610   0.01519   0.70330   0.00000  Uiso   1.00
H37    H     0.46556   0.96333   0.27094   0.00000  Uiso   1.00
O38    O     0.18460   0.98434   0.17252   0.00000  Uiso   1.00
O39    O     0.58415   0.00622   0.43583   0.00000  Uiso   1.00
O40    O     0.48870   0.93817   0.18055   0.00000  Uiso   1.00
N41    N     0.11717   0.12226   0.02203   0.00000  Uiso   1.00
N42    N     0.68926   0.85045   0.49704   0.00000  Uiso   1.00
N43    N     0.33383   0.80200   0.02770   0.00000  Uiso   1.00
N44    N     0.19535   0.22491   0.18349   0.00000  Uiso   1.00
N45    N     0.76744   0.95310   0.65850   0.00000  Uiso   1.00
N46    N     0.41200   0.90465   0.18917   0.00000  Uiso   1.00
C47    C     0.96008   0.08248   0.66524   0.00000  Uiso   1.00
C48    C     0.91967   0.98073   0.57416   0.00000  Uiso   1.00
C49    C     0.92925   0.83800   0.58753   0.00000  Uiso   1.00
C50    C     0.88708   0.76306   0.49400   0.00000  Uiso   1.00
C51    C     0.83198   0.59510   0.36831   0.00000  Uiso   1.00
C52    C     0.03761   0.18141   0.71885   0.00000  Uiso   1.00
C53    C     0.14636   0.20742   0.85388   0.00000  Uiso   1.00
C54    C     0.20347   0.30143   0.88215   0.00000  Uiso   1.00
C55    C     0.33145   0.44510   0.98110   0.00000  Uiso   1.00
C56    C     0.85996   0.16804   0.57259   0.00000  Uiso   1.00
C57    C     0.81935   0.18283   0.58466   0.00000  Uiso   1.00
C58    C     0.72691   0.26561   0.48980   0.00000  Uiso   1.00
C59    C     0.57907   0.38851   0.36165   0.00000  Uiso   1.00
C60    C     0.86814   0.20321   0.47535   0.00000  Uiso   1.00
C61    C     0.86973   0.04631   0.47102   0.00000  Uiso   1.00
C62    C     0.82754   0.97157   0.37745   0.00000  Uiso   1.00
C63    C     0.83705   0.82875   0.39068   0.00000  Uiso   1.00
C64    C     0.98768   0.24698   0.61572   0.00000  Uiso   1.00
C65    C     0.04464   0.34099   0.64380   0.00000  Uiso   1.00
C66    C     0.15345   0.36712   0.77883   0.00000  Uiso   1.00
C67    C     0.81002   0.23361   0.46945   0.00000  Uiso   1.00
C68    C     0.71763   0.31639   0.37457   0.00000  Uiso   1.00
C69    C     0.67688   0.33130   0.38648   0.00000  Uiso   1.00
H70    H     0.99896   0.03144   0.74554   0.00000  Uiso   1.00
H71    H     0.96791   0.78730   0.66737   0.00000  Uiso   1.00
H72    H     0.18497   0.15667   0.93367   0.00000  Uiso   1.00
H73    H     0.85801   0.13208   0.66448   0.00000  Uiso   1.00
H74    H     0.91150   0.54554   0.53525   0.00000  Uiso   1.00
H75    H     0.36918   0.32442   0.09677   0.00000  Uiso   1.00
H76    H     0.67973   0.27256   0.52913   0.00000  Uiso   1.00
H77    H     0.82927   0.25426   0.39506   0.00000  Uiso   1.00
H78    H     0.78890   0.02234   0.29764   0.00000  Uiso   1.00
H79    H     0.00597   0.39171   0.56396   0.00000  Uiso   1.00
H80    H     0.67901   0.36712   0.29477   0.00000  Uiso   1.00
H81    H     0.76621   0.73630   0.23517   0.00000  Uiso   1.00
H82    H     0.22390   0.51519   0.79670   0.00000  Uiso   1.00
H83    H     0.53444   0.46333   0.22906   0.00000  Uiso   1.00
O84    O     0.81540   0.48434   0.32748   0.00000  Uiso   1.00
O85    O     0.41585   0.50622   0.06417   0.00000  Uiso   1.00
O86    O     0.51130   0.43817   0.31945   0.00000  Uiso   1.00
N87    N     0.88283   0.62226   0.47797   0.00000  Uiso   1.00
N88    N     0.31074   0.35045   0.00296   0.00000  Uiso   1.00
N89    N     0.66617   0.30200   0.47230   0.00000  Uiso   1.00
N90    N     0.80465   0.72491   0.31651   0.00000  Uiso   1.00
N91    N     0.23256   0.45310   0.84150   0.00000  Uiso   1.00
N92    N     0.58800   0.40465   0.31083   0.00000  Uiso   1.00
C93    C     0.96008   0.41752   0.16524   0.00000  Uiso   1.00
C94    C     0.91967   0.51927   0.07416   0.00000  Uiso   1.00
C95    C     0.92925   0.66200   0.08753   0.00000  Uiso   1.00
C96    C     0.88708   0.73694   0.99400   0.00000  Uiso   1.00
C97    C     0.83198   0.90490   0.86831   0.00000  Uiso   1.00
C98    C     0.03761   0.31859   0.21885   0.00000  Uiso   1.00
C99    C     0.14636   0.29258   0.35388   0.00000  Uiso   1.00
C100   C     0.20347   0.19857   0.38215   0.00000  Uiso   1.00
C101   C     0.33145   0.05490   0.48110   0.00000  Uiso   1.00
C102   C     0.85996   0.33196   0.07259   0.00000  Uiso   1.00
C103   C     0.81935   0.31717   0.08466   0.00000  Uiso   1.00
C104   C     0.72691   0.23439   0.98980   0.00000  Uiso   1.00
C105   C     0.57907   0.11149   0.86165   0.00000  Uiso   1.00
C106   C     0.86814   0.29679   0.97535   0.00000  Uiso   1.00
C107   C     0.86973   0.45369   0.97102   0.00000  Uiso   1.00
C108   C     0.82754   0.52843   0.87745   0.00000  Uiso   1.00
C109   C     0.83705   0.67125   0.89068   0.00000  Uiso   1.00
C110   C     0.98768   0.25302   0.11572   0.00000  Uiso   1.00
C111   C     0.04464   0.15901   0.14380   0.00000  Uiso   1.00
C112   C     0.15345   0.13288   0.27883   0.00000  Uiso   1.00
C113   C     0.81002   0.26639   0.96945   0.00000  Uiso   1.00
C114   C     0.71763   0.18361   0.87457   0.00000  Uiso   1.00
C115   C     0.67688   0.16870   0.88648   0.00000  Uiso   1.00
H116   H     0.99896   0.46856   0.24554   0.00000  Uiso   1.00
H117   H     0.96791   0.71270   0.16737   0.00000  Uiso   1.00
H118   H     0.18497   0.34333   0.43367   0.00000  Uiso   1.00
H119   H     0.85801   0.36792   0.16448   0.00000  Uiso   1.00
H120   H     0.91150   0.95446   0.03525   0.00000  Uiso   1.00
H121   H     0.36918   0.17558   0.59677   0.00000  Uiso   1.00
H122   H     0.67973   0.22744   0.02913   0.00000  Uiso   1.00
H123   H     0.82927   0.24574   0.89506   0.00000  Uiso   1.00
H124   H     0.78890   0.47766   0.79764   0.00000  Uiso   1.00
H125   H     0.00597   0.10829   0.06396   0.00000  Uiso   1.00
H126   H     0.67901   0.13288   0.79477   0.00000  Uiso   1.00
H127   H     0.76621   0.76370   0.73517   0.00000  Uiso   1.00
H128   H     0.22390   0.98481   0.29670   0.00000  Uiso   1.00
H129   H     0.53444   0.03667   0.72906   0.00000  Uiso   1.00
O130   O     0.81540   0.01566   0.82748   0.00000  Uiso   1.00
O131   O     0.41585   0.99378   0.56417   0.00000  Uiso   1.00
O132   O     0.51130   0.06183   0.81945   0.00000  Uiso   1.00
N133   N     0.88283   0.87774   0.97797   0.00000  Uiso   1.00
N134   N     0.31074   0.14955   0.50296   0.00000  Uiso   1.00
N135   N     0.66617   0.19800   0.97230   0.00000  Uiso   1.00
N136   N     0.80465   0.77509   0.81651   0.00000  Uiso   1.00
N137   N     0.23256   0.04690   0.34150   0.00000  Uiso   1.00
N138   N     0.58800   0.09535   0.81083   0.00000  Uiso   1.00
C139   C     0.03992   0.91752   0.33476   0.00000  Uiso   1.00
C140   C     0.08033   0.01927   0.42584   0.00000  Uiso   1.00
C141   C     0.07075   0.16200   0.41247   0.00000  Uiso   1.00
C142   C     0.11292   0.23694   0.50600   0.00000  Uiso   1.00
C143   C     0.16802   0.40490   0.63169   0.00000  Uiso   1.00
C144   C     0.96239   0.81859   0.28115   0.00000  Uiso   1.00
C145   C     0.85364   0.79258   0.14612   0.00000  Uiso   1.00
C146   C     0.79653   0.69857   0.11785   0.00000  Uiso   1.00
C147   C     0.66855   0.55490   0.01890   0.00000  Uiso   1.00
C148   C     0.14004   0.83196   0.42741   0.00000  Uiso   1.00
C149   C     0.18065   0.81717   0.41534   0.00000  Uiso   1.00
C150   C     0.27309   0.73439   0.51020   0.00000  Uiso   1.00
C151   C     0.42093   0.61149   0.63835   0.00000  Uiso   1.00
C152   C     0.13186   0.79679   0.52465   0.00000  Uiso   1.00
C153   C     0.13027   0.95369   0.52898   0.00000  Uiso   1.00
C154   C     0.17246   0.02843   0.62255   0.00000  Uiso   1.00
C155   C     0.16295   0.17125   0.60932   0.00000  Uiso   1.00
C156   C     0.01232   0.75302   0.38428   0.00000  Uiso   1.00
C157   C     0.95536   0.65901   0.35620   0.00000  Uiso   1.00
C158   C     0.84655   0.63288   0.22117   0.00000  Uiso   1.00
C159   C     0.18998   0.76639   0.53055   0.00000  Uiso   1.00
C160   C     0.28237   0.68361   0.62543   0.00000  Uiso   1.00
C161   C     0.32312   0.66870   0.61352   0.00000  Uiso   1.00
H162   H     0.00104   0.96856   0.25446   0.00000  Uiso   1.00
H163   H     0.03209   0.21270   0.33263   0.00000  Uiso   1.00
H164   H     0.81503   0.84333   0.06633   0.00000  Uiso   1.00
H165   H     0.14199   0.86792   0.33552   0.00000  Uiso   1.00
H166   H     0.08850   0.45446   0.46475   0.00000  Uiso   1.00
H167   H     0.63082   0.67558   0.90323   0.00000  Uiso   1.00
H168   H     0.32027   0.72744   0.47087   0.00000  Uiso   1.00
H169   H     0.17073   0.74574   0.60494   0.00000  Uiso   1.00
H170   H     0.21110   0.97766   0.70236   0.00000  Uiso   1.00
H171   H     0.99403   0.60829   0.43604   0.00000  Uiso   1.00
H172   H     0.32099   0.63288   0.70523   0.00000  Uiso   1.00
H173   H     0.23379   0.26370   0.76483   0.00000  Uiso   1.00
H174   H     0.77610   0.48481   0.20330   0.00000  Uiso   1.00
H175   H     0.46556   0.53667   0.77094   0.00000  Uiso   1.00
O176   O     0.18460   0.51566   0.67252   0.00000  Uiso   1.00
O177   O     0.58415   0.49378   0.93583   0.00000  Uiso   1.00
O178   O     0.48870   0.56183   0.68055   0.00000  Uiso   1.00
N179   N     0.11717   0.37774   0.52203   0.00000  Uiso   1.00
N180   N     0.68926   0.64955   0.99704   0.00000  Uiso   1.00
N181   N     0.33383   0.69800   0.52770   0.00000  Uiso   1.00
N182   N     0.19535   0.27509   0.68349   0.00000  Uiso   1.00
N183   N     0.76744   0.54690   0.15850   0.00000  Uiso   1.00
N184   N     0.41200   0.59535   0.68917   0.00000  Uiso   1.00
