data_job_06961
_audit_creation_date              2018-12-19
_audit_creation_method            'Materials Studio'
_symmetry_space_group_name_H-M    'P1'
_symmetry_Int_Tables_number       1
_symmetry_cell_setting            triclinic
loop_
_symmetry_equiv_pos_as_xyz
  x,y,z
_cell_length_a                    22.1557
_cell_length_b                    19.5219
_cell_length_c                    20.1575
_cell_angle_alpha                 87.6528
_cell_angle_beta                  71.5978
_cell_angle_gamma                 83.9591
loop_
_atom_site_label
_atom_site_type_symbol
_atom_site_fract_x
_atom_site_fract_y
_atom_site_fract_z
_atom_site_U_iso_or_equiv
_atom_site_adp_type
_atom_site_occupancy
C1     C     0.40272   0.17003   0.93618   0.00000  Uiso   1.00
C2     C     0.33787   0.21115   0.96650   0.00000  Uiso   1.00
C3     C     0.29209   0.19741   0.02941   0.00000  Uiso   1.00
C4     C     0.23585   0.24108   0.04791   0.00000  Uiso   1.00
C5     C     0.13667   0.29648   0.10150   0.00000  Uiso   1.00
C6     C     0.40522   0.14730   0.86380   0.00000  Uiso   1.00
C7     C     0.41608   0.07988   0.84035   0.00000  Uiso   1.00
C8     C     0.41655   0.06981   0.77240   0.00000  Uiso   1.00
C9     C     0.42198   0.02610   0.66652   0.00000  Uiso   1.00
C10    C     0.45241   0.22151   0.92411   0.00000  Uiso   1.00
C11    C     0.50296   0.21648   0.95136   0.00000  Uiso   1.00
C12    C     0.54316   0.26889   0.93417   0.00000  Uiso   1.00
C13    C     0.62185   0.34040   0.92193   0.00000  Uiso   1.00
C14    C     0.38425   0.27202   0.85719   0.00000  Uiso   1.00
C15    C     0.32784   0.26655   0.92360   0.00000  Uiso   1.00
C16    C     0.27166   0.31025   0.94201   0.00000  Uiso   1.00
C17    C     0.22580   0.29658   0.00493   0.00000  Uiso   1.00
C18    C     0.39519   0.20270   0.82090   0.00000  Uiso   1.00
C19    C     0.39565   0.19273   0.75296   0.00000  Uiso   1.00
C20    C     0.40650   0.12531   0.72942   0.00000  Uiso   1.00
C21    C     0.44238   0.27692   0.88121   0.00000  Uiso   1.00
C22    C     0.48252   0.32933   0.86397   0.00000  Uiso   1.00
C23    C     0.53311   0.32438   0.89118   0.00000  Uiso   1.00
H24    H     0.41053   0.12689   0.96958   0.00000  Uiso   1.00
H25    H     0.29987   0.15452   0.06259   0.00000  Uiso   1.00
H26    H     0.42385   0.03702   0.87357   0.00000  Uiso   1.00
H27    H     0.51070   0.17360   0.98456   0.00000  Uiso   1.00
H28    H     0.17275   0.20958   0.14678   0.00000  Uiso   1.00
H29    H     0.43419   0.96182   0.74820   0.00000  Uiso   1.00
H30    H     0.61734   0.24983   0.98224   0.00000  Uiso   1.00
H31    H     0.37644   0.31515   0.82379   0.00000  Uiso   1.00
H32    H     0.26391   0.35312   0.90880   0.00000  Uiso   1.00
H33    H     0.38789   0.23561   0.71977   0.00000  Uiso   1.00
H34    H     0.47474   0.37219   0.83076   0.00000  Uiso   1.00
H35    H     0.14355   0.37076   0.02195   0.00000  Uiso   1.00
H36    H     0.40500   0.12300   0.62337   0.00000  Uiso   1.00
H37    H     0.58814   0.41101   0.85741   0.00000  Uiso   1.00
O38    O     0.08473   0.31173   0.14290   0.00000  Uiso   1.00
O39    O     0.42774   0.98669   0.61998   0.00000  Uiso   1.00
O40    O     0.66802   0.36454   0.92704   0.00000  Uiso   1.00
N41    N     0.18133   0.24231   0.10574   0.00000  Uiso   1.00
N42    N     0.42575   0.01067   0.73309   0.00000  Uiso   1.00
N43    N     0.59699   0.27992   0.95189   0.00000  Uiso   1.00
N44    N     0.16562   0.32904   0.03857   0.00000  Uiso   1.00
N45    N     0.41004   0.09740   0.66593   0.00000  Uiso   1.00
N46    N     0.58128   0.36665   0.88472   0.00000  Uiso   1.00
C47    C     0.77322   0.44072   0.29201   0.00000  Uiso   1.00
C48    C     0.77118   0.36291   0.29995   0.00000  Uiso   1.00
C49    C     0.82172   0.31369   0.27084   0.00000  Uiso   1.00
C50    C     0.81021   0.24514   0.28421   0.00000  Uiso   1.00
C51    C     0.81615   0.12713   0.29026   0.00000  Uiso   1.00
C52    C     0.71996   0.46684   0.26178   0.00000  Uiso   1.00
C53    C     0.72742   0.50502   0.20059   0.00000  Uiso   1.00
C54    C     0.67279   0.52397   0.18185   0.00000  Uiso   1.00
C55    C     0.59920   0.56737   0.12868   0.00000  Uiso   1.00
C56    C     0.75292   0.46897   0.36605   0.00000  Uiso   1.00
C57    C     0.78809   0.50895   0.39253   0.00000  Uiso   1.00
C58    C     0.76120   0.52971   0.46157   0.00000  Uiso   1.00
C59    C     0.73878   0.57641   0.57030   0.00000  Uiso   1.00
C60    C     0.66292   0.40649   0.36753   0.00000  Uiso   1.00
C61    C     0.71127   0.34432   0.34097   0.00000  Uiso   1.00
C62    C     0.69968   0.27582   0.35439   0.00000  Uiso   1.00
C63    C     0.75019   0.22651   0.32531   0.00000  Uiso   1.00
C64    C     0.66005   0.44825   0.30280   0.00000  Uiso   1.00
C65    C     0.60539   0.46715   0.28415   0.00000  Uiso   1.00
C66    C     0.61277   0.50534   0.22295   0.00000  Uiso   1.00
C67    C     0.69301   0.45038   0.40708   0.00000  Uiso   1.00
C68    C     0.66605   0.47108   0.47609   0.00000  Uiso   1.00
C69    C     0.70118   0.51108   0.50267   0.00000  Uiso   1.00
H70    H     0.81986   0.45520   0.26007   0.00000  Uiso   1.00
H71    H     0.86807   0.32810   0.23909   0.00000  Uiso   1.00
H72    H     0.77379   0.51941   0.16886   0.00000  Uiso   1.00
H73    H     0.83445   0.52333   0.36077   0.00000  Uiso   1.00
H74    H     0.89510   0.17898   0.23389   0.00000  Uiso   1.00
H75    H     0.69630   0.58238   0.08583   0.00000  Uiso   1.00
H76    H     0.82420   0.59067   0.49050   0.00000  Uiso   1.00
H77    H     0.61627   0.39202   0.39947   0.00000  Uiso   1.00
H78    H     0.65332   0.26145   0.38614   0.00000  Uiso   1.00
H79    H     0.55903   0.45275   0.31591   0.00000  Uiso   1.00
H80    H     0.61969   0.45668   0.50782   0.00000  Uiso   1.00
H81    H     0.72079   0.12488   0.35324   0.00000  Uiso   1.00
H82    H     0.52199   0.52829   0.20518   0.00000  Uiso   1.00
H83    H     0.64990   0.53657   0.60985   0.00000  Uiso   1.00
O84    O     0.83598   0.06718   0.28226   0.00000  Uiso   1.00
O85    O     0.57516   0.59644   0.08802   0.00000  Uiso   1.00
O86    O     0.74298   0.60730   0.61894   0.00000  Uiso   1.00
N87    N     0.84900   0.18417   0.26382   0.00000  Uiso   1.00
N88    N     0.66313   0.56132   0.12539   0.00000  Uiso   1.00
N89    N     0.78271   0.56908   0.50372   0.00000  Uiso   1.00
N90    N     0.75520   0.15506   0.32804   0.00000  Uiso   1.00
N91    N     0.56934   0.53221   0.18961   0.00000  Uiso   1.00
N92    N     0.68891   0.53997   0.56794   0.00000  Uiso   1.00
C93    C     0.06727   0.90660   0.48938   0.00000  Uiso   1.00
C94    C     0.10558   0.93395   0.41825   0.00000  Uiso   1.00
C95    C     0.09184   0.99672   0.38868   0.00000  Uiso   1.00
C96    C     0.13270   0.01229   0.32313   0.00000  Uiso   1.00
C97    C     0.18416   0.06168   0.21795   0.00000  Uiso   1.00
C98    C     0.04827   0.83697   0.47569   0.00000  Uiso   1.00
C99    C     0.98635   0.81820   0.49443   0.00000  Uiso   1.00
C100   C     0.97898   0.75212   0.47724   0.00000  Uiso   1.00
C101   C     0.94146   0.65093   0.46129   0.00000  Uiso   1.00
C102   C     0.11442   0.89132   0.53044   0.00000  Uiso   1.00
C103   C     0.10811   0.91823   0.59521   0.00000  Uiso   1.00
C104   C     0.15641   0.89790   0.62412   0.00000  Uiso   1.00
C105   C     0.22160   0.88110   0.69316   0.00000  Uiso   1.00
C106   C     0.16426   0.82261   0.42554   0.00000  Uiso   1.00
C107   C     0.15826   0.88832   0.38358   0.00000  Uiso   1.00
C108   C     0.19916   0.90380   0.31805   0.00000  Uiso   1.00
C109   C     0.18548   0.96658   0.28839   0.00000  Uiso   1.00
C110   C     0.10095   0.79135   0.44102   0.00000  Uiso   1.00
C111   C     0.09367   0.72527   0.42381   0.00000  Uiso   1.00
C112   C     0.03175   0.70641   0.44251   0.00000  Uiso   1.00
C113   C     0.16710   0.84570   0.49576   0.00000  Uiso   1.00
C114   C     0.21542   0.82531   0.52458   0.00000  Uiso   1.00
C115   C     0.20919   0.85219   0.58938   0.00000  Uiso   1.00
H116   H     0.02625   0.94211   0.51637   0.00000  Uiso   1.00
H117   H     0.05107   0.03201   0.41553   0.00000  Uiso   1.00
H118   H     0.94560   0.85352   0.52127   0.00000  Uiso   1.00
H119   H     0.06733   0.95354   0.62203   0.00000  Uiso   1.00
H120   H     0.10180   0.11155   0.28843   0.00000  Uiso   1.00
H121   H     0.87941   0.73517   0.51141   0.00000  Uiso   1.00
H122   H     0.13611   0.94609   0.72388   0.00000  Uiso   1.00
H123   H     0.20528   0.78709   0.39855   0.00000  Uiso   1.00
H124   H     0.23992   0.86848   0.29123   0.00000  Uiso   1.00
H125   H     0.13445   0.68998   0.39698   0.00000  Uiso   1.00
H126   H     0.25618   0.79001   0.49773   0.00000  Uiso   1.00
H127   H     0.25507   0.97882   0.18754   0.00000  Uiso   1.00
H128   H     0.03268   0.60244   0.41053   0.00000  Uiso   1.00
H129   H     0.28939   0.81336   0.62299   0.00000  Uiso   1.00
O130   O     0.19798   0.10152   0.16951   0.00000  Uiso   1.00
O131   O     0.90622   0.60772   0.46207   0.00000  Uiso   1.00
O132   O     0.24301   0.88444   0.74081   0.00000  Uiso   1.00
N133   N     0.13312   0.06915   0.27942   0.00000  Uiso   1.00
N134   N     0.92520   0.71726   0.48788   0.00000  Uiso   1.00
N135   N     0.16519   0.91444   0.68653   0.00000  Uiso   1.00
N136   N     0.21560   0.99773   0.22513   0.00000  Uiso   1.00
N137   N     0.00768   0.64584   0.43360   0.00000  Uiso   1.00
N138   N     0.24767   0.84301   0.63224   0.00000  Uiso   1.00
C139   C     0.89233   0.58323   0.78029   0.00000  Uiso   1.00
C140   C     0.82743   0.60818   0.83143   0.00000  Uiso   1.00
C141   C     0.80262   0.67642   0.84382   0.00000  Uiso   1.00
C142   C     0.74240   0.68857   0.89261   0.00000  Uiso   1.00
C143   C     0.64680   0.73555   0.96666   0.00000  Uiso   1.00
C144   C     0.87891   0.53431   0.73069   0.00000  Uiso   1.00
C145   C     0.89739   0.54045   0.65838   0.00000  Uiso   1.00
C146   C     0.88051   0.49040   0.62236   0.00000  Uiso   1.00
C147   C     0.86488   0.42268   0.54001   0.00000  Uiso   1.00
C148   C     0.92759   0.53881   0.82302   0.00000  Uiso   1.00
C149   C     0.98701   0.54871   0.82832   0.00000  Uiso   1.00
C150   C     0.01113   0.50245   0.87002   0.00000  Uiso   1.00
C151   C     0.07108   0.44171   0.93102   0.00000  Uiso   1.00
C152   C     0.82950   0.48344   0.84491   0.00000  Uiso   1.00
C153   C     0.79330   0.55398   0.86653   0.00000  Uiso   1.00
C154   C     0.73311   0.56602   0.91532   0.00000  Uiso   1.00
C155   C     0.70821   0.63427   0.92777   0.00000  Uiso   1.00
C156   C     0.84479   0.48011   0.76579   0.00000  Uiso   1.00
C157   C     0.82788   0.43004   0.72988   0.00000  Uiso   1.00
C158   C     0.84633   0.43610   0.65752   0.00000  Uiso   1.00
C159   C     0.89346   0.48461   0.85812   0.00000  Uiso   1.00
C160   C     0.91750   0.43831   0.89982   0.00000  Uiso   1.00
C161   C     0.97694   0.44814   0.90518   0.00000  Uiso   1.00
H162   H     0.91890   0.62542   0.75296   0.00000  Uiso   1.00
H163   H     0.82904   0.71836   0.81664   0.00000  Uiso   1.00
H164   H     0.92380   0.58239   0.63123   0.00000  Uiso   1.00
H165   H     0.01340   0.59066   0.80115   0.00000  Uiso   1.00
H166   H     0.71436   0.79748   0.90270   0.00000  Uiso   1.00
H167   H     0.91419   0.51079   0.51175   0.00000  Uiso   1.00
H168   H     0.10314   0.52822   0.87005   0.00000  Uiso   1.00
H169   H     0.80293   0.44124   0.87224   0.00000  Uiso   1.00
H170   H     0.70671   0.52406   0.94247   0.00000  Uiso   1.00
H171   H     0.80147   0.38810   0.75706   0.00000  Uiso   1.00
H172   H     0.89108   0.39637   0.92697   0.00000  Uiso   1.00
H173   H     0.61507   0.63979   0.00483   0.00000  Uiso   1.00
H174   H     0.81491   0.35309   0.61388   0.00000  Uiso   1.00
H175   H     0.00385   0.37053   0.97218   0.00000  Uiso   1.00
O176   O     0.60350   0.77644   0.99780   0.00000  Uiso   1.00
O177   O     0.86568   0.40030   0.48488   0.00000  Uiso   1.00
O178   O     0.11357   0.42318   0.95497   0.00000  Uiso   1.00
N179   N     0.70420   0.74900   0.91711   0.00000  Uiso   1.00
N180   N     0.89102   0.48096   0.55159   0.00000  Uiso   1.00
N181   N     0.06768   0.49726   0.88656   0.00000  Uiso   1.00
N182   N     0.65077   0.66415   0.97207   0.00000  Uiso   1.00
N183   N     0.83760   0.39611   0.60655   0.00000  Uiso   1.00
N184   N     0.01425   0.41240   0.94152   0.00000  Uiso   1.00
C185   C     0.44557   0.89389   0.98712   0.00000  Uiso   1.00
C186   C     0.49686   0.91350   0.92055   0.00000  Uiso   1.00
C187   C     0.54996   0.94689   0.91756   0.00000  Uiso   1.00
C188   C     0.59127   0.96023   0.85158   0.00000  Uiso   1.00
C189   C     0.67267   0.99360   0.75745   0.00000  Uiso   1.00
C190   C     0.44322   0.81640   0.98334   0.00000  Uiso   1.00
C191   C     0.45122   0.76815   0.03314   0.00000  Uiso   1.00
C192   C     0.44738   0.69974   0.02002   0.00000  Uiso   1.00
C193   C     0.44546   0.58237   0.02340   0.00000  Uiso   1.00
C194   C     0.38220   0.92729   0.98083   0.00000  Uiso   1.00
C195   C     0.33888   0.97227   0.02854   0.00000  Uiso   1.00
C196   C     0.28365   0.99722   0.01331   0.00000  Uiso   1.00
C197   C     0.18699   0.05202   0.01279   0.00000  Uiso   1.00
C198   C     0.42452   0.85819   0.87527   0.00000  Uiso   1.00
C199   C     0.48543   0.89411   0.85980   0.00000  Uiso   1.00
C200   C     0.52667   0.90740   0.79381   0.00000  Uiso   1.00
C201   C     0.57982   0.94080   0.79072   0.00000  Uiso   1.00
C202   C     0.43179   0.79701   0.92259   0.00000  Uiso   1.00
C203   C     0.42793   0.72865   0.90939   0.00000  Uiso   1.00
C204   C     0.43592   0.68031   0.95916   0.00000  Uiso   1.00
C205   C     0.37077   0.90790   0.92008   0.00000  Uiso   1.00
C206   C     0.31560   0.93278   0.90478   0.00000  Uiso   1.00
C207   C     0.27220   0.97779   0.95245   0.00000  Uiso   1.00
H208   H     0.45447   0.90898   0.03442   0.00000  Uiso   1.00
H209   H     0.55879   0.96188   0.96459   0.00000  Uiso   1.00
H210   H     0.46006   0.78317   0.08016   0.00000  Uiso   1.00
H211   H     0.34774   0.98726   0.07554   0.00000  Uiso   1.00
H212   H     0.66942   0.01197   0.86037   0.00000  Uiso   1.00
H213   H     0.46122   0.63514   0.10406   0.00000  Uiso   1.00
H214   H     0.22438   0.06551   0.09434   0.00000  Uiso   1.00
H215   H     0.41562   0.84309   0.82797   0.00000  Uiso   1.00
H216   H     0.51781   0.89239   0.74680   0.00000  Uiso   1.00
H217   H     0.41908   0.71367   0.86237   0.00000  Uiso   1.00
H218   H     0.30677   0.91776   0.85776   0.00000  Uiso   1.00
H219   H     0.63616   0.95556   0.68361   0.00000  Uiso   1.00
H220   H     0.42796   0.57873   0.92730   0.00000  Uiso   1.00
H221   H     0.19112   0.00910   0.91758   0.00000  Uiso   1.00
O222   O     0.72073   0.01736   0.72232   0.00000  Uiso   1.00
O223   O     0.44756   0.52298   0.04204   0.00000  Uiso   1.00
O224   O     0.13684   0.08762   0.02928   0.00000  Uiso   1.00
N225   N     0.64756   0.99194   0.82991   0.00000  Uiso   1.00
N226   N     0.45292   0.63963   0.05774   0.00000  Uiso   1.00
N227   N     0.23148   0.04197   0.04866   0.00000  Uiso   1.00
N228   N     0.62966   0.96159   0.73479   0.00000  Uiso   1.00
N229   N     0.43502   0.60927   0.96262   0.00000  Uiso   1.00
N230   N     0.21359   0.01162   0.95355   0.00000  Uiso   1.00
C231   C     0.69013   0.89824   0.50670   0.00000  Uiso   1.00
C232   C     0.72815   0.86802   0.55405   0.00000  Uiso   1.00
C233   C     0.74618   0.90466   0.60111   0.00000  Uiso   1.00
C234   C     0.78079   0.86758   0.63962   0.00000  Uiso   1.00
C235   C     0.83736   0.83147   0.71443   0.00000  Uiso   1.00
C236   C     0.63158   0.85815   0.52325   0.00000  Uiso   1.00
C237   C     0.56842   0.88651   0.54440   0.00000  Uiso   1.00
C238   C     0.52174   0.84113   0.55697   0.00000  Uiso   1.00
C239   C     0.42839   0.78972   0.58391   0.00000  Uiso   1.00
C240   C     0.73081   0.87876   0.43234   0.00000  Uiso   1.00
C241   C     0.75106   0.92443   0.37704   0.00000  Uiso   1.00
C242   C     0.78791   0.89640   0.31308   0.00000  Uiso   1.00
C243   C     0.84863   0.87698   0.19887   0.00000  Uiso   1.00
C244   C     0.71953   0.76722   0.49143   0.00000  Uiso   1.00
C245   C     0.74412   0.79685   0.54576   0.00000  Uiso   1.00
C246   C     0.77871   0.75971   0.58421   0.00000  Uiso   1.00
C247   C     0.79679   0.79629   0.63131   0.00000  Uiso   1.00
C248   C     0.64755   0.78700   0.51496   0.00000  Uiso   1.00
C249   C     0.60095   0.74156   0.52750   0.00000  Uiso   1.00
C250   C     0.53773   0.76984   0.54866   0.00000  Uiso   1.00
C251   C     0.74678   0.80760   0.42405   0.00000  Uiso   1.00
C252   C     0.78360   0.77948   0.36015   0.00000  Uiso   1.00
C253   C     0.80391   0.82511   0.30476   0.00000  Uiso   1.00
H254   H     0.67769   0.95364   0.51316   0.00000  Uiso   1.00
H255   H     0.73381   0.95973   0.60752   0.00000  Uiso   1.00
H256   H     0.55608   0.94158   0.55081   0.00000  Uiso   1.00
H257   H     0.73870   0.97950   0.38348   0.00000  Uiso   1.00
H258   H     0.80304   0.93510   0.70849   0.00000  Uiso   1.00
H259   H     0.42828   0.89684   0.58889   0.00000  Uiso   1.00
H260   H     0.81337   0.97679   0.23605   0.00000  Uiso   1.00
H261   H     0.73196   0.71182   0.48497   0.00000  Uiso   1.00
H262   H     0.79106   0.70464   0.57778   0.00000  Uiso   1.00
H263   H     0.61332   0.68650   0.52107   0.00000  Uiso   1.00
H264   H     0.79595   0.72441   0.35375   0.00000  Uiso   1.00
H265   H     0.84950   0.72806   0.68435   0.00000  Uiso   1.00
H266   H     0.47475   0.68980   0.56475   0.00000  Uiso   1.00
H267   H     0.85984   0.76975   0.21192   0.00000  Uiso   1.00
O268   O     0.86415   0.83122   0.75800   0.00000  Uiso   1.00
O269   O     0.37248   0.78103   0.60107   0.00000  Uiso   1.00
O270   O     0.87771   0.88592   0.13816   0.00000  Uiso   1.00
N271   N     0.80588   0.88736   0.69006   0.00000  Uiso   1.00
N272   N     0.45550   0.85159   0.57825   0.00000  Uiso   1.00
N273   N     0.81551   0.92633   0.24838   0.00000  Uiso   1.00
N274   N     0.83088   0.77595   0.67707   0.00000  Uiso   1.00
N275   N     0.48050   0.74018   0.56527   0.00000  Uiso   1.00
N276   N     0.84052   0.81493   0.23539   0.00000  Uiso   1.00
C277   C     0.57782   0.85449   0.19136   0.00000  Uiso   1.00
C278   C     0.63825   0.80467   0.17664   0.00000  Uiso   1.00
C279   C     0.68072   0.78800   0.11101   0.00000  Uiso   1.00
C280   C     0.73316   0.74134   0.10860   0.00000  Uiso   1.00
C281   C     0.82555   0.66839   0.07645   0.00000  Uiso   1.00
C282   C     0.58422   0.90849   0.24067   0.00000  Uiso   1.00
C283   C     0.58124   0.97913   0.22888   0.00000  Uiso   1.00
C284   C     0.58819   0.01986   0.28038   0.00000  Uiso   1.00
C285   C     0.59665   0.10812   0.34766   0.00000  Uiso   1.00
C286   C     0.52308   0.81383   0.23381   0.00000  Uiso   1.00
C287   C     0.46868   0.80489   0.21627   0.00000  Uiso   1.00
C288   C     0.42415   0.76593   0.26200   0.00000  Uiso   1.00
C289   C     0.33768   0.70721   0.31864   0.00000  Uiso   1.00
C290   C     0.59544   0.80124   0.30377   0.00000  Uiso   1.00
C291   C     0.64782   0.77574   0.23769   0.00000  Uiso   1.00
C292   C     0.70021   0.72908   0.23538   0.00000  Uiso   1.00
C293   C     0.74275   0.71236   0.16976   0.00000  Uiso   1.00
C294   C     0.59379   0.87957   0.30172   0.00000  Uiso   1.00
C295   C     0.60074   0.92021   0.35325   0.00000  Uiso   1.00
C296   C     0.59778   0.99088   0.34154   0.00000  Uiso   1.00
C297   C     0.53265   0.78490   0.29487   0.00000  Uiso   1.00
C298   C     0.48818   0.74596   0.34064   0.00000  Uiso   1.00
C299   C     0.43374   0.73696   0.32317   0.00000  Uiso   1.00
H300   H     0.57037   0.87702   0.14383   0.00000  Uiso   1.00
H301   H     0.67330   0.81041   0.06377   0.00000  Uiso   1.00
H302   H     0.57383   0.00150   0.18163   0.00000  Uiso   1.00
H303   H     0.46129   0.82728   0.16902   0.00000  Uiso   1.00
H304   H     0.79164   0.72382   0.00195   0.00000  Uiso   1.00
H305   H     0.58189   0.12675   0.25046   0.00000  Uiso   1.00
H306   H     0.34458   0.75938   0.22387   0.00000  Uiso   1.00
H307   H     0.60289   0.77872   0.35131   0.00000  Uiso   1.00
H308   H     0.70761   0.70671   0.28264   0.00000  Uiso   1.00
H309   H     0.60814   0.89781   0.40049   0.00000  Uiso   1.00
H310   H     0.49560   0.72359   0.38788   0.00000  Uiso   1.00
H311   H     0.81949   0.63966   0.17959   0.00000  Uiso   1.00
H312   H     0.60974   0.04259   0.42810   0.00000  Uiso   1.00
H313   H     0.37243   0.67522   0.40151   0.00000  Uiso   1.00
O314   O     0.87388   0.63616   0.04185   0.00000  Uiso   1.00
O315   O     0.59867   0.16479   0.36790   0.00000  Uiso   1.00
O316   O     0.28734   0.68280   0.33301   0.00000  Uiso   1.00
N317   N     0.78382   0.71388   0.05318   0.00000  Uiso   1.00
N318   N     0.58772   0.09060   0.28552   0.00000  Uiso   1.00
N319   N     0.36585   0.74715   0.26067   0.00000  Uiso   1.00
N320   N     0.79880   0.66860   0.14876   0.00000  Uiso   1.00
N321   N     0.60271   0.04531   0.38110   0.00000  Uiso   1.00
N322   N     0.38084   0.70186   0.35625   0.00000  Uiso   1.00
C323   C     0.16324   0.62444   0.92368   0.00000  Uiso   1.00
C324   C     0.10814   0.67277   0.91340   0.00000  Uiso   1.00
C325   C     0.04417   0.66067   0.93631   0.00000  Uiso   1.00
C326   C     0.00108   0.71126   0.92175   0.00000  Uiso   1.00
C327   C     0.91243   0.77712   0.91131   0.00000  Uiso   1.00
C328   C     0.19678   0.66629   0.96122   0.00000  Uiso   1.00
C329   C     0.20736   0.64872   0.02433   0.00000  Uiso   1.00
C330   C     0.23889   0.69384   0.05001   0.00000  Uiso   1.00
C331   C     0.28791   0.74961   0.11379   0.00000  Uiso   1.00
C332   C     0.21032   0.61057   0.85080   0.00000  Uiso   1.00
C333   C     0.23230   0.54616   0.82107   0.00000  Uiso   1.00
C334   C     0.27525   0.54437   0.75380   0.00000  Uiso   1.00
C335   C     0.34529   0.51363   0.64614   0.00000  Uiso   1.00
C336   C     0.20047   0.73580   0.85709   0.00000  Uiso   1.00
C337   C     0.12835   0.73326   0.87723   0.00000  Uiso   1.00
C338   C     0.08535   0.78388   0.86263   0.00000  Uiso   1.00
C339   C     0.02133   0.77185   0.88551   0.00000  Uiso   1.00
C340   C     0.21700   0.72677   0.92505   0.00000  Uiso   1.00
C341   C     0.24853   0.77193   0.95065   0.00000  Uiso   1.00
C342   C     0.25915   0.75444   0.01378   0.00000  Uiso   1.00
C343   C     0.23054   0.67106   0.81463   0.00000  Uiso   1.00
C344   C     0.27347   0.66937   0.74739   0.00000  Uiso   1.00
C345   C     0.29550   0.60497   0.71756   0.00000  Uiso   1.00
H346   H     0.14751   0.57735   0.95185   0.00000  Uiso   1.00
H347   H     0.02854   0.61385   0.96430   0.00000  Uiso   1.00
H348   H     0.19171   0.60191   0.05230   0.00000  Uiso   1.00
H349   H     0.21664   0.49936   0.84908   0.00000  Uiso   1.00
H350   H     0.90556   0.68102   0.96218   0.00000  Uiso   1.00
H351   H     0.24962   0.65581   0.14772   0.00000  Uiso   1.00
H352   H     0.30221   0.43957   0.71918   0.00000  Uiso   1.00
H353   H     0.21621   0.78289   0.82893   0.00000  Uiso   1.00
H354   H     0.10101   0.83068   0.83464   0.00000  Uiso   1.00
H355   H     0.26417   0.81873   0.92264   0.00000  Uiso   1.00
H356   H     0.28911   0.71619   0.71942   0.00000  Uiso   1.00
H357   H     0.96438   0.85701   0.85695   0.00000  Uiso   1.00
H358   H     0.30844   0.83179   0.04249   0.00000  Uiso   1.00
H359   H     0.36102   0.61556   0.61395   0.00000  Uiso   1.00
O360   O     0.85795   0.79675   0.91556   0.00000  Uiso   1.00
O361   O     0.30936   0.76367   0.15897   0.00000  Uiso   1.00
O362   O     0.37833   0.47997   0.59674   0.00000  Uiso   1.00
N363   N     0.93521   0.71587   0.93662   0.00000  Uiso   1.00
N364   N     0.25688   0.69231   0.11010   0.00000  Uiso   1.00
N365   N     0.30606   0.49014   0.70945   0.00000  Uiso   1.00
N366   N     0.96686   0.81057   0.87999   0.00000  Uiso   1.00
N367   N     0.28853   0.78701   0.05347   0.00000  Uiso   1.00
N368   N     0.33770   0.58484   0.65283   0.00000  Uiso   1.00
C369   C     0.88569   0.07021   0.67173   0.00000  Uiso   1.00
C370   C     0.85128   0.05559   0.74856   0.00000  Uiso   1.00
C371   C     0.85721   0.99371   0.78341   0.00000  Uiso   1.00
C372   C     0.82171   0.99070   0.85367   0.00000  Uiso   1.00
C373   C     0.77438   0.95936   0.96779   0.00000  Uiso   1.00
C374   C     0.92183   0.13279   0.67058   0.00000  Uiso   1.00
C375   C     0.98707   0.13580   0.63985   0.00000  Uiso   1.00
C376   C     0.01095   0.19778   0.64446   0.00000  Uiso   1.00
C377   C     0.07314   0.28630   0.63746   0.00000  Uiso   1.00
C378   C     0.83355   0.09402   0.63909   0.00000  Uiso   1.00
C379   C     0.82457   0.06446   0.58188   0.00000  Uiso   1.00
C380   C     0.77414   0.09381   0.55998   0.00000  Uiso   1.00
C381   C     0.69927   0.12214   0.50410   0.00000  Uiso   1.00
C382   C     0.81210   0.17493   0.73454   0.00000  Uiso   1.00
C383   C     0.81131   0.11248   0.78267   0.00000  Uiso   1.00
C384   C     0.77579   0.10956   0.85290   0.00000  Uiso   1.00
C385   C     0.78167   0.04768   0.88785   0.00000  Uiso   1.00
C386   C     0.88186   0.18967   0.70469   0.00000  Uiso   1.00
C387   C     0.90565   0.25166   0.70934   0.00000  Uiso   1.00
C388   C     0.97091   0.25477   0.67863   0.00000  Uiso   1.00
C389   C     0.79358   0.15090   0.67321   0.00000  Uiso   1.00
C390   C     0.74316   0.18031   0.65138   0.00000  Uiso   1.00
C391   C     0.73410   0.15080   0.59415   0.00000  Uiso   1.00
H392   H     0.91681   0.02593   0.64517   0.00000  Uiso   1.00
H393   H     0.88815   0.94970   0.75699   0.00000  Uiso   1.00
H394   H     0.01798   0.09178   0.61344   0.00000  Uiso   1.00
H395   H     0.85551   0.02044   0.55550   0.00000  Uiso   1.00
H396   H     0.83877   0.89027   0.89602   0.00000  Uiso   1.00
H397   H     0.11252   0.18986   0.59333   0.00000  Uiso   1.00
H398   H     0.76993   0.03943   0.47113   0.00000  Uiso   1.00
H399   H     0.78099   0.21922   0.76110   0.00000  Uiso   1.00
H400   H     0.74487   0.15359   0.87929   0.00000  Uiso   1.00
H401   H     0.87470   0.29567   0.73574   0.00000  Uiso   1.00
H402   H     0.71223   0.22433   0.67779   0.00000  Uiso   1.00
H403   H     0.72247   0.05576   0.99529   0.00000  Uiso   1.00
H404   H     0.99623   0.35534   0.69258   0.00000  Uiso   1.00
H405   H     0.65363   0.20492   0.57039   0.00000  Uiso   1.00
O406   O     0.75933   0.92636   0.02132   0.00000  Uiso   1.00
O407   O     0.11848   0.31941   0.62418   0.00000  Uiso   1.00
O408   O     0.66900   0.12205   0.46386   0.00000  Uiso   1.00
N409   N     0.81634   0.93822   0.90316   0.00000  Uiso   1.00
N410   N     0.07229   0.21831   0.62017   0.00000  Uiso   1.00
N411   N     0.75200   0.07769   0.50591   0.00000  Uiso   1.00
N412   N     0.75377   0.02727   0.95657   0.00000  Uiso   1.00
N413   N     0.00972   0.30736   0.67358   0.00000  Uiso   1.00
N414   N     0.68943   0.16673   0.55932   0.00000  Uiso   1.00
C415   C     0.12543   0.44746   0.31392   0.00000  Uiso   1.00
C416   C     0.18821   0.44247   0.25393   0.00000  Uiso   1.00
C417   C     0.21564   0.38454   0.21368   0.00000  Uiso   1.00
C418   C     0.27325   0.39041   0.16127   0.00000  Uiso   1.00
C419   C     0.36631   0.37328   0.06992   0.00000  Uiso   1.00
C420   C     0.14127   0.47016   0.37751   0.00000  Uiso   1.00
C421   C     0.12923   0.43551   0.44117   0.00000  Uiso   1.00
C422   C     0.14731   0.46469   0.49279   0.00000  Uiso   1.00
C423   C     0.16746   0.49057   0.59331   0.00000  Uiso   1.00
C424   C     0.08350   0.50750   0.29560   0.00000  Uiso   1.00
C425   C     0.02288   0.50425   0.29040   0.00000  Uiso   1.00
C426   C     0.99232   0.56487   0.27307   0.00000  Uiso   1.00
C427   C     0.92278   0.64872   0.24641   0.00000  Uiso   1.00
C428   C     0.17894   0.56091   0.29242   0.00000  Uiso   1.00
C429   C     0.21727   0.50409   0.24225   0.00000  Uiso   1.00
C430   C     0.27485   0.51005   0.18989   0.00000  Uiso   1.00
C431   C     0.30236   0.45214   0.14957   0.00000  Uiso   1.00
C432   C     0.17033   0.53178   0.36583   0.00000  Uiso   1.00
C433   C     0.18843   0.56102   0.41737   0.00000  Uiso   1.00
C434   C     0.17643   0.52642   0.48109   0.00000  Uiso   1.00
C435   C     0.11256   0.56912   0.28391   0.00000  Uiso   1.00
C436   C     0.08209   0.62976   0.26660   0.00000  Uiso   1.00
C437   C     0.02144   0.62660   0.26137   0.00000  Uiso   1.00
H438   H     0.10281   0.39949   0.32302   0.00000  Uiso   1.00
H439   H     0.19314   0.33686   0.22274   0.00000  Uiso   1.00
H440   H     0.10673   0.38783   0.45020   0.00000  Uiso   1.00
H441   H     0.00041   0.45656   0.29944   0.00000  Uiso   1.00
H442   H     0.30612   0.29459   0.10643   0.00000  Uiso   1.00
H443   H     0.12391   0.40207   0.58603   0.00000  Uiso   1.00
H444   H     0.89969   0.54699   0.26815   0.00000  Uiso   1.00
H445   H     0.20157   0.60888   0.28332   0.00000  Uiso   1.00
H446   H     0.29733   0.55774   0.18086   0.00000  Uiso   1.00
H447   H     0.21092   0.60871   0.40831   0.00000  Uiso   1.00
H448   H     0.10460   0.67743   0.25756   0.00000  Uiso   1.00
H449   H     0.39068   0.47386   0.07244   0.00000  Uiso   1.00
H450   H     0.20847   0.58134   0.55204   0.00000  Uiso   1.00
H451   H     0.98426   0.72627   0.23415   0.00000  Uiso   1.00
O452   O     0.40962   0.34680   0.02276   0.00000  Uiso   1.00
O453   O     0.17055   0.48781   0.65199   0.00000  Uiso   1.00
O454   O     0.87640   0.67795   0.23492   0.00000  Uiso   1.00
N455   N     0.31287   0.34381   0.11248   0.00000  Uiso   1.00
N456   N     0.14253   0.44428   0.56088   0.00000  Uiso   1.00
N457   N     0.93290   0.57978   0.26370   0.00000  Uiso   1.00
N458   N     0.35838   0.44027   0.09419   0.00000  Uiso   1.00
N459   N     0.18803   0.54075   0.54259   0.00000  Uiso   1.00
N460   N     0.97840   0.67625   0.24541   0.00000  Uiso   1.00
C461   C     0.47420   0.34635   0.19058   0.00000  Uiso   1.00
C462   C     0.45352   0.27390   0.20753   0.00000  Uiso   1.00
C463   C     0.41848   0.24065   0.17476   0.00000  Uiso   1.00
C464   C     0.40437   0.17446   0.19785   0.00000  Uiso   1.00
C465   C     0.36916   0.06679   0.21599   0.00000  Uiso   1.00
C466   C     0.44790   0.38612   0.25892   0.00000  Uiso   1.00
C467   C     0.40814   0.44723   0.26935   0.00000  Uiso   1.00
C468   C     0.38931   0.47553   0.33570   0.00000  Uiso   1.00
C469   C     0.34542   0.54211   0.43361   0.00000  Uiso   1.00
C470   C     0.54671   0.33902   0.17335   0.00000  Uiso   1.00
C471   C     0.59002   0.36054   0.11183   0.00000  Uiso   1.00
C472   C     0.65438   0.34919   0.10614   0.00000  Uiso   1.00
C473   C     0.76389   0.34264   0.07118   0.00000  Uiso   1.00
C474   C     0.51147   0.28794   0.28988   0.00000  Uiso   1.00
C475   C     0.47377   0.24217   0.26147   0.00000  Uiso   1.00
C476   C     0.45972   0.17602   0.28462   0.00000  Uiso   1.00
C477   C     0.42465   0.14267   0.25188   0.00000  Uiso   1.00
C478   C     0.46815   0.35439   0.31286   0.00000  Uiso   1.00
C479   C     0.44938   0.38260   0.37921   0.00000  Uiso   1.00
C480   C     0.40960   0.44374   0.38973   0.00000  Uiso   1.00
C481   C     0.56696   0.30728   0.22728   0.00000  Uiso   1.00
C482   C     0.63126   0.29590   0.22169   0.00000  Uiso   1.00
C483   C     0.67466   0.31740   0.16018   0.00000  Uiso   1.00
H484   H     0.45843   0.37106   0.14860   0.00000  Uiso   1.00
H485   H     0.40281   0.26522   0.13302   0.00000  Uiso   1.00
H486   H     0.39249   0.47178   0.22760   0.00000  Uiso   1.00
H487   H     0.57433   0.38509   0.07010   0.00000  Uiso   1.00
H488   H     0.35005   0.13390   0.13956   0.00000  Uiso   1.00
H489   H     0.32830   0.56945   0.33897   0.00000  Uiso   1.00
H490   H     0.71176   0.38666   0.00686   0.00000  Uiso   1.00
H491   H     0.52724   0.26323   0.33188   0.00000  Uiso   1.00
H492   H     0.47539   0.15147   0.32636   0.00000  Uiso   1.00
H493   H     0.46506   0.35804   0.42093   0.00000  Uiso   1.00
H494   H     0.64691   0.27135   0.26344   0.00000  Uiso   1.00
H495   H     0.40895   0.04158   0.29648   0.00000  Uiso   1.00
H496   H     0.38720   0.47713   0.49589   0.00000  Uiso   1.00
H497   H     0.77066   0.29434   0.16379   0.00000  Uiso   1.00
O498   O     0.34413   0.01618   0.21110   0.00000  Uiso   1.00
O499   O     0.31561   0.58761   0.47271   0.00000  Uiso   1.00
O500   O     0.81870   0.34778   0.03700   0.00000  Uiso   1.00
N501   N     0.37104   0.12750   0.17724   0.00000  Uiso   1.00
N502   N     0.35069   0.53471   0.36368   0.00000  Uiso   1.00
N503   N     0.70920   0.36383   0.05319   0.00000  Uiso   1.00
N504   N     0.40274   0.07783   0.26168   0.00000  Uiso   1.00
N505   N     0.38239   0.48503   0.44811   0.00000  Uiso   1.00
N506   N     0.74089   0.31415   0.13763   0.00000  Uiso   1.00
C507   C     0.33627   0.12851   0.52767   0.00000  Uiso   1.00
C508   C     0.29766   0.16163   0.48209   0.00000  Uiso   1.00
C509   C     0.29300   0.13355   0.42195   0.00000  Uiso   1.00
C510   C     0.25529   0.17192   0.38765   0.00000  Uiso   1.00
C511   C     0.20020   0.21360   0.31305   0.00000  Uiso   1.00
C512   C     0.38177   0.18065   0.53126   0.00000  Uiso   1.00
C513   C     0.44783   0.16856   0.51247   0.00000  Uiso   1.00
C514   C     0.48092   0.22295   0.51958   0.00000  Uiso   1.00
C515   C     0.55642   0.29415   0.52137   0.00000  Uiso   1.00
C516   C     0.28917   0.12417   0.60121   0.00000  Uiso   1.00
C517   C     0.27739   0.06460   0.64124   0.00000  Uiso   1.00
C518   C     0.23253   0.07143   0.70726   0.00000  Uiso   1.00
C519   C     0.16426   0.05493   0.81765   0.00000  Uiso   1.00
C520   C     0.27757   0.24658   0.57371   0.00000  Uiso   1.00
C521   C     0.26577   0.22576   0.50710   0.00000  Uiso   1.00
C522   C     0.22805   0.26418   0.47289   0.00000  Uiso   1.00
C523   C     0.22334   0.23616   0.41271   0.00000  Uiso   1.00
C524   C     0.34989   0.24478   0.55627   0.00000  Uiso   1.00
C525   C     0.38289   0.29919   0.56341   0.00000  Uiso   1.00
C526   C     0.44898   0.28719   0.54464   0.00000  Uiso   1.00
C527   C     0.25729   0.18830   0.62622   0.00000  Uiso   1.00
C528   C     0.21244   0.19523   0.69218   0.00000  Uiso   1.00
C529   C     0.20059   0.13567   0.73231   0.00000  Uiso   1.00
H530   H     0.36110   0.07859   0.50820   0.00000  Uiso   1.00
H531   H     0.31769   0.08392   0.40261   0.00000  Uiso   1.00
H532   H     0.47249   0.11893   0.49313   0.00000  Uiso   1.00
H533   H     0.30207   0.01498   0.62187   0.00000  Uiso   1.00
H534   H     0.25551   0.11813   0.29655   0.00000  Uiso   1.00
H535   H     0.58193   0.19194   0.48744   0.00000  Uiso   1.00
H536   H     0.22257   0.97274   0.75893   0.00000  Uiso   1.00
H537   H     0.25275   0.29651   0.59318   0.00000  Uiso   1.00
H538   H     0.20339   0.31380   0.49225   0.00000  Uiso   1.00
H539   H     0.35820   0.34881   0.58277   0.00000  Uiso   1.00
H540   H     0.18778   0.24486   0.71152   0.00000  Uiso   1.00
H541   H     0.16275   0.30471   0.36931   0.00000  Uiso   1.00
H542   H     0.48916   0.37852   0.56020   0.00000  Uiso   1.00
H543   H     0.12980   0.15932   0.83169   0.00000  Uiso   1.00
O544   O     0.17863   0.21888   0.26499   0.00000  Uiso   1.00
O545   O     0.60687   0.31570   0.51544   0.00000  Uiso   1.00
O546   O     0.13540   0.02812   0.87163   0.00000  Uiso   1.00
N547   N     0.24044   0.15966   0.32754   0.00000  Uiso   1.00
N548   N     0.54563   0.22867   0.50599   0.00000  Uiso   1.00
N549   N     0.20966   0.02374   0.75982   0.00000  Uiso   1.00
N550   N     0.19053   0.26006   0.36669   0.00000  Uiso   1.00
N551   N     0.49571   0.32907   0.54514   0.00000  Uiso   1.00
N552   N     0.15975   0.12414   0.79897   0.00000  Uiso   1.00
