data_job_06376
_audit_creation_date              2018-12-19
_audit_creation_method            'Materials Studio'
_symmetry_space_group_name_H-M    'P1'
_symmetry_Int_Tables_number       1
_symmetry_cell_setting            triclinic
loop_
_symmetry_equiv_pos_as_xyz
  x,y,z
_cell_length_a                    10.0162
_cell_length_b                    22.5447
_cell_length_c                    22.9505
_cell_angle_alpha                 117.8250
_cell_angle_beta                  80.2345
_cell_angle_gamma                 84.5299
loop_
_atom_site_label
_atom_site_type_symbol
_atom_site_fract_x
_atom_site_fract_y
_atom_site_fract_z
_atom_site_U_iso_or_equiv
_atom_site_adp_type
_atom_site_occupancy
C1     C     0.06675   0.59847   0.79994   0.00000  Uiso   1.00
C2     C     0.94311   0.65651   0.82481   0.00000  Uiso   1.00
C3     C     0.80899   0.64888   0.81977   0.00000  Uiso   1.00
C4     C     0.71057   0.70832   0.84556   0.00000  Uiso   1.00
C5     C     0.51335   0.78860   0.87962   0.00000  Uiso   1.00
C6     C     0.17564   0.60742   0.75109   0.00000  Uiso   1.00
C7     C     0.23704   0.55851   0.68407   0.00000  Uiso   1.00
C8     C     0.33438   0.57662   0.64781   0.00000  Uiso   1.00
C9     C     0.49824   0.58066   0.56744   0.00000  Uiso   1.00
C10    C     0.12515   0.61312   0.86144   0.00000  Uiso   1.00
C11    C     0.14413   0.56900   0.88720   0.00000  Uiso   1.00
C12    C     0.19899   0.59191   0.94383   0.00000  Uiso   1.00
C13    C     0.28445   0.60480   0.03479   0.00000  Uiso   1.00
C14    C     0.13047   0.71760   0.85470   0.00000  Uiso   1.00
C15    C     0.97773   0.72121   0.85455   0.00000  Uiso   1.00
C16    C     0.87949   0.78068   0.88036   0.00000  Uiso   1.00
C17    C     0.74524   0.77314   0.87536   0.00000  Uiso   1.00
C18    C     0.21026   0.67212   0.78083   0.00000  Uiso   1.00
C19    C     0.30754   0.69031   0.74466   0.00000  Uiso   1.00
C20    C     0.36905   0.64144   0.67761   0.00000  Uiso   1.00
C21    C     0.15976   0.67783   0.89118   0.00000  Uiso   1.00
C22    C     0.21462   0.70080   0.94778   0.00000  Uiso   1.00
C23    C     0.23366   0.65673   0.97363   0.00000  Uiso   1.00
H24    H     0.03981   0.54809   0.77678   0.00000  Uiso   1.00
H25    H     0.78225   0.59880   0.79674   0.00000  Uiso   1.00
H26    H     0.21024   0.50844   0.66107   0.00000  Uiso   1.00
H27    H     0.11733   0.51893   0.86416   0.00000  Uiso   1.00
H28    H     0.51197   0.68355   0.83197   0.00000  Uiso   1.00
H29    H     0.41445   0.49301   0.54591   0.00000  Uiso   1.00
H30    H     0.21854   0.51513   0.97417   0.00000  Uiso   1.00
H31    H     0.15742   0.76797   0.87786   0.00000  Uiso   1.00
H32    H     0.90630   0.83075   0.90337   0.00000  Uiso   1.00
H33    H     0.33430   0.74038   0.76770   0.00000  Uiso   1.00
H34    H     0.24139   0.75088   0.97079   0.00000  Uiso   1.00
H35    H     0.61266   0.87180   0.91851   0.00000  Uiso   1.00
H36    H     0.51515   0.68127   0.63245   0.00000  Uiso   1.00
H37    H     0.31923   0.70339   0.06071   0.00000  Uiso   1.00
O38    O     0.39501   0.81500   0.89018   0.00000  Uiso   1.00
O39    O     0.57905   0.56502   0.51489   0.00000  Uiso   1.00
O40    O     0.32201   0.59404   0.07675   0.00000  Uiso   1.00
N41    N     0.57012   0.71924   0.84885   0.00000  Uiso   1.00
N42    N     0.41387   0.54110   0.58140   0.00000  Uiso   1.00
N43    N     0.23075   0.56178   0.98177   0.00000  Uiso   1.00
N44    N     0.62430   0.82054   0.89541   0.00000  Uiso   1.00
N45    N     0.46805   0.64240   0.62797   0.00000  Uiso   1.00
N46    N     0.28493   0.66308   0.02834   0.00000  Uiso   1.00
C47    C     0.86954   0.19971   0.79926   0.00000  Uiso   1.00
C48    C     0.76667   0.17278   0.83320   0.00000  Uiso   1.00
C49    C     0.62800   0.17590   0.83238   0.00000  Uiso   1.00
C50    C     0.55117   0.14841   0.86646   0.00000  Uiso   1.00
C51    C     0.38233   0.11111   0.91406   0.00000  Uiso   1.00
C52    C     0.92932   0.24995   0.85528   0.00000  Uiso   1.00
C53    C     0.92743   0.31796   0.87302   0.00000  Uiso   1.00
C54    C     0.98754   0.35543   0.92569   0.00000  Uiso   1.00
C55    C     0.07131   0.43793   0.00754   0.00000  Uiso   1.00
C56    C     0.98810   0.13914   0.75179   0.00000  Uiso   1.00
C57    C     0.03566   0.11399   0.68251   0.00000  Uiso   1.00
C58    C     0.14529   0.05816   0.64805   0.00000  Uiso   1.00
C59    C     0.32032   0.96861   0.56921   0.00000  Uiso   1.00
C60    C     0.97970   0.14532   0.86124   0.00000  Uiso   1.00
C61    C     0.82651   0.14323   0.86686   0.00000  Uiso   1.00
C62    C     0.74987   0.11572   0.90095   0.00000  Uiso   1.00
C63    C     0.61111   0.11881   0.90018   0.00000  Uiso   1.00
C64    C     0.98916   0.22041   0.88894   0.00000  Uiso   1.00
C65    C     0.04930   0.25778   0.94159   0.00000  Uiso   1.00
C66    C     0.04748   0.32583   0.95941   0.00000  Uiso   1.00
C67    C     0.04794   0.10959   0.78545   0.00000  Uiso   1.00
C68    C     0.15753   0.05380   0.75109   0.00000  Uiso   1.00
C69    C     0.20523   0.02856   0.68178   0.00000  Uiso   1.00
H70    H     0.82296   0.22272   0.77306   0.00000  Uiso   1.00
H71    H     0.58173   0.19878   0.80633   0.00000  Uiso   1.00
H72    H     0.88113   0.34081   0.84696   0.00000  Uiso   1.00
H73    H     0.98933   0.13686   0.65648   0.00000  Uiso   1.00
H74    H     0.34065   0.15923   0.85808   0.00000  Uiso   1.00
H75    H     0.97199   0.45871   0.94374   0.00000  Uiso   1.00
H76    H     0.20017   0.02865   0.54208   0.00000  Uiso   1.00
H77    H     0.02628   0.12231   0.88745   0.00000  Uiso   1.00
H78    H     0.79620   0.09286   0.92700   0.00000  Uiso   1.00
H79    H     0.09560   0.23490   0.96763   0.00000  Uiso   1.00
H80    H     0.20380   0.03095   0.77715   0.00000  Uiso   1.00
H81    H     0.51473   0.07327   0.95603   0.00000  Uiso   1.00
H82    H     0.14607   0.37274   0.04168   0.00000  Uiso   1.00
H83    H     0.37424   0.94268   0.64002   0.00000  Uiso   1.00
O84    O     0.27266   0.09871   0.93103   0.00000  Uiso   1.00
O85    O     0.10097   0.49160   0.04339   0.00000  Uiso   1.00
O86    O     0.40033   0.92737   0.51643   0.00000  Uiso   1.00
N87    N     0.41320   0.14303   0.87569   0.00000  Uiso   1.00
N88    N     0.00345   0.42303   0.95578   0.00000  Uiso   1.00
N89    N     0.21680   0.02096   0.58027   0.00000  Uiso   1.00
N90    N     0.50687   0.09677   0.92840   0.00000  Uiso   1.00
N91    N     0.09711   0.37677   0.00849   0.00000  Uiso   1.00
N92    N     0.31046   0.97471   0.63297   0.00000  Uiso   1.00
C93    C     0.66556   0.19940   0.40071   0.00000  Uiso   1.00
C94    C     0.59820   0.16422   0.34174   0.00000  Uiso   1.00
C95    C     0.45845   0.16301   0.34737   0.00000  Uiso   1.00
C96    C     0.41732   0.12807   0.28738   0.00000  Uiso   1.00
C97    C     0.29823   0.07838   0.20545   0.00000  Uiso   1.00
C98    C     0.77767   0.14410   0.39369   0.00000  Uiso   1.00
C99    C     0.78883   0.12597   0.44300   0.00000  Uiso   1.00
C100   C     0.89879   0.07410   0.42674   0.00000  Uiso   1.00
C101   C     0.05839   0.99319   0.42549   0.00000  Uiso   1.00
C102   C     0.74107   0.24882   0.38682   0.00000  Uiso   1.00
C103   C     0.72148   0.31874   0.43036   0.00000  Uiso   1.00
C104   C     0.80066   0.35503   0.40832   0.00000  Uiso   1.00
C105   C     0.90343   0.43672   0.39640   0.00000  Uiso   1.00
C106   C     0.84103   0.13950   0.28416   0.00000  Uiso   1.00
C107   C     0.69351   0.13169   0.27844   0.00000  Uiso   1.00
C108   C     0.65258   0.09675   0.21842   0.00000  Uiso   1.00
C109   C     0.51279   0.09548   0.22396   0.00000  Uiso   1.00
C110   C     0.87297   0.11157   0.33039   0.00000  Uiso   1.00
C111   C     0.98296   0.05971   0.31405   0.00000  Uiso   1.00
C112   C     0.99427   0.04151   0.36332   0.00000  Uiso   1.00
C113   C     0.83637   0.21629   0.32351   0.00000  Uiso   1.00
C114   C     0.91560   0.25247   0.30141   0.00000  Uiso   1.00
C115   C     0.89613   0.32244   0.34491   0.00000  Uiso   1.00
H116   H     0.59137   0.22472   0.44999   0.00000  Uiso   1.00
H117   H     0.38473   0.18819   0.39637   0.00000  Uiso   1.00
H118   H     0.71507   0.15116   0.49199   0.00000  Uiso   1.00
H119   H     0.64772   0.34390   0.47934   0.00000  Uiso   1.00
H120   H     0.19767   0.13332   0.30900   0.00000  Uiso   1.00
H121   H     0.89422   0.05526   0.51063   0.00000  Uiso   1.00
H122   H     0.75222   0.46168   0.48397   0.00000  Uiso   1.00
H123   H     0.91523   0.11418   0.23487   0.00000  Uiso   1.00
H124   H     0.72636   0.07158   0.16944   0.00000  Uiso   1.00
H125   H     0.05669   0.03455   0.26506   0.00000  Uiso   1.00
H126   H     0.98935   0.22728   0.25242   0.00000  Uiso   1.00
H127   H     0.47494   0.03867   0.12482   0.00000  Uiso   1.00
H128   H     0.17150   0.96061   0.32645   0.00000  Uiso   1.00
H129   H     0.02949   0.36703   0.29979   0.00000  Uiso   1.00
O130   O     0.20622   0.05995   0.17775   0.00000  Uiso   1.00
O131   O     0.12009   0.95755   0.44228   0.00000  Uiso   1.00
O132   O     0.93377   0.49076   0.40731   0.00000  Uiso   1.00
N133   N     0.28884   0.11690   0.27463   0.00000  Uiso   1.00
N134   N     0.94007   0.04391   0.46314   0.00000  Uiso   1.00
N135   N     0.80733   0.42388   0.43822   0.00000  Uiso   1.00
N136   N     0.43804   0.06597   0.17552   0.00000  Uiso   1.00
N137   N     0.08927   0.99298   0.36403   0.00000  Uiso   1.00
N138   N     0.95653   0.37295   0.33912   0.00000  Uiso   1.00
C139   C     0.36689   0.79835   0.20007   0.00000  Uiso   1.00
C140   C     0.26819   0.83145   0.17485   0.00000  Uiso   1.00
C141   C     0.12912   0.82877   0.17976   0.00000  Uiso   1.00
C142   C     0.05653   0.86236   0.15364   0.00000  Uiso   1.00
C143   C     0.89348   0.90845   0.11907   0.00000  Uiso   1.00
C144   C     0.42719   0.85593   0.24886   0.00000  Uiso   1.00
C145   C     0.42181   0.87383   0.31598   0.00000  Uiso   1.00
C146   C     0.48309   0.92802   0.35216   0.00000  Uiso   1.00
C147   C     0.56697   0.01209   0.43246   0.00000  Uiso   1.00
C148   C     0.48643   0.75183   0.13875   0.00000  Uiso   1.00
C149   C     0.53090   0.68220   0.11330   0.00000  Uiso   1.00
C150   C     0.64208   0.64876   0.05678   0.00000  Uiso   1.00
C151   C     0.81795   0.57119   0.96613   0.00000  Uiso   1.00
C152   C     0.48530   0.86276   0.14497   0.00000  Uiso   1.00
C153   C     0.33251   0.86643   0.14493   0.00000  Uiso   1.00
C154   C     0.26012   0.90003   0.11880   0.00000  Uiso   1.00
C155   C     0.12096   0.89741   0.12366   0.00000  Uiso   1.00
C156   C     0.49150   0.89092   0.21893   0.00000  Uiso   1.00
C157   C     0.55281   0.94509   0.25502   0.00000  Uiso   1.00
C158   C     0.54752   0.96307   0.32218   0.00000  Uiso   1.00
C159   C     0.55075   0.78682   0.10882   0.00000  Uiso   1.00
C160   C     0.66189   0.75347   0.05234   0.00000  Uiso   1.00
C161   C     0.70651   0.68381   0.02681   0.00000  Uiso   1.00
H162   H     0.31682   0.77112   0.22337   0.00000  Uiso   1.00
H163   H     0.07938   0.80169   0.20292   0.00000  Uiso   1.00
H164   H     0.37204   0.84674   0.33912   0.00000  Uiso   1.00
H165   H     0.48110   0.65515   0.13647   0.00000  Uiso   1.00
H166   H     0.84448   0.85104   0.16708   0.00000  Uiso   1.00
H167   H     0.46161   0.94601   0.45425   0.00000  Uiso   1.00
H168   H     0.69160   0.54200   0.02692   0.00000  Uiso   1.00
H169   H     0.53537   0.89000   0.12168   0.00000  Uiso   1.00
H170   H     0.30992   0.92710   0.09565   0.00000  Uiso   1.00
H171   H     0.60258   0.97215   0.23185   0.00000  Uiso   1.00
H172   H     0.71164   0.78056   0.02920   0.00000  Uiso   1.00
H173   H     0.03159   0.95283   0.08001   0.00000  Uiso   1.00
H174   H     0.64873   0.04780   0.36719   0.00000  Uiso   1.00
H175   H     0.87871   0.64379   0.93986   0.00000  Uiso   1.00
O176   O     0.78577   0.92422   0.10828   0.00000  Uiso   1.00
O177   O     0.59545   0.04880   0.48503   0.00000  Uiso   1.00
O178   O     0.89717   0.51875   0.92439   0.00000  Uiso   1.00
N179   N     0.91946   0.86990   0.15015   0.00000  Uiso   1.00
N180   N     0.49643   0.95869   0.41864   0.00000  Uiso   1.00
N181   N     0.71147   0.58098   0.01914   0.00000  Uiso   1.00
N182   N     0.02014   0.92467   0.10330   0.00000  Uiso   1.00
N183   N     0.59711   0.01347   0.37179   0.00000  Uiso   1.00
N184   N     0.81215   0.63575   0.97229   0.00000  Uiso   1.00
C185   C     0.16889   0.40035   0.20046   0.00000  Uiso   1.00
C186   C     0.09976   0.33966   0.16663   0.00000  Uiso   1.00
C187   C     0.96036   0.34352   0.16727   0.00000  Uiso   1.00
C188   C     0.91740   0.28214   0.13333   0.00000  Uiso   1.00
C189   C     0.79588   0.19749   0.08585   0.00000  Uiso   1.00
C190   C     0.28445   0.39478   0.14443   0.00000  Uiso   1.00
C191   C     0.30035   0.44499   0.12642   0.00000  Uiso   1.00
C192   C     0.41288   0.43001   0.07380   0.00000  Uiso   1.00
C193   C     0.57817   0.43095   0.99190   0.00000  Uiso   1.00
C194   C     0.24005   0.38721   0.24822   0.00000  Uiso   1.00
C195   C     0.21866   0.43105   0.31746   0.00000  Uiso   1.00
C196   C     0.29383   0.40970   0.35222   0.00000  Uiso   1.00
C197   C     0.39018   0.39888   0.43145   0.00000  Uiso   1.00
C198   C     0.34047   0.28450   0.13905   0.00000  Uiso   1.00
C199   C     0.19296   0.27674   0.13327   0.00000  Uiso   1.00
C200   C     0.15019   0.21534   0.09933   0.00000  Uiso   1.00
C201   C     0.01075   0.21910   0.09992   0.00000  Uiso   1.00
C202   C     0.37765   0.33186   0.11108   0.00000  Uiso   1.00
C203   C     0.49018   0.31681   0.05848   0.00000  Uiso   1.00
C204   C     0.50625   0.36697   0.04038   0.00000  Uiso   1.00
C205   C     0.33325   0.32428   0.21486   0.00000  Uiso   1.00
C206   C     0.40848   0.30287   0.24952   0.00000  Uiso   1.00
C207   C     0.38719   0.34666   0.31880   0.00000  Uiso   1.00
H208   H     0.09635   0.44934   0.22642   0.00000  Uiso   1.00
H209   H     0.88827   0.39223   0.19308   0.00000  Uiso   1.00
H210   H     0.22823   0.49368   0.15224   0.00000  Uiso   1.00
H211   H     0.14653   0.47974   0.34325   0.00000  Uiso   1.00
H212   H     0.69870   0.30115   0.14139   0.00000  Uiso   1.00
H213   H     0.41553   0.51509   0.05529   0.00000  Uiso   1.00
H214   H     0.24326   0.48569   0.45808   0.00000  Uiso   1.00
H215   H     0.41304   0.23551   0.11308   0.00000  Uiso   1.00
H216   H     0.22234   0.16665   0.07352   0.00000  Uiso   1.00
H217   H     0.56229   0.26811   0.03268   0.00000  Uiso   1.00
H218   H     0.48059   0.25417   0.22369   0.00000  Uiso   1.00
H219   H     0.96984   0.11807   0.04434   0.00000  Uiso   1.00
H220   H     0.68667   0.33201   0.95825   0.00000  Uiso   1.00
H221   H     0.51440   0.30261   0.36104   0.00000  Uiso   1.00
O222   O     0.70311   0.16818   0.06887   0.00000  Uiso   1.00
O223   O     0.64358   0.44886   0.95593   0.00000  Uiso   1.00
O224   O     0.41756   0.41029   0.48437   0.00000  Uiso   1.00
N225   N     0.78868   0.26751   0.12399   0.00000  Uiso   1.00
N226   N     0.45886   0.46752   0.04349   0.00000  Uiso   1.00
N227   N     0.29783   0.44005   0.42006   0.00000  Uiso   1.00
N228   N     0.93457   0.16900   0.07177   0.00000  Uiso   1.00
N229   N     0.60475   0.36901   0.99127   0.00000  Uiso   1.00
N230   N     0.44373   0.34153   0.36784   0.00000  Uiso   1.00
C231   C     0.56606   0.79888   0.59938   0.00000  Uiso   1.00
C232   C     0.44003   0.82240   0.65826   0.00000  Uiso   1.00
C233   C     0.30596   0.81551   0.65249   0.00000  Uiso   1.00
C234   C     0.20513   0.84030   0.71242   0.00000  Uiso   1.00
C235   C     0.00455   0.87215   0.79421   0.00000  Uiso   1.00
C236   C     0.67100   0.75075   0.60677   0.00000  Uiso   1.00
C237   C     0.73113   0.68363   0.55770   0.00000  Uiso   1.00
C238   C     0.82474   0.64811   0.57429   0.00000  Uiso   1.00
C239   C     0.98281   0.56874   0.57611   0.00000  Uiso   1.00
C240   C     0.62784   0.86204   0.61308   0.00000  Uiso   1.00
C241   C     0.65171   0.88847   0.56931   0.00000  Uiso   1.00
C242   C     0.70902   0.94664   0.59120   0.00000  Uiso   1.00
C243   C     0.80007   0.04006   0.60282   0.00000  Uiso   1.00
C244   C     0.62542   0.85515   0.71607   0.00000  Uiso   1.00
C245   C     0.47228   0.85296   0.72164   0.00000  Uiso   1.00
C246   C     0.37163   0.87777   0.78160   0.00000  Uiso   1.00
C247   C     0.23743   0.87093   0.77592   0.00000  Uiso   1.00
C248   C     0.70324   0.78132   0.67015   0.00000  Uiso   1.00
C249   C     0.79680   0.74589   0.68681   0.00000  Uiso   1.00
C250   C     0.85704   0.67873   0.63778   0.00000  Uiso   1.00
C251   C     0.66008   0.89261   0.67646   0.00000  Uiso   1.00
C252   C     0.71737   0.95074   0.69842   0.00000  Uiso   1.00
C253   C     0.74132   0.97726   0.65470   0.00000  Uiso   1.00
H254   H     0.54097   0.77508   0.55003   0.00000  Uiso   1.00
H255   H     0.28105   0.79185   0.60343   0.00000  Uiso   1.00
H256   H     0.70616   0.65999   0.50866   0.00000  Uiso   1.00
H257   H     0.62675   0.86481   0.52027   0.00000  Uiso   1.00
H258   H     0.00711   0.82390   0.69058   0.00000  Uiso   1.00
H259   H     0.90352   0.54588   0.49074   0.00000  Uiso   1.00
H260   H     0.73606   0.97777   0.51521   0.00000  Uiso   1.00
H261   H     0.65053   0.87895   0.76542   0.00000  Uiso   1.00
H262   H     0.39661   0.90143   0.83064   0.00000  Uiso   1.00
H263   H     0.82173   0.76957   0.73586   0.00000  Uiso   1.00
H264   H     0.74231   0.97438   0.74747   0.00000  Uiso   1.00
H265   H     0.10091   0.91284   0.87500   0.00000  Uiso   1.00
H266   H     0.99732   0.63481   0.67514   0.00000  Uiso   1.00
H267   H     0.82986   0.06671   0.69962   0.00000  Uiso   1.00
O268   O     0.88501   0.88126   0.82181   0.00000  Uiso   1.00
O269   O     0.06108   0.51651   0.55961   0.00000  Uiso   1.00
O270   O     0.84137   0.08314   0.59172   0.00000  Uiso   1.00
N271   N     0.06403   0.84176   0.72504   0.00000  Uiso   1.00
N272   N     0.90210   0.58182   0.53819   0.00000  Uiso   1.00
N273   N     0.74557   0.98559   0.56107   0.00000  Uiso   1.00
N274   N     0.11450   0.88961   0.82427   0.00000  Uiso   1.00
N275   N     0.95257   0.62968   0.63742   0.00000  Uiso   1.00
N276   N     0.79604   0.03345   0.66030   0.00000  Uiso   1.00
