data_job_02098
_audit_creation_date              2018-12-19
_audit_creation_method            'Materials Studio'
_symmetry_space_group_name_H-M    'P1'
_symmetry_Int_Tables_number       1
_symmetry_cell_setting            triclinic
loop_
_symmetry_equiv_pos_as_xyz
  x,y,z
_cell_length_a                    37.6086
_cell_length_b                    16.1224
_cell_length_c                    11.6760
_cell_angle_alpha                 90.0000
_cell_angle_beta                  103.9611
_cell_angle_gamma                 90.0000
loop_
_atom_site_label
_atom_site_type_symbol
_atom_site_fract_x
_atom_site_fract_y
_atom_site_fract_z
_atom_site_U_iso_or_equiv
_atom_site_adp_type
_atom_site_occupancy
C1     C     0.82634   0.97487   0.18277   0.00000  Uiso   1.00
C2     C     0.82881   0.89557   0.25547   0.00000  Uiso   1.00
C3     C     0.82390   0.88988   0.36925   0.00000  Uiso   1.00
C4     C     0.82729   0.81169   0.42059   0.00000  Uiso   1.00
C5     C     0.82993   0.69921   0.54268   0.00000  Uiso   1.00
C6     C     0.86279   0.98237   0.14813   0.00000  Uiso   1.00
C7     C     0.88645   0.04967   0.17165   0.00000  Uiso   1.00
C8     C     0.91845   0.04455   0.13262   0.00000  Uiso   1.00
C9     C     0.97383   0.06686   0.08800   0.00000  Uiso   1.00
C10    C     0.79754   0.95844   0.06854   0.00000  Uiso   1.00
C11    C     0.76633   0.00563   0.02511   0.00000  Uiso   1.00
C12    C     0.74339   0.98038   0.91905   0.00000  Uiso   1.00
C13    C     0.69746   0.96552   0.75084   0.00000  Uiso   1.00
C14    C     0.84110   0.84614   0.07162   0.00000  Uiso   1.00
C15    C     0.83683   0.82566   0.19509   0.00000  Uiso   1.00
C16    C     0.84023   0.74746   0.24627   0.00000  Uiso   1.00
C17    C     0.83533   0.74165   0.36011   0.00000  Uiso   1.00
C18    C     0.87081   0.91246   0.08776   0.00000  Uiso   1.00
C19    C     0.90279   0.90725   0.04868   0.00000  Uiso   1.00
C20    C     0.92649   0.97451   0.07214   0.00000  Uiso   1.00
C21    C     0.80556   0.88852   0.00816   0.00000  Uiso   1.00
C22    C     0.78267   0.86320   0.90214   0.00000  Uiso   1.00
C23    C     0.75143   0.91033   0.85857   0.00000  Uiso   1.00
H24    H     0.82009   0.02930   0.22977   0.00000  Uiso   1.00
H25    H     0.81769   0.94400   0.41595   0.00000  Uiso   1.00
H26    H     0.88023   0.10377   0.21837   0.00000  Uiso   1.00
H27    H     0.76013   0.05973   0.07186   0.00000  Uiso   1.00
H28    H     0.81858   0.81860   0.59575   0.00000  Uiso   1.00
H29    H     0.95044   0.15548   0.17911   0.00000  Uiso   1.00
H30    H     0.69718   0.06263   0.87016   0.00000  Uiso   1.00
H31    H     0.84735   0.79171   0.02461   0.00000  Uiso   1.00
H32    H     0.84644   0.69336   0.19953   0.00000  Uiso   1.00
H33    H     0.90898   0.85313   0.00195   0.00000  Uiso   1.00
H34    H     0.78888   0.80909   0.85544   0.00000  Uiso   1.00
H35    H     0.84192   0.61518   0.42010   0.00000  Uiso   1.00
H36    H     0.97378   0.95206   0.00346   0.00000  Uiso   1.00
H37    H     0.72052   0.85920   0.69451   0.00000  Uiso   1.00
O38    O     0.82917   0.65649   0.62671   0.00000  Uiso   1.00
O39    O     0.00217   0.09847   0.08008   0.00000  Uiso   1.00
O40    O     0.66990   0.97664   0.67475   0.00000  Uiso   1.00
N41    N     0.82419   0.78422   0.53040   0.00000  Uiso   1.00
N42    N     0.94748   0.09918   0.14088   0.00000  Uiso   1.00
N43    N     0.71071   0.01238   0.85202   0.00000  Uiso   1.00
N44    N     0.83675   0.67476   0.43588   0.00000  Uiso   1.00
N45    N     0.96003   0.98972   0.04636   0.00000  Uiso   1.00
N46    N     0.72326   0.90291   0.75750   0.00000  Uiso   1.00
C47    C     0.32634   0.47487   0.18277   0.00000  Uiso   1.00
C48    C     0.32881   0.39557   0.25547   0.00000  Uiso   1.00
C49    C     0.32390   0.38988   0.36925   0.00000  Uiso   1.00
C50    C     0.32729   0.31169   0.42059   0.00000  Uiso   1.00
C51    C     0.32993   0.19921   0.54268   0.00000  Uiso   1.00
C52    C     0.36279   0.48237   0.14813   0.00000  Uiso   1.00
C53    C     0.38645   0.54967   0.17165   0.00000  Uiso   1.00
C54    C     0.41845   0.54455   0.13262   0.00000  Uiso   1.00
C55    C     0.47383   0.56686   0.08800   0.00000  Uiso   1.00
C56    C     0.29754   0.45844   0.06854   0.00000  Uiso   1.00
C57    C     0.26633   0.50563   0.02511   0.00000  Uiso   1.00
C58    C     0.24339   0.48038   0.91905   0.00000  Uiso   1.00
C59    C     0.19746   0.46552   0.75084   0.00000  Uiso   1.00
C60    C     0.34110   0.34614   0.07162   0.00000  Uiso   1.00
C61    C     0.33683   0.32566   0.19509   0.00000  Uiso   1.00
C62    C     0.34023   0.24746   0.24627   0.00000  Uiso   1.00
C63    C     0.33533   0.24165   0.36011   0.00000  Uiso   1.00
C64    C     0.37081   0.41246   0.08776   0.00000  Uiso   1.00
C65    C     0.40279   0.40725   0.04868   0.00000  Uiso   1.00
C66    C     0.42649   0.47451   0.07214   0.00000  Uiso   1.00
C67    C     0.30556   0.38852   0.00816   0.00000  Uiso   1.00
C68    C     0.28267   0.36320   0.90214   0.00000  Uiso   1.00
C69    C     0.25143   0.41033   0.85857   0.00000  Uiso   1.00
H70    H     0.32009   0.52930   0.22977   0.00000  Uiso   1.00
H71    H     0.31769   0.44400   0.41595   0.00000  Uiso   1.00
H72    H     0.38023   0.60377   0.21837   0.00000  Uiso   1.00
H73    H     0.26013   0.55973   0.07186   0.00000  Uiso   1.00
H74    H     0.31858   0.31860   0.59575   0.00000  Uiso   1.00
H75    H     0.45044   0.65548   0.17911   0.00000  Uiso   1.00
H76    H     0.19718   0.56263   0.87016   0.00000  Uiso   1.00
H77    H     0.34735   0.29171   0.02461   0.00000  Uiso   1.00
H78    H     0.34644   0.19336   0.19953   0.00000  Uiso   1.00
H79    H     0.40898   0.35313   0.00195   0.00000  Uiso   1.00
H80    H     0.28888   0.30909   0.85544   0.00000  Uiso   1.00
H81    H     0.34192   0.11518   0.42010   0.00000  Uiso   1.00
H82    H     0.47378   0.45206   0.00346   0.00000  Uiso   1.00
H83    H     0.22052   0.35920   0.69451   0.00000  Uiso   1.00
O84    O     0.32917   0.15649   0.62671   0.00000  Uiso   1.00
O85    O     0.50217   0.59847   0.08008   0.00000  Uiso   1.00
O86    O     0.16990   0.47664   0.67475   0.00000  Uiso   1.00
N87    N     0.32419   0.28422   0.53040   0.00000  Uiso   1.00
N88    N     0.44748   0.59918   0.14088   0.00000  Uiso   1.00
N89    N     0.21071   0.51238   0.85202   0.00000  Uiso   1.00
N90    N     0.33675   0.17476   0.43588   0.00000  Uiso   1.00
N91    N     0.46003   0.48972   0.04636   0.00000  Uiso   1.00
N92    N     0.22326   0.40291   0.75750   0.00000  Uiso   1.00
C93    C     0.17366   0.97487   0.31723   0.00000  Uiso   1.00
C94    C     0.17119   0.89557   0.24453   0.00000  Uiso   1.00
C95    C     0.17610   0.88988   0.13075   0.00000  Uiso   1.00
C96    C     0.17271   0.81169   0.07941   0.00000  Uiso   1.00
C97    C     0.17007   0.69921   0.95732   0.00000  Uiso   1.00
C98    C     0.13721   0.98237   0.35187   0.00000  Uiso   1.00
C99    C     0.11355   0.04967   0.32835   0.00000  Uiso   1.00
C100   C     0.08155   0.04455   0.36738   0.00000  Uiso   1.00
C101   C     0.02617   0.06686   0.41200   0.00000  Uiso   1.00
C102   C     0.20246   0.95844   0.43146   0.00000  Uiso   1.00
C103   C     0.23367   0.00563   0.47489   0.00000  Uiso   1.00
C104   C     0.25661   0.98038   0.58095   0.00000  Uiso   1.00
C105   C     0.30254   0.96552   0.74916   0.00000  Uiso   1.00
C106   C     0.15890   0.84614   0.42838   0.00000  Uiso   1.00
C107   C     0.16317   0.82566   0.30491   0.00000  Uiso   1.00
C108   C     0.15977   0.74746   0.25373   0.00000  Uiso   1.00
C109   C     0.16467   0.74165   0.13989   0.00000  Uiso   1.00
C110   C     0.12919   0.91246   0.41224   0.00000  Uiso   1.00
C111   C     0.09721   0.90725   0.45132   0.00000  Uiso   1.00
C112   C     0.07351   0.97451   0.42786   0.00000  Uiso   1.00
C113   C     0.19444   0.88852   0.49184   0.00000  Uiso   1.00
C114   C     0.21733   0.86320   0.59786   0.00000  Uiso   1.00
C115   C     0.24857   0.91033   0.64143   0.00000  Uiso   1.00
H116   H     0.17991   0.02930   0.27023   0.00000  Uiso   1.00
H117   H     0.18231   0.94400   0.08405   0.00000  Uiso   1.00
H118   H     0.11977   0.10377   0.28163   0.00000  Uiso   1.00
H119   H     0.23987   0.05973   0.42814   0.00000  Uiso   1.00
H120   H     0.18142   0.81860   0.90425   0.00000  Uiso   1.00
H121   H     0.04956   0.15548   0.32089   0.00000  Uiso   1.00
H122   H     0.30282   0.06263   0.62984   0.00000  Uiso   1.00
H123   H     0.15265   0.79171   0.47539   0.00000  Uiso   1.00
H124   H     0.15356   0.69336   0.30047   0.00000  Uiso   1.00
H125   H     0.09102   0.85313   0.49805   0.00000  Uiso   1.00
H126   H     0.21112   0.80909   0.64456   0.00000  Uiso   1.00
H127   H     0.15808   0.61518   0.07990   0.00000  Uiso   1.00
H128   H     0.02622   0.95206   0.49654   0.00000  Uiso   1.00
H129   H     0.27948   0.85920   0.80549   0.00000  Uiso   1.00
O130   O     0.17083   0.65649   0.87329   0.00000  Uiso   1.00
O131   O     0.99783   0.09847   0.41992   0.00000  Uiso   1.00
O132   O     0.33010   0.97664   0.82525   0.00000  Uiso   1.00
N133   N     0.17581   0.78422   0.96960   0.00000  Uiso   1.00
N134   N     0.05252   0.09918   0.35912   0.00000  Uiso   1.00
N135   N     0.28929   0.01238   0.64798   0.00000  Uiso   1.00
N136   N     0.16325   0.67476   0.06412   0.00000  Uiso   1.00
N137   N     0.03997   0.98972   0.45364   0.00000  Uiso   1.00
N138   N     0.27674   0.90291   0.74250   0.00000  Uiso   1.00
C139   C     0.67366   0.47487   0.31723   0.00000  Uiso   1.00
C140   C     0.67119   0.39557   0.24453   0.00000  Uiso   1.00
C141   C     0.67610   0.38988   0.13075   0.00000  Uiso   1.00
C142   C     0.67271   0.31169   0.07941   0.00000  Uiso   1.00
C143   C     0.67007   0.19921   0.95732   0.00000  Uiso   1.00
C144   C     0.63721   0.48237   0.35187   0.00000  Uiso   1.00
C145   C     0.61355   0.54967   0.32835   0.00000  Uiso   1.00
C146   C     0.58155   0.54455   0.36738   0.00000  Uiso   1.00
C147   C     0.52617   0.56686   0.41200   0.00000  Uiso   1.00
C148   C     0.70246   0.45844   0.43146   0.00000  Uiso   1.00
C149   C     0.73367   0.50563   0.47489   0.00000  Uiso   1.00
C150   C     0.75661   0.48038   0.58095   0.00000  Uiso   1.00
C151   C     0.80254   0.46552   0.74916   0.00000  Uiso   1.00
C152   C     0.65890   0.34614   0.42838   0.00000  Uiso   1.00
C153   C     0.66317   0.32566   0.30491   0.00000  Uiso   1.00
C154   C     0.65977   0.24746   0.25373   0.00000  Uiso   1.00
C155   C     0.66467   0.24165   0.13989   0.00000  Uiso   1.00
C156   C     0.62919   0.41246   0.41224   0.00000  Uiso   1.00
C157   C     0.59721   0.40725   0.45132   0.00000  Uiso   1.00
C158   C     0.57351   0.47451   0.42786   0.00000  Uiso   1.00
C159   C     0.69444   0.38852   0.49184   0.00000  Uiso   1.00
C160   C     0.71733   0.36320   0.59786   0.00000  Uiso   1.00
C161   C     0.74857   0.41033   0.64143   0.00000  Uiso   1.00
H162   H     0.67991   0.52930   0.27023   0.00000  Uiso   1.00
H163   H     0.68231   0.44400   0.08405   0.00000  Uiso   1.00
H164   H     0.61977   0.60377   0.28163   0.00000  Uiso   1.00
H165   H     0.73987   0.55973   0.42814   0.00000  Uiso   1.00
H166   H     0.68142   0.31860   0.90425   0.00000  Uiso   1.00
H167   H     0.54956   0.65548   0.32089   0.00000  Uiso   1.00
H168   H     0.80282   0.56263   0.62984   0.00000  Uiso   1.00
H169   H     0.65265   0.29171   0.47539   0.00000  Uiso   1.00
H170   H     0.65356   0.19336   0.30047   0.00000  Uiso   1.00
H171   H     0.59102   0.35313   0.49805   0.00000  Uiso   1.00
H172   H     0.71112   0.30909   0.64456   0.00000  Uiso   1.00
H173   H     0.65808   0.11518   0.07990   0.00000  Uiso   1.00
H174   H     0.52622   0.45206   0.49654   0.00000  Uiso   1.00
H175   H     0.77948   0.35920   0.80549   0.00000  Uiso   1.00
O176   O     0.67083   0.15649   0.87329   0.00000  Uiso   1.00
O177   O     0.49783   0.59847   0.41992   0.00000  Uiso   1.00
O178   O     0.83010   0.47664   0.82525   0.00000  Uiso   1.00
N179   N     0.67581   0.28422   0.96960   0.00000  Uiso   1.00
N180   N     0.55252   0.59918   0.35912   0.00000  Uiso   1.00
N181   N     0.78929   0.51238   0.64798   0.00000  Uiso   1.00
N182   N     0.66325   0.17476   0.06412   0.00000  Uiso   1.00
N183   N     0.53997   0.48972   0.45364   0.00000  Uiso   1.00
N184   N     0.77674   0.40291   0.74250   0.00000  Uiso   1.00
C185   C     0.17366   0.02513   0.81723   0.00000  Uiso   1.00
C186   C     0.17119   0.10443   0.74453   0.00000  Uiso   1.00
C187   C     0.17610   0.11012   0.63075   0.00000  Uiso   1.00
C188   C     0.17271   0.18831   0.57941   0.00000  Uiso   1.00
C189   C     0.17007   0.30079   0.45732   0.00000  Uiso   1.00
C190   C     0.13721   0.01763   0.85187   0.00000  Uiso   1.00
C191   C     0.11355   0.95033   0.82835   0.00000  Uiso   1.00
C192   C     0.08155   0.95545   0.86738   0.00000  Uiso   1.00
C193   C     0.02617   0.93314   0.91200   0.00000  Uiso   1.00
C194   C     0.20246   0.04156   0.93146   0.00000  Uiso   1.00
C195   C     0.23367   0.99437   0.97489   0.00000  Uiso   1.00
C196   C     0.25661   0.01962   0.08095   0.00000  Uiso   1.00
C197   C     0.30254   0.03448   0.24916   0.00000  Uiso   1.00
C198   C     0.15890   0.15386   0.92838   0.00000  Uiso   1.00
C199   C     0.16317   0.17434   0.80491   0.00000  Uiso   1.00
C200   C     0.15977   0.25254   0.75373   0.00000  Uiso   1.00
C201   C     0.16467   0.25835   0.63989   0.00000  Uiso   1.00
C202   C     0.12919   0.08754   0.91224   0.00000  Uiso   1.00
C203   C     0.09721   0.09275   0.95132   0.00000  Uiso   1.00
C204   C     0.07351   0.02549   0.92786   0.00000  Uiso   1.00
C205   C     0.19444   0.11148   0.99184   0.00000  Uiso   1.00
C206   C     0.21733   0.13680   0.09786   0.00000  Uiso   1.00
C207   C     0.24857   0.08967   0.14143   0.00000  Uiso   1.00
H208   H     0.17991   0.97070   0.77023   0.00000  Uiso   1.00
H209   H     0.18231   0.05600   0.58405   0.00000  Uiso   1.00
H210   H     0.11977   0.89623   0.78163   0.00000  Uiso   1.00
H211   H     0.23987   0.94027   0.92814   0.00000  Uiso   1.00
H212   H     0.18142   0.18140   0.40425   0.00000  Uiso   1.00
H213   H     0.04956   0.84452   0.82089   0.00000  Uiso   1.00
H214   H     0.30282   0.93737   0.12984   0.00000  Uiso   1.00
H215   H     0.15265   0.20829   0.97539   0.00000  Uiso   1.00
H216   H     0.15356   0.30664   0.80047   0.00000  Uiso   1.00
H217   H     0.09102   0.14687   0.99805   0.00000  Uiso   1.00
H218   H     0.21112   0.19091   0.14456   0.00000  Uiso   1.00
H219   H     0.15808   0.38482   0.57990   0.00000  Uiso   1.00
H220   H     0.02622   0.04794   0.99654   0.00000  Uiso   1.00
H221   H     0.27948   0.14080   0.30549   0.00000  Uiso   1.00
O222   O     0.17083   0.34351   0.37329   0.00000  Uiso   1.00
O223   O     0.99783   0.90153   0.91992   0.00000  Uiso   1.00
O224   O     0.33010   0.02336   0.32525   0.00000  Uiso   1.00
N225   N     0.17581   0.21578   0.46960   0.00000  Uiso   1.00
N226   N     0.05252   0.90082   0.85912   0.00000  Uiso   1.00
N227   N     0.28929   0.98762   0.14798   0.00000  Uiso   1.00
N228   N     0.16325   0.32524   0.56412   0.00000  Uiso   1.00
N229   N     0.03997   0.01028   0.95364   0.00000  Uiso   1.00
N230   N     0.27674   0.09709   0.24250   0.00000  Uiso   1.00
C231   C     0.67366   0.52513   0.81723   0.00000  Uiso   1.00
C232   C     0.67119   0.60443   0.74453   0.00000  Uiso   1.00
C233   C     0.67610   0.61012   0.63075   0.00000  Uiso   1.00
C234   C     0.67271   0.68831   0.57941   0.00000  Uiso   1.00
C235   C     0.67007   0.80079   0.45732   0.00000  Uiso   1.00
C236   C     0.63721   0.51763   0.85187   0.00000  Uiso   1.00
C237   C     0.61355   0.45033   0.82835   0.00000  Uiso   1.00
C238   C     0.58155   0.45545   0.86738   0.00000  Uiso   1.00
C239   C     0.52617   0.43314   0.91200   0.00000  Uiso   1.00
C240   C     0.70246   0.54156   0.93146   0.00000  Uiso   1.00
C241   C     0.73367   0.49437   0.97489   0.00000  Uiso   1.00
C242   C     0.75661   0.51962   0.08095   0.00000  Uiso   1.00
C243   C     0.80254   0.53448   0.24916   0.00000  Uiso   1.00
C244   C     0.65890   0.65386   0.92838   0.00000  Uiso   1.00
C245   C     0.66317   0.67434   0.80491   0.00000  Uiso   1.00
C246   C     0.65977   0.75254   0.75373   0.00000  Uiso   1.00
C247   C     0.66467   0.75835   0.63989   0.00000  Uiso   1.00
C248   C     0.62919   0.58754   0.91224   0.00000  Uiso   1.00
C249   C     0.59721   0.59275   0.95132   0.00000  Uiso   1.00
C250   C     0.57351   0.52549   0.92786   0.00000  Uiso   1.00
C251   C     0.69444   0.61148   0.99184   0.00000  Uiso   1.00
C252   C     0.71733   0.63680   0.09786   0.00000  Uiso   1.00
C253   C     0.74857   0.58967   0.14143   0.00000  Uiso   1.00
H254   H     0.67991   0.47070   0.77023   0.00000  Uiso   1.00
H255   H     0.68231   0.55600   0.58405   0.00000  Uiso   1.00
H256   H     0.61977   0.39623   0.78163   0.00000  Uiso   1.00
H257   H     0.73987   0.44027   0.92814   0.00000  Uiso   1.00
H258   H     0.68142   0.68140   0.40425   0.00000  Uiso   1.00
H259   H     0.54956   0.34452   0.82089   0.00000  Uiso   1.00
H260   H     0.80282   0.43737   0.12984   0.00000  Uiso   1.00
H261   H     0.65265   0.70829   0.97539   0.00000  Uiso   1.00
H262   H     0.65356   0.80664   0.80047   0.00000  Uiso   1.00
H263   H     0.59102   0.64687   0.99805   0.00000  Uiso   1.00
H264   H     0.71112   0.69091   0.14456   0.00000  Uiso   1.00
H265   H     0.65808   0.88482   0.57990   0.00000  Uiso   1.00
H266   H     0.52622   0.54794   0.99654   0.00000  Uiso   1.00
H267   H     0.77948   0.64080   0.30549   0.00000  Uiso   1.00
O268   O     0.67083   0.84351   0.37329   0.00000  Uiso   1.00
O269   O     0.49783   0.40153   0.91992   0.00000  Uiso   1.00
O270   O     0.83010   0.52336   0.32525   0.00000  Uiso   1.00
N271   N     0.67581   0.71578   0.46960   0.00000  Uiso   1.00
N272   N     0.55252   0.40082   0.85912   0.00000  Uiso   1.00
N273   N     0.78929   0.48762   0.14798   0.00000  Uiso   1.00
N274   N     0.66325   0.82524   0.56412   0.00000  Uiso   1.00
N275   N     0.53997   0.51028   0.95364   0.00000  Uiso   1.00
N276   N     0.77674   0.59709   0.24250   0.00000  Uiso   1.00
C277   C     0.82634   0.02513   0.68277   0.00000  Uiso   1.00
C278   C     0.82881   0.10443   0.75547   0.00000  Uiso   1.00
C279   C     0.82390   0.11012   0.86925   0.00000  Uiso   1.00
C280   C     0.82729   0.18831   0.92059   0.00000  Uiso   1.00
C281   C     0.82993   0.30079   0.04268   0.00000  Uiso   1.00
C282   C     0.86279   0.01763   0.64813   0.00000  Uiso   1.00
C283   C     0.88645   0.95033   0.67165   0.00000  Uiso   1.00
C284   C     0.91845   0.95545   0.63262   0.00000  Uiso   1.00
C285   C     0.97383   0.93314   0.58800   0.00000  Uiso   1.00
C286   C     0.79754   0.04156   0.56854   0.00000  Uiso   1.00
C287   C     0.76633   0.99437   0.52511   0.00000  Uiso   1.00
C288   C     0.74339   0.01962   0.41905   0.00000  Uiso   1.00
C289   C     0.69746   0.03448   0.25084   0.00000  Uiso   1.00
C290   C     0.84110   0.15386   0.57162   0.00000  Uiso   1.00
C291   C     0.83683   0.17434   0.69509   0.00000  Uiso   1.00
C292   C     0.84023   0.25254   0.74627   0.00000  Uiso   1.00
C293   C     0.83533   0.25835   0.86011   0.00000  Uiso   1.00
C294   C     0.87081   0.08754   0.58776   0.00000  Uiso   1.00
C295   C     0.90279   0.09275   0.54868   0.00000  Uiso   1.00
C296   C     0.92649   0.02549   0.57214   0.00000  Uiso   1.00
C297   C     0.80556   0.11148   0.50816   0.00000  Uiso   1.00
C298   C     0.78267   0.13680   0.40214   0.00000  Uiso   1.00
C299   C     0.75143   0.08967   0.35857   0.00000  Uiso   1.00
H300   H     0.82009   0.97070   0.72977   0.00000  Uiso   1.00
H301   H     0.81769   0.05600   0.91595   0.00000  Uiso   1.00
H302   H     0.88023   0.89623   0.71837   0.00000  Uiso   1.00
H303   H     0.76013   0.94027   0.57186   0.00000  Uiso   1.00
H304   H     0.81858   0.18140   0.09575   0.00000  Uiso   1.00
H305   H     0.95044   0.84452   0.67911   0.00000  Uiso   1.00
H306   H     0.69718   0.93737   0.37016   0.00000  Uiso   1.00
H307   H     0.84735   0.20829   0.52461   0.00000  Uiso   1.00
H308   H     0.84644   0.30664   0.69953   0.00000  Uiso   1.00
H309   H     0.90898   0.14687   0.50195   0.00000  Uiso   1.00
H310   H     0.78888   0.19091   0.35544   0.00000  Uiso   1.00
H311   H     0.84192   0.38482   0.92010   0.00000  Uiso   1.00
H312   H     0.97378   0.04794   0.50346   0.00000  Uiso   1.00
H313   H     0.72052   0.14080   0.19451   0.00000  Uiso   1.00
O314   O     0.82917   0.34351   0.12671   0.00000  Uiso   1.00
O315   O     0.00217   0.90153   0.58008   0.00000  Uiso   1.00
O316   O     0.66990   0.02336   0.17475   0.00000  Uiso   1.00
N317   N     0.82419   0.21578   0.03040   0.00000  Uiso   1.00
N318   N     0.94748   0.90082   0.64088   0.00000  Uiso   1.00
N319   N     0.71071   0.98762   0.35202   0.00000  Uiso   1.00
N320   N     0.83675   0.32524   0.93588   0.00000  Uiso   1.00
N321   N     0.96003   0.01028   0.54636   0.00000  Uiso   1.00
N322   N     0.72326   0.09709   0.25750   0.00000  Uiso   1.00
C323   C     0.32634   0.52513   0.68277   0.00000  Uiso   1.00
C324   C     0.32881   0.60443   0.75547   0.00000  Uiso   1.00
C325   C     0.32390   0.61012   0.86925   0.00000  Uiso   1.00
C326   C     0.32729   0.68831   0.92059   0.00000  Uiso   1.00
C327   C     0.32993   0.80079   0.04268   0.00000  Uiso   1.00
C328   C     0.36279   0.51763   0.64813   0.00000  Uiso   1.00
C329   C     0.38645   0.45033   0.67165   0.00000  Uiso   1.00
C330   C     0.41845   0.45545   0.63262   0.00000  Uiso   1.00
C331   C     0.47383   0.43314   0.58800   0.00000  Uiso   1.00
C332   C     0.29754   0.54156   0.56854   0.00000  Uiso   1.00
C333   C     0.26633   0.49437   0.52511   0.00000  Uiso   1.00
C334   C     0.24339   0.51962   0.41905   0.00000  Uiso   1.00
C335   C     0.19746   0.53448   0.25084   0.00000  Uiso   1.00
C336   C     0.34110   0.65386   0.57162   0.00000  Uiso   1.00
C337   C     0.33683   0.67434   0.69509   0.00000  Uiso   1.00
C338   C     0.34023   0.75254   0.74627   0.00000  Uiso   1.00
C339   C     0.33533   0.75835   0.86011   0.00000  Uiso   1.00
C340   C     0.37081   0.58754   0.58776   0.00000  Uiso   1.00
C341   C     0.40279   0.59275   0.54868   0.00000  Uiso   1.00
C342   C     0.42649   0.52549   0.57214   0.00000  Uiso   1.00
C343   C     0.30556   0.61148   0.50816   0.00000  Uiso   1.00
C344   C     0.28267   0.63680   0.40214   0.00000  Uiso   1.00
C345   C     0.25143   0.58967   0.35857   0.00000  Uiso   1.00
H346   H     0.32009   0.47070   0.72977   0.00000  Uiso   1.00
H347   H     0.31769   0.55600   0.91595   0.00000  Uiso   1.00
H348   H     0.38023   0.39623   0.71837   0.00000  Uiso   1.00
H349   H     0.26013   0.44027   0.57186   0.00000  Uiso   1.00
H350   H     0.31858   0.68140   0.09575   0.00000  Uiso   1.00
H351   H     0.45044   0.34452   0.67911   0.00000  Uiso   1.00
H352   H     0.19718   0.43737   0.37016   0.00000  Uiso   1.00
H353   H     0.34735   0.70829   0.52461   0.00000  Uiso   1.00
H354   H     0.34644   0.80664   0.69953   0.00000  Uiso   1.00
H355   H     0.40898   0.64687   0.50195   0.00000  Uiso   1.00
H356   H     0.28888   0.69091   0.35544   0.00000  Uiso   1.00
H357   H     0.34192   0.88482   0.92010   0.00000  Uiso   1.00
H358   H     0.47378   0.54794   0.50346   0.00000  Uiso   1.00
H359   H     0.22052   0.64080   0.19451   0.00000  Uiso   1.00
O360   O     0.32917   0.84351   0.12671   0.00000  Uiso   1.00
O361   O     0.50217   0.40153   0.58008   0.00000  Uiso   1.00
O362   O     0.16990   0.52336   0.17475   0.00000  Uiso   1.00
N363   N     0.32419   0.71578   0.03040   0.00000  Uiso   1.00
N364   N     0.44748   0.40082   0.64088   0.00000  Uiso   1.00
N365   N     0.21071   0.48762   0.35202   0.00000  Uiso   1.00
N366   N     0.33675   0.82524   0.93588   0.00000  Uiso   1.00
N367   N     0.46003   0.51028   0.54636   0.00000  Uiso   1.00
N368   N     0.22326   0.59709   0.25750   0.00000  Uiso   1.00
