data_job_02522
_audit_creation_date              2018-12-19
_audit_creation_method            'Materials Studio'
_symmetry_space_group_name_H-M    'P1'
_symmetry_Int_Tables_number       1
_symmetry_cell_setting            triclinic
loop_
_symmetry_equiv_pos_as_xyz
  x,y,z
_cell_length_a                    21.1106
_cell_length_b                    21.1106
_cell_length_c                    15.8580
_cell_angle_alpha                 90.0000
_cell_angle_beta                  90.0000
_cell_angle_gamma                 90.0000
loop_
_atom_site_label
_atom_site_type_symbol
_atom_site_fract_x
_atom_site_fract_y
_atom_site_fract_z
_atom_site_U_iso_or_equiv
_atom_site_adp_type
_atom_site_occupancy
C1     C     0.68674   0.62059   0.12526   0.00000  Uiso   1.00
C2     C     0.64442   0.60829   0.20145   0.00000  Uiso   1.00
C3     C     0.57870   0.60965   0.20166   0.00000  Uiso   1.00
C4     C     0.54872   0.59710   0.27777   0.00000  Uiso   1.00
C5     C     0.47776   0.58007   0.38495   0.00000  Uiso   1.00
C6     C     0.73089   0.67450   0.15063   0.00000  Uiso   1.00
C7     C     0.73788   0.73153   0.10809   0.00000  Uiso   1.00
C8     C     0.78070   0.77471   0.14143   0.00000  Uiso   1.00
C9     C     0.84401   0.86045   0.16966   0.00000  Uiso   1.00
C10    C     0.72852   0.56207   0.11609   0.00000  Uiso   1.00
C11    C     0.73353   0.52458   0.04451   0.00000  Uiso   1.00
C12    C     0.77436   0.47312   0.04876   0.00000  Uiso   1.00
C13    C     0.83399   0.38431   0.02338   0.00000  Uiso   1.00
C14    C     0.75038   0.59589   0.26008   0.00000  Uiso   1.00
C15    C     0.67899   0.59487   0.27468   0.00000  Uiso   1.00
C16    C     0.64911   0.58231   0.35082   0.00000  Uiso   1.00
C17    C     0.58335   0.58366   0.35113   0.00000  Uiso   1.00
C18    C     0.76546   0.66108   0.22385   0.00000  Uiso   1.00
C19    C     0.80828   0.70419   0.25725   0.00000  Uiso   1.00
C20    C     0.81533   0.76127   0.21478   0.00000  Uiso   1.00
C21    C     0.76309   0.54865   0.18932   0.00000  Uiso   1.00
C22    C     0.80393   0.49724   0.19368   0.00000  Uiso   1.00
C23    C     0.80899   0.45968   0.12212   0.00000  Uiso   1.00
H24    H     0.65984   0.63105   0.06825   0.00000  Uiso   1.00
H25    H     0.55197   0.62004   0.14497   0.00000  Uiso   1.00
H26    H     0.71113   0.74190   0.05142   0.00000  Uiso   1.00
H27    H     0.70677   0.53498   0.98786   0.00000  Uiso   1.00
H28    H     0.44762   0.60195   0.26234   0.00000  Uiso   1.00
H29    H     0.78323   0.85887   0.06506   0.00000  Uiso   1.00
H30    H     0.77405   0.42256   0.93102   0.00000  Uiso   1.00
H31    H     0.77729   0.58544   0.31709   0.00000  Uiso   1.00
H32    H     0.67587   0.57193   0.40747   0.00000  Uiso   1.00
H33    H     0.83503   0.69378   0.31392   0.00000  Uiso   1.00
H34    H     0.83067   0.48687   0.25035   0.00000  Uiso   1.00
H35    H     0.54818   0.56290   0.47539   0.00000  Uiso   1.00
H36    H     0.88379   0.81983   0.27811   0.00000  Uiso   1.00
H37    H     0.87461   0.38351   0.14407   0.00000  Uiso   1.00
O38    O     0.42907   0.57438   0.42384   0.00000  Uiso   1.00
O39    O     0.86938   0.91145   0.16501   0.00000  Uiso   1.00
O40    O     0.85733   0.33902   0.98915   0.00000  Uiso   1.00
N41    N     0.48521   0.59460   0.30007   0.00000  Uiso   1.00
N42    N     0.79897   0.83482   0.11564   0.00000  Uiso   1.00
N43    N     0.79040   0.42691   0.99031   0.00000  Uiso   1.00
N44    N     0.53932   0.57359   0.41471   0.00000  Uiso   1.00
N45    N     0.85309   0.81380   0.23028   0.00000  Uiso   1.00
N46    N     0.84452   0.40589   0.10495   0.00000  Uiso   1.00
C47    C     0.31326   0.37941   0.12526   0.00000  Uiso   1.00
C48    C     0.35558   0.39171   0.20145   0.00000  Uiso   1.00
C49    C     0.42130   0.39035   0.20166   0.00000  Uiso   1.00
C50    C     0.45128   0.40290   0.27777   0.00000  Uiso   1.00
C51    C     0.52224   0.41993   0.38495   0.00000  Uiso   1.00
C52    C     0.26911   0.32550   0.15063   0.00000  Uiso   1.00
C53    C     0.26212   0.26847   0.10809   0.00000  Uiso   1.00
C54    C     0.21930   0.22529   0.14143   0.00000  Uiso   1.00
C55    C     0.15599   0.13955   0.16966   0.00000  Uiso   1.00
C56    C     0.27148   0.43793   0.11609   0.00000  Uiso   1.00
C57    C     0.26647   0.47542   0.04451   0.00000  Uiso   1.00
C58    C     0.22564   0.52688   0.04876   0.00000  Uiso   1.00
C59    C     0.16601   0.61569   0.02338   0.00000  Uiso   1.00
C60    C     0.24962   0.40411   0.26008   0.00000  Uiso   1.00
C61    C     0.32101   0.40513   0.27468   0.00000  Uiso   1.00
C62    C     0.35089   0.41769   0.35082   0.00000  Uiso   1.00
C63    C     0.41665   0.41634   0.35113   0.00000  Uiso   1.00
C64    C     0.23454   0.33892   0.22385   0.00000  Uiso   1.00
C65    C     0.19172   0.29581   0.25725   0.00000  Uiso   1.00
C66    C     0.18467   0.23873   0.21478   0.00000  Uiso   1.00
C67    C     0.23691   0.45135   0.18932   0.00000  Uiso   1.00
C68    C     0.19607   0.50276   0.19368   0.00000  Uiso   1.00
C69    C     0.19101   0.54032   0.12212   0.00000  Uiso   1.00
H70    H     0.34016   0.36895   0.06825   0.00000  Uiso   1.00
H71    H     0.44803   0.37996   0.14497   0.00000  Uiso   1.00
H72    H     0.28887   0.25810   0.05142   0.00000  Uiso   1.00
H73    H     0.29323   0.46502   0.98786   0.00000  Uiso   1.00
H74    H     0.55238   0.39805   0.26234   0.00000  Uiso   1.00
H75    H     0.21677   0.14113   0.06506   0.00000  Uiso   1.00
H76    H     0.22595   0.57744   0.93102   0.00000  Uiso   1.00
H77    H     0.22271   0.41456   0.31709   0.00000  Uiso   1.00
H78    H     0.32413   0.42807   0.40747   0.00000  Uiso   1.00
H79    H     0.16497   0.30622   0.31392   0.00000  Uiso   1.00
H80    H     0.16933   0.51313   0.25035   0.00000  Uiso   1.00
H81    H     0.45182   0.43710   0.47539   0.00000  Uiso   1.00
H82    H     0.11621   0.18017   0.27811   0.00000  Uiso   1.00
H83    H     0.12539   0.61649   0.14407   0.00000  Uiso   1.00
O84    O     0.57093   0.42562   0.42384   0.00000  Uiso   1.00
O85    O     0.13062   0.08855   0.16501   0.00000  Uiso   1.00
O86    O     0.14267   0.66098   0.98915   0.00000  Uiso   1.00
N87    N     0.51479   0.40540   0.30007   0.00000  Uiso   1.00
N88    N     0.20103   0.16518   0.11564   0.00000  Uiso   1.00
N89    N     0.20960   0.57309   0.99031   0.00000  Uiso   1.00
N90    N     0.46068   0.42641   0.41471   0.00000  Uiso   1.00
N91    N     0.14691   0.18620   0.23028   0.00000  Uiso   1.00
N92    N     0.15548   0.59411   0.10495   0.00000  Uiso   1.00
C93    C     0.87941   0.18674   0.12526   0.00000  Uiso   1.00
C94    C     0.89171   0.14442   0.20145   0.00000  Uiso   1.00
C95    C     0.89035   0.07870   0.20166   0.00000  Uiso   1.00
C96    C     0.90290   0.04872   0.27777   0.00000  Uiso   1.00
C97    C     0.91993   0.97776   0.38495   0.00000  Uiso   1.00
C98    C     0.82550   0.23089   0.15063   0.00000  Uiso   1.00
C99    C     0.76847   0.23788   0.10809   0.00000  Uiso   1.00
C100   C     0.72529   0.28070   0.14143   0.00000  Uiso   1.00
C101   C     0.63955   0.34401   0.16966   0.00000  Uiso   1.00
C102   C     0.93793   0.22852   0.11609   0.00000  Uiso   1.00
C103   C     0.97542   0.23353   0.04451   0.00000  Uiso   1.00
C104   C     0.02688   0.27436   0.04876   0.00000  Uiso   1.00
C105   C     0.11569   0.33399   0.02338   0.00000  Uiso   1.00
C106   C     0.90411   0.25038   0.26008   0.00000  Uiso   1.00
C107   C     0.90513   0.17899   0.27468   0.00000  Uiso   1.00
C108   C     0.91769   0.14911   0.35082   0.00000  Uiso   1.00
C109   C     0.91634   0.08335   0.35113   0.00000  Uiso   1.00
C110   C     0.83892   0.26546   0.22385   0.00000  Uiso   1.00
C111   C     0.79581   0.30828   0.25725   0.00000  Uiso   1.00
C112   C     0.73873   0.31533   0.21478   0.00000  Uiso   1.00
C113   C     0.95135   0.26309   0.18932   0.00000  Uiso   1.00
C114   C     0.00276   0.30393   0.19368   0.00000  Uiso   1.00
C115   C     0.04032   0.30899   0.12212   0.00000  Uiso   1.00
H116   H     0.86895   0.15984   0.06825   0.00000  Uiso   1.00
H117   H     0.87996   0.05197   0.14497   0.00000  Uiso   1.00
H118   H     0.75810   0.21113   0.05142   0.00000  Uiso   1.00
H119   H     0.96502   0.20677   0.98786   0.00000  Uiso   1.00
H120   H     0.89805   0.94762   0.26234   0.00000  Uiso   1.00
H121   H     0.64113   0.28323   0.06506   0.00000  Uiso   1.00
H122   H     0.07744   0.27405   0.93102   0.00000  Uiso   1.00
H123   H     0.91456   0.27729   0.31709   0.00000  Uiso   1.00
H124   H     0.92807   0.17587   0.40747   0.00000  Uiso   1.00
H125   H     0.80622   0.33503   0.31392   0.00000  Uiso   1.00
H126   H     0.01313   0.33067   0.25035   0.00000  Uiso   1.00
H127   H     0.93710   0.04818   0.47539   0.00000  Uiso   1.00
H128   H     0.68017   0.38379   0.27811   0.00000  Uiso   1.00
H129   H     0.11649   0.37461   0.14407   0.00000  Uiso   1.00
O130   O     0.92562   0.92907   0.42384   0.00000  Uiso   1.00
O131   O     0.58855   0.36938   0.16501   0.00000  Uiso   1.00
O132   O     0.16098   0.35733   0.98915   0.00000  Uiso   1.00
N133   N     0.90540   0.98521   0.30007   0.00000  Uiso   1.00
N134   N     0.66518   0.29897   0.11564   0.00000  Uiso   1.00
N135   N     0.07309   0.29040   0.99031   0.00000  Uiso   1.00
N136   N     0.92641   0.03932   0.41471   0.00000  Uiso   1.00
N137   N     0.68620   0.35309   0.23028   0.00000  Uiso   1.00
N138   N     0.09411   0.34452   0.10495   0.00000  Uiso   1.00
C139   C     0.12059   0.81326   0.12526   0.00000  Uiso   1.00
C140   C     0.10829   0.85558   0.20145   0.00000  Uiso   1.00
C141   C     0.10965   0.92130   0.20166   0.00000  Uiso   1.00
C142   C     0.09710   0.95128   0.27777   0.00000  Uiso   1.00
C143   C     0.08007   0.02224   0.38495   0.00000  Uiso   1.00
C144   C     0.17450   0.76911   0.15063   0.00000  Uiso   1.00
C145   C     0.23153   0.76212   0.10809   0.00000  Uiso   1.00
C146   C     0.27471   0.71930   0.14143   0.00000  Uiso   1.00
C147   C     0.36045   0.65599   0.16966   0.00000  Uiso   1.00
C148   C     0.06207   0.77148   0.11609   0.00000  Uiso   1.00
C149   C     0.02458   0.76647   0.04451   0.00000  Uiso   1.00
C150   C     0.97312   0.72564   0.04876   0.00000  Uiso   1.00
C151   C     0.88431   0.66601   0.02338   0.00000  Uiso   1.00
C152   C     0.09589   0.74962   0.26008   0.00000  Uiso   1.00
C153   C     0.09487   0.82101   0.27468   0.00000  Uiso   1.00
C154   C     0.08231   0.85089   0.35082   0.00000  Uiso   1.00
C155   C     0.08366   0.91665   0.35113   0.00000  Uiso   1.00
C156   C     0.16108   0.73454   0.22385   0.00000  Uiso   1.00
C157   C     0.20419   0.69172   0.25725   0.00000  Uiso   1.00
C158   C     0.26127   0.68467   0.21478   0.00000  Uiso   1.00
C159   C     0.04865   0.73691   0.18932   0.00000  Uiso   1.00
C160   C     0.99724   0.69607   0.19368   0.00000  Uiso   1.00
C161   C     0.95968   0.69101   0.12212   0.00000  Uiso   1.00
H162   H     0.13105   0.84016   0.06825   0.00000  Uiso   1.00
H163   H     0.12004   0.94803   0.14497   0.00000  Uiso   1.00
H164   H     0.24190   0.78887   0.05142   0.00000  Uiso   1.00
H165   H     0.03498   0.79323   0.98786   0.00000  Uiso   1.00
H166   H     0.10195   0.05238   0.26234   0.00000  Uiso   1.00
H167   H     0.35887   0.71677   0.06506   0.00000  Uiso   1.00
H168   H     0.92256   0.72595   0.93102   0.00000  Uiso   1.00
H169   H     0.08544   0.72271   0.31709   0.00000  Uiso   1.00
H170   H     0.07193   0.82413   0.40747   0.00000  Uiso   1.00
H171   H     0.19378   0.66497   0.31392   0.00000  Uiso   1.00
H172   H     0.98687   0.66933   0.25035   0.00000  Uiso   1.00
H173   H     0.06290   0.95182   0.47539   0.00000  Uiso   1.00
H174   H     0.31983   0.61621   0.27811   0.00000  Uiso   1.00
H175   H     0.88351   0.62539   0.14407   0.00000  Uiso   1.00
O176   O     0.07438   0.07093   0.42384   0.00000  Uiso   1.00
O177   O     0.41145   0.63062   0.16501   0.00000  Uiso   1.00
O178   O     0.83902   0.64267   0.98915   0.00000  Uiso   1.00
N179   N     0.09460   0.01479   0.30007   0.00000  Uiso   1.00
N180   N     0.33482   0.70103   0.11564   0.00000  Uiso   1.00
N181   N     0.92691   0.70960   0.99031   0.00000  Uiso   1.00
N182   N     0.07359   0.96068   0.41471   0.00000  Uiso   1.00
N183   N     0.31380   0.64691   0.23028   0.00000  Uiso   1.00
N184   N     0.90589   0.65548   0.10495   0.00000  Uiso   1.00
C185   C     0.81326   0.87941   0.87474   0.00000  Uiso   1.00
C186   C     0.85558   0.89171   0.79855   0.00000  Uiso   1.00
C187   C     0.92130   0.89035   0.79834   0.00000  Uiso   1.00
C188   C     0.95128   0.90290   0.72223   0.00000  Uiso   1.00
C189   C     0.02224   0.91993   0.61505   0.00000  Uiso   1.00
C190   C     0.76911   0.82550   0.84937   0.00000  Uiso   1.00
C191   C     0.76212   0.76847   0.89191   0.00000  Uiso   1.00
C192   C     0.71930   0.72529   0.85857   0.00000  Uiso   1.00
C193   C     0.65599   0.63955   0.83034   0.00000  Uiso   1.00
C194   C     0.77148   0.93793   0.88391   0.00000  Uiso   1.00
C195   C     0.76647   0.97542   0.95549   0.00000  Uiso   1.00
C196   C     0.72564   0.02688   0.95124   0.00000  Uiso   1.00
C197   C     0.66601   0.11569   0.97662   0.00000  Uiso   1.00
C198   C     0.74962   0.90411   0.73992   0.00000  Uiso   1.00
C199   C     0.82101   0.90513   0.72532   0.00000  Uiso   1.00
C200   C     0.85089   0.91769   0.64918   0.00000  Uiso   1.00
C201   C     0.91665   0.91634   0.64887   0.00000  Uiso   1.00
C202   C     0.73454   0.83892   0.77615   0.00000  Uiso   1.00
C203   C     0.69172   0.79581   0.74275   0.00000  Uiso   1.00
C204   C     0.68467   0.73873   0.78522   0.00000  Uiso   1.00
C205   C     0.73691   0.95135   0.81068   0.00000  Uiso   1.00
C206   C     0.69607   0.00276   0.80632   0.00000  Uiso   1.00
C207   C     0.69101   0.04032   0.87788   0.00000  Uiso   1.00
H208   H     0.84016   0.86895   0.93175   0.00000  Uiso   1.00
H209   H     0.94803   0.87996   0.85503   0.00000  Uiso   1.00
H210   H     0.78887   0.75810   0.94858   0.00000  Uiso   1.00
H211   H     0.79323   0.96502   0.01214   0.00000  Uiso   1.00
H212   H     0.05238   0.89805   0.73766   0.00000  Uiso   1.00
H213   H     0.71677   0.64113   0.93494   0.00000  Uiso   1.00
H214   H     0.72595   0.07744   0.06898   0.00000  Uiso   1.00
H215   H     0.72271   0.91456   0.68291   0.00000  Uiso   1.00
H216   H     0.82413   0.92807   0.59253   0.00000  Uiso   1.00
H217   H     0.66497   0.80622   0.68608   0.00000  Uiso   1.00
H218   H     0.66933   0.01313   0.74965   0.00000  Uiso   1.00
H219   H     0.95182   0.93710   0.52461   0.00000  Uiso   1.00
H220   H     0.61621   0.68017   0.72189   0.00000  Uiso   1.00
H221   H     0.62539   0.11649   0.85593   0.00000  Uiso   1.00
O222   O     0.07093   0.92562   0.57616   0.00000  Uiso   1.00
O223   O     0.63062   0.58855   0.83499   0.00000  Uiso   1.00
O224   O     0.64267   0.16098   0.01085   0.00000  Uiso   1.00
N225   N     0.01479   0.90540   0.69993   0.00000  Uiso   1.00
N226   N     0.70103   0.66518   0.88436   0.00000  Uiso   1.00
N227   N     0.70960   0.07309   0.00969   0.00000  Uiso   1.00
N228   N     0.96068   0.92641   0.58529   0.00000  Uiso   1.00
N229   N     0.64691   0.68620   0.76972   0.00000  Uiso   1.00
N230   N     0.65548   0.09411   0.89505   0.00000  Uiso   1.00
C231   C     0.18674   0.12059   0.87474   0.00000  Uiso   1.00
C232   C     0.14442   0.10829   0.79855   0.00000  Uiso   1.00
C233   C     0.07870   0.10965   0.79834   0.00000  Uiso   1.00
C234   C     0.04872   0.09710   0.72223   0.00000  Uiso   1.00
C235   C     0.97776   0.08007   0.61505   0.00000  Uiso   1.00
C236   C     0.23089   0.17450   0.84937   0.00000  Uiso   1.00
C237   C     0.23788   0.23153   0.89191   0.00000  Uiso   1.00
C238   C     0.28070   0.27471   0.85857   0.00000  Uiso   1.00
C239   C     0.34401   0.36045   0.83034   0.00000  Uiso   1.00
C240   C     0.22852   0.06207   0.88391   0.00000  Uiso   1.00
C241   C     0.23353   0.02458   0.95549   0.00000  Uiso   1.00
C242   C     0.27436   0.97312   0.95124   0.00000  Uiso   1.00
C243   C     0.33399   0.88431   0.97662   0.00000  Uiso   1.00
C244   C     0.25038   0.09589   0.73992   0.00000  Uiso   1.00
C245   C     0.17899   0.09487   0.72532   0.00000  Uiso   1.00
C246   C     0.14911   0.08231   0.64918   0.00000  Uiso   1.00
C247   C     0.08335   0.08366   0.64887   0.00000  Uiso   1.00
C248   C     0.26546   0.16108   0.77615   0.00000  Uiso   1.00
C249   C     0.30828   0.20419   0.74275   0.00000  Uiso   1.00
C250   C     0.31533   0.26127   0.78522   0.00000  Uiso   1.00
C251   C     0.26309   0.04865   0.81068   0.00000  Uiso   1.00
C252   C     0.30393   0.99724   0.80632   0.00000  Uiso   1.00
C253   C     0.30899   0.95968   0.87788   0.00000  Uiso   1.00
H254   H     0.15984   0.13105   0.93175   0.00000  Uiso   1.00
H255   H     0.05197   0.12004   0.85503   0.00000  Uiso   1.00
H256   H     0.21113   0.24190   0.94858   0.00000  Uiso   1.00
H257   H     0.20677   0.03498   0.01214   0.00000  Uiso   1.00
H258   H     0.94762   0.10195   0.73766   0.00000  Uiso   1.00
H259   H     0.28323   0.35887   0.93494   0.00000  Uiso   1.00
H260   H     0.27405   0.92256   0.06898   0.00000  Uiso   1.00
H261   H     0.27729   0.08544   0.68291   0.00000  Uiso   1.00
H262   H     0.17587   0.07193   0.59253   0.00000  Uiso   1.00
H263   H     0.33503   0.19378   0.68608   0.00000  Uiso   1.00
H264   H     0.33067   0.98687   0.74965   0.00000  Uiso   1.00
H265   H     0.04818   0.06290   0.52461   0.00000  Uiso   1.00
H266   H     0.38379   0.31983   0.72189   0.00000  Uiso   1.00
H267   H     0.37461   0.88351   0.85593   0.00000  Uiso   1.00
O268   O     0.92907   0.07438   0.57616   0.00000  Uiso   1.00
O269   O     0.36938   0.41145   0.83499   0.00000  Uiso   1.00
O270   O     0.35733   0.83902   0.01085   0.00000  Uiso   1.00
N271   N     0.98521   0.09460   0.69993   0.00000  Uiso   1.00
N272   N     0.29897   0.33482   0.88436   0.00000  Uiso   1.00
N273   N     0.29040   0.92691   0.00969   0.00000  Uiso   1.00
N274   N     0.03932   0.07359   0.58529   0.00000  Uiso   1.00
N275   N     0.35309   0.31380   0.76972   0.00000  Uiso   1.00
N276   N     0.34452   0.90589   0.89505   0.00000  Uiso   1.00
C277   C     0.62059   0.31326   0.87474   0.00000  Uiso   1.00
C278   C     0.60829   0.35558   0.79855   0.00000  Uiso   1.00
C279   C     0.60965   0.42130   0.79834   0.00000  Uiso   1.00
C280   C     0.59710   0.45128   0.72223   0.00000  Uiso   1.00
C281   C     0.58007   0.52224   0.61505   0.00000  Uiso   1.00
C282   C     0.67450   0.26911   0.84937   0.00000  Uiso   1.00
C283   C     0.73153   0.26212   0.89191   0.00000  Uiso   1.00
C284   C     0.77471   0.21930   0.85857   0.00000  Uiso   1.00
C285   C     0.86045   0.15599   0.83034   0.00000  Uiso   1.00
C286   C     0.56207   0.27148   0.88391   0.00000  Uiso   1.00
C287   C     0.52458   0.26647   0.95549   0.00000  Uiso   1.00
C288   C     0.47312   0.22564   0.95124   0.00000  Uiso   1.00
C289   C     0.38431   0.16601   0.97662   0.00000  Uiso   1.00
C290   C     0.59589   0.24962   0.73992   0.00000  Uiso   1.00
C291   C     0.59487   0.32101   0.72532   0.00000  Uiso   1.00
C292   C     0.58231   0.35089   0.64918   0.00000  Uiso   1.00
C293   C     0.58366   0.41665   0.64887   0.00000  Uiso   1.00
C294   C     0.66108   0.23454   0.77615   0.00000  Uiso   1.00
C295   C     0.70419   0.19172   0.74275   0.00000  Uiso   1.00
C296   C     0.76127   0.18467   0.78522   0.00000  Uiso   1.00
C297   C     0.54865   0.23691   0.81068   0.00000  Uiso   1.00
C298   C     0.49724   0.19607   0.80632   0.00000  Uiso   1.00
C299   C     0.45968   0.19101   0.87788   0.00000  Uiso   1.00
H300   H     0.63105   0.34016   0.93175   0.00000  Uiso   1.00
H301   H     0.62004   0.44803   0.85503   0.00000  Uiso   1.00
H302   H     0.74190   0.28887   0.94858   0.00000  Uiso   1.00
H303   H     0.53498   0.29323   0.01214   0.00000  Uiso   1.00
H304   H     0.60195   0.55238   0.73766   0.00000  Uiso   1.00
H305   H     0.85887   0.21677   0.93494   0.00000  Uiso   1.00
H306   H     0.42256   0.22595   0.06898   0.00000  Uiso   1.00
H307   H     0.58544   0.22271   0.68291   0.00000  Uiso   1.00
H308   H     0.57193   0.32413   0.59253   0.00000  Uiso   1.00
H309   H     0.69378   0.16497   0.68608   0.00000  Uiso   1.00
H310   H     0.48687   0.16933   0.74965   0.00000  Uiso   1.00
H311   H     0.56290   0.45182   0.52461   0.00000  Uiso   1.00
H312   H     0.81983   0.11621   0.72189   0.00000  Uiso   1.00
H313   H     0.38351   0.12539   0.85593   0.00000  Uiso   1.00
O314   O     0.57438   0.57093   0.57616   0.00000  Uiso   1.00
O315   O     0.91145   0.13062   0.83499   0.00000  Uiso   1.00
O316   O     0.33902   0.14267   0.01085   0.00000  Uiso   1.00
N317   N     0.59460   0.51479   0.69993   0.00000  Uiso   1.00
N318   N     0.83482   0.20103   0.88436   0.00000  Uiso   1.00
N319   N     0.42691   0.20960   0.00969   0.00000  Uiso   1.00
N320   N     0.57359   0.46068   0.58529   0.00000  Uiso   1.00
N321   N     0.81380   0.14691   0.76972   0.00000  Uiso   1.00
N322   N     0.40589   0.15548   0.89505   0.00000  Uiso   1.00
C323   C     0.37941   0.68674   0.87474   0.00000  Uiso   1.00
C324   C     0.39171   0.64442   0.79855   0.00000  Uiso   1.00
C325   C     0.39035   0.57870   0.79834   0.00000  Uiso   1.00
C326   C     0.40290   0.54872   0.72223   0.00000  Uiso   1.00
C327   C     0.41993   0.47776   0.61505   0.00000  Uiso   1.00
C328   C     0.32550   0.73089   0.84937   0.00000  Uiso   1.00
C329   C     0.26847   0.73788   0.89191   0.00000  Uiso   1.00
C330   C     0.22529   0.78070   0.85857   0.00000  Uiso   1.00
C331   C     0.13955   0.84401   0.83034   0.00000  Uiso   1.00
C332   C     0.43793   0.72852   0.88391   0.00000  Uiso   1.00
C333   C     0.47542   0.73353   0.95549   0.00000  Uiso   1.00
C334   C     0.52688   0.77436   0.95124   0.00000  Uiso   1.00
C335   C     0.61569   0.83399   0.97662   0.00000  Uiso   1.00
C336   C     0.40411   0.75038   0.73992   0.00000  Uiso   1.00
C337   C     0.40513   0.67899   0.72532   0.00000  Uiso   1.00
C338   C     0.41769   0.64911   0.64918   0.00000  Uiso   1.00
C339   C     0.41634   0.58335   0.64887   0.00000  Uiso   1.00
C340   C     0.33892   0.76546   0.77615   0.00000  Uiso   1.00
C341   C     0.29581   0.80828   0.74275   0.00000  Uiso   1.00
C342   C     0.23873   0.81533   0.78522   0.00000  Uiso   1.00
C343   C     0.45135   0.76309   0.81068   0.00000  Uiso   1.00
C344   C     0.50276   0.80393   0.80632   0.00000  Uiso   1.00
C345   C     0.54032   0.80899   0.87788   0.00000  Uiso   1.00
H346   H     0.36895   0.65984   0.93175   0.00000  Uiso   1.00
H347   H     0.37996   0.55197   0.85503   0.00000  Uiso   1.00
H348   H     0.25810   0.71113   0.94858   0.00000  Uiso   1.00
H349   H     0.46502   0.70677   0.01214   0.00000  Uiso   1.00
H350   H     0.39805   0.44762   0.73766   0.00000  Uiso   1.00
H351   H     0.14113   0.78323   0.93494   0.00000  Uiso   1.00
H352   H     0.57744   0.77405   0.06898   0.00000  Uiso   1.00
H353   H     0.41456   0.77729   0.68291   0.00000  Uiso   1.00
H354   H     0.42807   0.67587   0.59253   0.00000  Uiso   1.00
H355   H     0.30622   0.83503   0.68608   0.00000  Uiso   1.00
H356   H     0.51313   0.83067   0.74965   0.00000  Uiso   1.00
H357   H     0.43710   0.54818   0.52461   0.00000  Uiso   1.00
H358   H     0.18017   0.88379   0.72189   0.00000  Uiso   1.00
H359   H     0.61649   0.87461   0.85593   0.00000  Uiso   1.00
O360   O     0.42562   0.42907   0.57616   0.00000  Uiso   1.00
O361   O     0.08855   0.86938   0.83499   0.00000  Uiso   1.00
O362   O     0.66098   0.85733   0.01085   0.00000  Uiso   1.00
N363   N     0.40540   0.48521   0.69993   0.00000  Uiso   1.00
N364   N     0.16518   0.79897   0.88436   0.00000  Uiso   1.00
N365   N     0.57309   0.79040   0.00969   0.00000  Uiso   1.00
N366   N     0.42641   0.53932   0.58529   0.00000  Uiso   1.00
N367   N     0.18620   0.85309   0.76972   0.00000  Uiso   1.00
N368   N     0.59411   0.84452   0.89505   0.00000  Uiso   1.00
