data_job_05664
_audit_creation_date              2018-12-19
_audit_creation_method            'Materials Studio'
_symmetry_space_group_name_H-M    'P1'
_symmetry_Int_Tables_number       1
_symmetry_cell_setting            triclinic
loop_
_symmetry_equiv_pos_as_xyz
  x,y,z
_cell_length_a                    15.5691
_cell_length_b                    9.2749
_cell_length_c                    9.7251
_cell_angle_alpha                 90.0000
_cell_angle_beta                  84.1270
_cell_angle_gamma                 90.0000
loop_
_atom_site_label
_atom_site_type_symbol
_atom_site_fract_x
_atom_site_fract_y
_atom_site_fract_z
_atom_site_U_iso_or_equiv
_atom_site_adp_type
_atom_site_occupancy
C1     C     0.74367   0.86740   0.46284   0.00000  Uiso   1.00
C2     C     0.78236   0.76662   0.34902   0.00000  Uiso   1.00
C3     C     0.77858   0.78580   0.20825   0.00000  Uiso   1.00
C4     C     0.81795   0.68146   0.12088   0.00000  Uiso   1.00
C5     C     0.87166   0.54307   0.93629   0.00000  Uiso   1.00
C6     C     0.68321   0.77494   0.55959   0.00000  Uiso   1.00
C7     C     0.59607   0.80113   0.59587   0.00000  Uiso   1.00
C8     C     0.55198   0.70379   0.68578   0.00000  Uiso   1.00
C9     C     0.45178   0.57837   0.82818   0.00000  Uiso   1.00
C10    C     0.81794   0.91029   0.54513   0.00000  Uiso   1.00
C11    C     0.84407   0.05028   0.56929   0.00000  Uiso   1.00
C12    C     0.91340   0.06690   0.64705   0.00000  Uiso   1.00
C13    C     0.02238   0.15162   0.76700   0.00000  Uiso   1.00
C14    C     0.82031   0.64800   0.55802   0.00000  Uiso   1.00
C15    C     0.82399   0.64745   0.40072   0.00000  Uiso   1.00
C16    C     0.86338   0.54306   0.31354   0.00000  Uiso   1.00
C17    C     0.85966   0.56208   0.17266   0.00000  Uiso   1.00
C18    C     0.72484   0.65577   0.61129   0.00000  Uiso   1.00
C19    C     0.68087   0.55838   0.70117   0.00000  Uiso   1.00
C20    C     0.59369   0.58441   0.73757   0.00000  Uiso   1.00
C21    C     0.85957   0.79112   0.59683   0.00000  Uiso   1.00
C22    C     0.92887   0.80753   0.67458   0.00000  Uiso   1.00
C23    C     0.95511   0.94751   0.69884   0.00000  Uiso   1.00
H24    H     0.71125   0.96018   0.42261   0.00000  Uiso   1.00
H25    H     0.74635   0.87803   0.16829   0.00000  Uiso   1.00
H26    H     0.56388   0.89336   0.55586   0.00000  Uiso   1.00
H27    H     0.81184   0.14247   0.52927   0.00000  Uiso   1.00
H28    H     0.80359   0.73438   0.90913   0.00000  Uiso   1.00
H29    H     0.41885   0.76673   0.72639   0.00000  Uiso   1.00
H30    H     0.94172   0.29202   0.67033   0.00000  Uiso   1.00
H31    H     0.85272   0.55522   0.59827   0.00000  Uiso   1.00
H32    H     0.89559   0.45085   0.35358   0.00000  Uiso   1.00
H33    H     0.71311   0.46618   0.74116   0.00000  Uiso   1.00
H34    H     0.96107   0.71528   0.71457   0.00000  Uiso   1.00
H35    H     0.92472   0.38765   0.05952   0.00000  Uiso   1.00
H36    H     0.53997   0.42001   0.87679   0.00000  Uiso   1.00
H37    H     0.06284   0.94529   0.82072   0.00000  Uiso   1.00
O38    O     0.88977   0.49964   0.82019   0.00000  Uiso   1.00
O39    O     0.38501   0.54210   0.89243   0.00000  Uiso   1.00
O40    O     0.07101   0.23127   0.81887   0.00000  Uiso   1.00
N41    N     0.82623   0.66711   0.97810   0.00000  Uiso   1.00
N42    N     0.46651   0.69735   0.74218   0.00000  Uiso   1.00
N43    N     0.95534   0.18845   0.68979   0.00000  Uiso   1.00
N44    N     0.89141   0.48055   0.05902   0.00000  Uiso   1.00
N45    N     0.53169   0.51078   0.82310   0.00000  Uiso   1.00
N46    N     0.02052   0.00188   0.77071   0.00000  Uiso   1.00
C47    C     0.25633   0.86740   0.53716   0.00000  Uiso   1.00
C48    C     0.21764   0.76662   0.65098   0.00000  Uiso   1.00
C49    C     0.22142   0.78580   0.79175   0.00000  Uiso   1.00
C50    C     0.18205   0.68146   0.87912   0.00000  Uiso   1.00
C51    C     0.12834   0.54307   0.06371   0.00000  Uiso   1.00
C52    C     0.31679   0.77494   0.44041   0.00000  Uiso   1.00
C53    C     0.40393   0.80113   0.40413   0.00000  Uiso   1.00
C54    C     0.44802   0.70379   0.31422   0.00000  Uiso   1.00
C55    C     0.54822   0.57837   0.17182   0.00000  Uiso   1.00
C56    C     0.18206   0.91029   0.45487   0.00000  Uiso   1.00
C57    C     0.15593   0.05028   0.43071   0.00000  Uiso   1.00
C58    C     0.08660   0.06690   0.35295   0.00000  Uiso   1.00
C59    C     0.97762   0.15162   0.23300   0.00000  Uiso   1.00
C60    C     0.17969   0.64800   0.44198   0.00000  Uiso   1.00
C61    C     0.17601   0.64745   0.59928   0.00000  Uiso   1.00
C62    C     0.13662   0.54306   0.68646   0.00000  Uiso   1.00
C63    C     0.14034   0.56208   0.82734   0.00000  Uiso   1.00
C64    C     0.27516   0.65577   0.38871   0.00000  Uiso   1.00
C65    C     0.31913   0.55838   0.29883   0.00000  Uiso   1.00
C66    C     0.40631   0.58441   0.26243   0.00000  Uiso   1.00
C67    C     0.14043   0.79112   0.40317   0.00000  Uiso   1.00
C68    C     0.07113   0.80753   0.32542   0.00000  Uiso   1.00
C69    C     0.04489   0.94751   0.30116   0.00000  Uiso   1.00
H70    H     0.28875   0.96018   0.57739   0.00000  Uiso   1.00
H71    H     0.25365   0.87803   0.83171   0.00000  Uiso   1.00
H72    H     0.43612   0.89336   0.44414   0.00000  Uiso   1.00
H73    H     0.18816   0.14247   0.47073   0.00000  Uiso   1.00
H74    H     0.19641   0.73438   0.09087   0.00000  Uiso   1.00
H75    H     0.58115   0.76673   0.27361   0.00000  Uiso   1.00
H76    H     0.05828   0.29202   0.32967   0.00000  Uiso   1.00
H77    H     0.14728   0.55522   0.40173   0.00000  Uiso   1.00
H78    H     0.10441   0.45085   0.64642   0.00000  Uiso   1.00
H79    H     0.28689   0.46618   0.25884   0.00000  Uiso   1.00
H80    H     0.03893   0.71528   0.28543   0.00000  Uiso   1.00
H81    H     0.07528   0.38765   0.94048   0.00000  Uiso   1.00
H82    H     0.46003   0.42001   0.12321   0.00000  Uiso   1.00
H83    H     0.93716   0.94529   0.17928   0.00000  Uiso   1.00
O84    O     0.11023   0.49964   0.17981   0.00000  Uiso   1.00
O85    O     0.61499   0.54210   0.10757   0.00000  Uiso   1.00
O86    O     0.92899   0.23127   0.18113   0.00000  Uiso   1.00
N87    N     0.17377   0.66711   0.02190   0.00000  Uiso   1.00
N88    N     0.53349   0.69735   0.25782   0.00000  Uiso   1.00
N89    N     0.04466   0.18845   0.31021   0.00000  Uiso   1.00
N90    N     0.10859   0.48055   0.94098   0.00000  Uiso   1.00
N91    N     0.46831   0.51078   0.17690   0.00000  Uiso   1.00
N92    N     0.97948   0.00188   0.22929   0.00000  Uiso   1.00
