data_job_04135
_audit_creation_date              2018-12-19
_audit_creation_method            'Materials Studio'
_symmetry_space_group_name_H-M    'P1'
_symmetry_Int_Tables_number       1
_symmetry_cell_setting            triclinic
loop_
_symmetry_equiv_pos_as_xyz
  x,y,z
_cell_length_a                    9.5817
_cell_length_b                    13.6094
_cell_length_c                    19.7095
_cell_angle_alpha                 90.0000
_cell_angle_beta                  90.0000
_cell_angle_gamma                 90.0000
loop_
_atom_site_label
_atom_site_type_symbol
_atom_site_fract_x
_atom_site_fract_y
_atom_site_fract_z
_atom_site_U_iso_or_equiv
_atom_site_adp_type
_atom_site_occupancy
C1     C     0.56914   0.49769   0.14831   0.00000  Uiso   1.00
C2     C     0.53880   0.58360   0.19574   0.00000  Uiso   1.00
C3     C     0.45477   0.58021   0.25304   0.00000  Uiso   1.00
C4     C     0.44017   0.66671   0.28970   0.00000  Uiso   1.00
C5     C     0.38280   0.78693   0.36637   0.00000  Uiso   1.00
C6     C     0.52569   0.53154   0.07764   0.00000  Uiso   1.00
C7     C     0.43066   0.48437   0.03565   0.00000  Uiso   1.00
C8     C     0.40505   0.52705   0.97289   0.00000  Uiso   1.00
C9     C     0.32740   0.56641   0.86619   0.00000  Uiso   1.00
C10    C     0.72755   0.48734   0.14632   0.00000  Uiso   1.00
C11    C     0.80226   0.40300   0.16205   0.00000  Uiso   1.00
C12    C     0.94660   0.40846   0.15710   0.00000  Uiso   1.00
C13    C     0.18237   0.37919   0.15704   0.00000  Uiso   1.00
C14    C     0.69264   0.65735   0.11151   0.00000  Uiso   1.00
C15    C     0.60587   0.67032   0.17575   0.00000  Uiso   1.00
C16    C     0.59141   0.75685   0.21233   0.00000  Uiso   1.00
C17    C     0.50738   0.75359   0.26968   0.00000  Uiso   1.00
C18    C     0.59276   0.61826   0.05765   0.00000  Uiso   1.00
C19    C     0.56729   0.66102   0.99494   0.00000  Uiso   1.00
C20    C     0.47225   0.61393   0.95286   0.00000  Uiso   1.00
C21    C     0.79463   0.57406   0.12633   0.00000  Uiso   1.00
C22    C     0.93889   0.57965   0.12134   0.00000  Uiso   1.00
C23    C     0.01380   0.49534   0.13707   0.00000  Uiso   1.00
H24    H     0.51692   0.43017   0.16386   0.00000  Uiso   1.00
H25    H     0.40287   0.51308   0.26849   0.00000  Uiso   1.00
H26    H     0.37878   0.41726   0.05113   0.00000  Uiso   1.00
H27    H     0.75031   0.33590   0.17752   0.00000  Uiso   1.00
H28    H     0.30597   0.64326   0.37566   0.00000  Uiso   1.00
H29    H     0.25521   0.44119   0.91733   0.00000  Uiso   1.00
H30    H     0.03866   0.26963   0.18385   0.00000  Uiso   1.00
H31    H     0.74486   0.72486   0.09594   0.00000  Uiso   1.00
H32    H     0.64333   0.82395   0.19685   0.00000  Uiso   1.00
H33    H     0.61923   0.72812   0.97948   0.00000  Uiso   1.00
H34    H     0.99076   0.64677   0.10588   0.00000  Uiso   1.00
H35    H     0.50112   0.89557   0.31751   0.00000  Uiso   1.00
H36    H     0.45036   0.69349   0.85918   0.00000  Uiso   1.00
H37    H     0.23382   0.52195   0.12570   0.00000  Uiso   1.00
O38    O     0.33260   0.82928   0.41417   0.00000  Uiso   1.00
O39    O     0.26603   0.56416   0.81286   0.00000  Uiso   1.00
O40    O     0.29389   0.33910   0.16253   0.00000  Uiso   1.00
N41    N     0.36586   0.68904   0.34813   0.00000  Uiso   1.00
N42    N     0.31838   0.50012   0.91963   0.00000  Uiso   1.00
N43    N     0.05084   0.33973   0.16878   0.00000  Uiso   1.00
N44    N     0.47087   0.82480   0.31684   0.00000  Uiso   1.00
N45    N     0.42339   0.63589   0.88834   0.00000  Uiso   1.00
N46    N     0.15585   0.47549   0.13749   0.00000  Uiso   1.00
C47    C     0.43086   0.50231   0.64831   0.00000  Uiso   1.00
C48    C     0.46120   0.41640   0.69574   0.00000  Uiso   1.00
C49    C     0.54523   0.41979   0.75304   0.00000  Uiso   1.00
C50    C     0.55983   0.33329   0.78970   0.00000  Uiso   1.00
C51    C     0.61720   0.21307   0.86637   0.00000  Uiso   1.00
C52    C     0.47431   0.46846   0.57764   0.00000  Uiso   1.00
C53    C     0.56934   0.51563   0.53565   0.00000  Uiso   1.00
C54    C     0.59495   0.47295   0.47289   0.00000  Uiso   1.00
C55    C     0.67260   0.43359   0.36619   0.00000  Uiso   1.00
C56    C     0.27245   0.51266   0.64632   0.00000  Uiso   1.00
C57    C     0.19774   0.59700   0.66205   0.00000  Uiso   1.00
C58    C     0.05340   0.59154   0.65710   0.00000  Uiso   1.00
C59    C     0.81763   0.62081   0.65704   0.00000  Uiso   1.00
C60    C     0.30736   0.34265   0.61151   0.00000  Uiso   1.00
C61    C     0.39413   0.32968   0.67575   0.00000  Uiso   1.00
C62    C     0.40859   0.24315   0.71233   0.00000  Uiso   1.00
C63    C     0.49262   0.24641   0.76968   0.00000  Uiso   1.00
C64    C     0.40724   0.38174   0.55765   0.00000  Uiso   1.00
C65    C     0.43271   0.33898   0.49494   0.00000  Uiso   1.00
C66    C     0.52775   0.38607   0.45286   0.00000  Uiso   1.00
C67    C     0.20537   0.42594   0.62633   0.00000  Uiso   1.00
C68    C     0.06111   0.42035   0.62134   0.00000  Uiso   1.00
C69    C     0.98620   0.50466   0.63707   0.00000  Uiso   1.00
H70    H     0.48308   0.56983   0.66386   0.00000  Uiso   1.00
H71    H     0.59713   0.48692   0.76849   0.00000  Uiso   1.00
H72    H     0.62122   0.58274   0.55113   0.00000  Uiso   1.00
H73    H     0.24969   0.66410   0.67752   0.00000  Uiso   1.00
H74    H     0.69403   0.35674   0.87566   0.00000  Uiso   1.00
H75    H     0.74479   0.55881   0.41733   0.00000  Uiso   1.00
H76    H     0.96134   0.73037   0.68385   0.00000  Uiso   1.00
H77    H     0.25514   0.27514   0.59594   0.00000  Uiso   1.00
H78    H     0.35667   0.17605   0.69685   0.00000  Uiso   1.00
H79    H     0.38077   0.27188   0.47948   0.00000  Uiso   1.00
H80    H     0.00924   0.35323   0.60588   0.00000  Uiso   1.00
H81    H     0.49888   0.10443   0.81751   0.00000  Uiso   1.00
H82    H     0.54964   0.30651   0.35918   0.00000  Uiso   1.00
H83    H     0.76618   0.47805   0.62570   0.00000  Uiso   1.00
O84    O     0.66740   0.17072   0.91417   0.00000  Uiso   1.00
O85    O     0.73397   0.43584   0.31286   0.00000  Uiso   1.00
O86    O     0.70611   0.66090   0.66253   0.00000  Uiso   1.00
N87    N     0.63414   0.31096   0.84813   0.00000  Uiso   1.00
N88    N     0.68162   0.49988   0.41963   0.00000  Uiso   1.00
N89    N     0.94916   0.66027   0.66878   0.00000  Uiso   1.00
N90    N     0.52913   0.17520   0.81684   0.00000  Uiso   1.00
N91    N     0.57661   0.36411   0.38834   0.00000  Uiso   1.00
N92    N     0.84415   0.52451   0.63749   0.00000  Uiso   1.00
C93    C     0.06914   0.00231   0.14831   0.00000  Uiso   1.00
C94    C     0.03880   0.91640   0.19574   0.00000  Uiso   1.00
C95    C     0.95477   0.91979   0.25304   0.00000  Uiso   1.00
C96    C     0.94017   0.83329   0.28970   0.00000  Uiso   1.00
C97    C     0.88280   0.71307   0.36637   0.00000  Uiso   1.00
C98    C     0.02569   0.96846   0.07764   0.00000  Uiso   1.00
C99    C     0.93066   0.01563   0.03565   0.00000  Uiso   1.00
C100   C     0.90505   0.97295   0.97289   0.00000  Uiso   1.00
C101   C     0.82740   0.93359   0.86619   0.00000  Uiso   1.00
C102   C     0.22755   0.01266   0.14632   0.00000  Uiso   1.00
C103   C     0.30226   0.09700   0.16205   0.00000  Uiso   1.00
C104   C     0.44660   0.09154   0.15710   0.00000  Uiso   1.00
C105   C     0.68237   0.12081   0.15704   0.00000  Uiso   1.00
C106   C     0.19264   0.84265   0.11151   0.00000  Uiso   1.00
C107   C     0.10587   0.82968   0.17575   0.00000  Uiso   1.00
C108   C     0.09141   0.74315   0.21233   0.00000  Uiso   1.00
C109   C     0.00738   0.74641   0.26968   0.00000  Uiso   1.00
C110   C     0.09276   0.88174   0.05765   0.00000  Uiso   1.00
C111   C     0.06729   0.83898   0.99494   0.00000  Uiso   1.00
C112   C     0.97225   0.88607   0.95286   0.00000  Uiso   1.00
C113   C     0.29463   0.92594   0.12633   0.00000  Uiso   1.00
C114   C     0.43889   0.92035   0.12134   0.00000  Uiso   1.00
C115   C     0.51380   0.00466   0.13707   0.00000  Uiso   1.00
H116   H     0.01692   0.06983   0.16386   0.00000  Uiso   1.00
H117   H     0.90287   0.98692   0.26849   0.00000  Uiso   1.00
H118   H     0.87878   0.08274   0.05113   0.00000  Uiso   1.00
H119   H     0.25031   0.16410   0.17752   0.00000  Uiso   1.00
H120   H     0.80597   0.85674   0.37566   0.00000  Uiso   1.00
H121   H     0.75521   0.05881   0.91733   0.00000  Uiso   1.00
H122   H     0.53866   0.23037   0.18385   0.00000  Uiso   1.00
H123   H     0.24486   0.77514   0.09594   0.00000  Uiso   1.00
H124   H     0.14333   0.67605   0.19685   0.00000  Uiso   1.00
H125   H     0.11923   0.77188   0.97948   0.00000  Uiso   1.00
H126   H     0.49076   0.85323   0.10588   0.00000  Uiso   1.00
H127   H     0.00112   0.60443   0.31751   0.00000  Uiso   1.00
H128   H     0.95036   0.80651   0.85918   0.00000  Uiso   1.00
H129   H     0.73382   0.97805   0.12570   0.00000  Uiso   1.00
O130   O     0.83260   0.67072   0.41417   0.00000  Uiso   1.00
O131   O     0.76603   0.93584   0.81286   0.00000  Uiso   1.00
O132   O     0.79389   0.16090   0.16253   0.00000  Uiso   1.00
N133   N     0.86586   0.81096   0.34813   0.00000  Uiso   1.00
N134   N     0.81838   0.99988   0.91963   0.00000  Uiso   1.00
N135   N     0.55084   0.16027   0.16878   0.00000  Uiso   1.00
N136   N     0.97087   0.67520   0.31684   0.00000  Uiso   1.00
N137   N     0.92339   0.86411   0.88834   0.00000  Uiso   1.00
N138   N     0.65585   0.02451   0.13749   0.00000  Uiso   1.00
C139   C     0.93086   0.99769   0.64831   0.00000  Uiso   1.00
C140   C     0.96120   0.08360   0.69574   0.00000  Uiso   1.00
C141   C     0.04523   0.08021   0.75304   0.00000  Uiso   1.00
C142   C     0.05983   0.16671   0.78970   0.00000  Uiso   1.00
C143   C     0.11720   0.28693   0.86637   0.00000  Uiso   1.00
C144   C     0.97431   0.03154   0.57764   0.00000  Uiso   1.00
C145   C     0.06934   0.98437   0.53565   0.00000  Uiso   1.00
C146   C     0.09495   0.02705   0.47289   0.00000  Uiso   1.00
C147   C     0.17260   0.06641   0.36619   0.00000  Uiso   1.00
C148   C     0.77245   0.98734   0.64632   0.00000  Uiso   1.00
C149   C     0.69774   0.90300   0.66205   0.00000  Uiso   1.00
C150   C     0.55340   0.90846   0.65710   0.00000  Uiso   1.00
C151   C     0.31763   0.87919   0.65704   0.00000  Uiso   1.00
C152   C     0.80736   0.15735   0.61151   0.00000  Uiso   1.00
C153   C     0.89413   0.17032   0.67575   0.00000  Uiso   1.00
C154   C     0.90859   0.25685   0.71233   0.00000  Uiso   1.00
C155   C     0.99262   0.25359   0.76968   0.00000  Uiso   1.00
C156   C     0.90724   0.11826   0.55765   0.00000  Uiso   1.00
C157   C     0.93271   0.16102   0.49494   0.00000  Uiso   1.00
C158   C     0.02775   0.11393   0.45286   0.00000  Uiso   1.00
C159   C     0.70537   0.07406   0.62633   0.00000  Uiso   1.00
C160   C     0.56111   0.07965   0.62134   0.00000  Uiso   1.00
C161   C     0.48620   0.99534   0.63707   0.00000  Uiso   1.00
H162   H     0.98308   0.93017   0.66386   0.00000  Uiso   1.00
H163   H     0.09713   0.01308   0.76849   0.00000  Uiso   1.00
H164   H     0.12122   0.91726   0.55113   0.00000  Uiso   1.00
H165   H     0.74969   0.83590   0.67752   0.00000  Uiso   1.00
H166   H     0.19403   0.14326   0.87566   0.00000  Uiso   1.00
H167   H     0.24479   0.94119   0.41733   0.00000  Uiso   1.00
H168   H     0.46134   0.76963   0.68385   0.00000  Uiso   1.00
H169   H     0.75514   0.22486   0.59594   0.00000  Uiso   1.00
H170   H     0.85667   0.32395   0.69685   0.00000  Uiso   1.00
H171   H     0.88077   0.22812   0.47948   0.00000  Uiso   1.00
H172   H     0.50924   0.14677   0.60588   0.00000  Uiso   1.00
H173   H     0.99888   0.39557   0.81751   0.00000  Uiso   1.00
H174   H     0.04964   0.19349   0.35918   0.00000  Uiso   1.00
H175   H     0.26618   0.02195   0.62570   0.00000  Uiso   1.00
O176   O     0.16740   0.32928   0.91417   0.00000  Uiso   1.00
O177   O     0.23397   0.06416   0.31286   0.00000  Uiso   1.00
O178   O     0.20611   0.83910   0.66253   0.00000  Uiso   1.00
N179   N     0.13414   0.18904   0.84813   0.00000  Uiso   1.00
N180   N     0.18162   0.00012   0.41963   0.00000  Uiso   1.00
N181   N     0.44916   0.83973   0.66878   0.00000  Uiso   1.00
N182   N     0.02913   0.32480   0.81684   0.00000  Uiso   1.00
N183   N     0.07661   0.13589   0.38834   0.00000  Uiso   1.00
N184   N     0.34415   0.97549   0.63749   0.00000  Uiso   1.00
