data_job_06280
_audit_creation_date              2018-12-19
_audit_creation_method            'Materials Studio'
_symmetry_space_group_name_H-M    'P1'
_symmetry_Int_Tables_number       1
_symmetry_cell_setting            triclinic
loop_
_symmetry_equiv_pos_as_xyz
  x,y,z
_cell_length_a                    12.4722
_cell_length_b                    22.1930
_cell_length_c                    22.2422
_cell_angle_alpha                 63.3620
_cell_angle_beta                  100.9991
_cell_angle_gamma                 79.6359
loop_
_atom_site_label
_atom_site_type_symbol
_atom_site_fract_x
_atom_site_fract_y
_atom_site_fract_z
_atom_site_U_iso_or_equiv
_atom_site_adp_type
_atom_site_occupancy
C1     C     0.97493   0.82030   0.80316   0.00000  Uiso   1.00
C2     C     0.89515   0.84989   0.83408   0.00000  Uiso   1.00
C3     C     0.77892   0.88565   0.80151   0.00000  Uiso   1.00
C4     C     0.72098   0.90853   0.83852   0.00000  Uiso   1.00
C5     C     0.58855   0.95640   0.87630   0.00000  Uiso   1.00
C6     C     0.07185   0.85352   0.80303   0.00000  Uiso   1.00
C7     C     0.10420   0.89233   0.74434   0.00000  Uiso   1.00
C8     C     0.19501   0.91827   0.75522   0.00000  Uiso   1.00
C9     C     0.33696   0.97175   0.74480   0.00000  Uiso   1.00
C10    C     0.02890   0.74176   0.85710   0.00000  Uiso   1.00
C11    C     0.02517   0.68658   0.84388   0.00000  Uiso   1.00
C12    C     0.07985   0.61842   0.90027   0.00000  Uiso   1.00
C13    C     0.15511   0.49836   0.97381   0.00000  Uiso   1.00
C14    C     0.07871   0.79734   0.92681   0.00000  Uiso   1.00
C15    C     0.95153   0.83742   0.90125   0.00000  Uiso   1.00
C16    C     0.89375   0.86025   0.93832   0.00000  Uiso   1.00
C17    C     0.77745   0.89604   0.90580   0.00000  Uiso   1.00
C18    C     0.12822   0.84106   0.87019   0.00000  Uiso   1.00
C19    C     0.21902   0.86694   0.88116   0.00000  Uiso   1.00
C20    C     0.25149   0.90578   0.82250   0.00000  Uiso   1.00
C21    C     0.08527   0.72929   0.92427   0.00000  Uiso   1.00
C22    C     0.13998   0.66119   0.98069   0.00000  Uiso   1.00
C23    C     0.13632   0.60593   0.96756   0.00000  Uiso   1.00
H24    H     0.93105   0.83000   0.75087   0.00000  Uiso   1.00
H25    H     0.73533   0.89529   0.74953   0.00000  Uiso   1.00
H26    H     0.06056   0.90197   0.69238   0.00000  Uiso   1.00
H27    H     0.98154   0.69625   0.79189   0.00000  Uiso   1.00
H28    H     0.54322   0.96220   0.77765   0.00000  Uiso   1.00
H29    H     0.22900   0.97626   0.65715   0.00000  Uiso   1.00
H30    H     0.06237   0.54246   0.86700   0.00000  Uiso   1.00
H31    H     0.12260   0.78764   0.97911   0.00000  Uiso   1.00
H32    H     0.93739   0.85060   0.99029   0.00000  Uiso   1.00
H33    H     0.26262   0.85728   0.93314   0.00000  Uiso   1.00
H34    H     0.18360   0.65156   0.03266   0.00000  Uiso   1.00
H35    H     0.70722   0.92593   0.97306   0.00000  Uiso   1.00
H36    H     0.39301   0.93999   0.85256   0.00000  Uiso   1.00
H37    H     0.22637   0.50620   0.06241   0.00000  Uiso   1.00
O38    O     0.49993   0.98626   0.87859   0.00000  Uiso   1.00
O39    O     0.39967   0.00470   0.72050   0.00000  Uiso   1.00
O40    O     0.18104   0.43558   0.99582   0.00000  Uiso   1.00
N41    N     0.60723   0.94500   0.82211   0.00000  Uiso   1.00
N42    N     0.24839   0.95816   0.70945   0.00000  Uiso   1.00
N43    N     0.09262   0.55260   0.90564   0.00000  Uiso   1.00
N44    N     0.69547   0.92549   0.92726   0.00000  Uiso   1.00
N45    N     0.33663   0.93865   0.81460   0.00000  Uiso   1.00
N46    N     0.18087   0.53309   0.01079   0.00000  Uiso   1.00
C47    C     0.79219   0.38035   0.81765   0.00000  Uiso   1.00
C48    C     0.74159   0.31948   0.84740   0.00000  Uiso   1.00
C49    C     0.66129   0.31589   0.88335   0.00000  Uiso   1.00
C50    C     0.62579   0.25572   0.90636   0.00000  Uiso   1.00
C51    C     0.54067   0.16950   0.95449   0.00000  Uiso   1.00
C52    C     0.92179   0.34773   0.85065   0.00000  Uiso   1.00
C53    C     0.99301   0.36789   0.88932   0.00000  Uiso   1.00
C54    C     0.10920   0.33151   0.91505   0.00000  Uiso   1.00
C55    C     0.30386   0.28917   0.96818   0.00000  Uiso   1.00
C56    C     0.76783   0.40497   0.73910   0.00000  Uiso   1.00
C57    C     0.70962   0.47328   0.68397   0.00000  Uiso   1.00
C58    C     0.69621   0.48510   0.61579   0.00000  Uiso   1.00
C59    C     0.65182   0.53165   0.49571   0.00000  Uiso   1.00
C60    C     0.87190   0.27987   0.79457   0.00000  Uiso   1.00
C61    C     0.78489   0.26491   0.83486   0.00000  Uiso   1.00
C62    C     0.74949   0.20473   0.85781   0.00000  Uiso   1.00
C63    C     0.66915   0.20105   0.89379   0.00000  Uiso   1.00
C64    C     0.96509   0.29315   0.83811   0.00000  Uiso   1.00
C65    C     0.08120   0.25673   0.86378   0.00000  Uiso   1.00
C66    C     0.15258   0.27684   0.90249   0.00000  Uiso   1.00
C67    C     0.81112   0.35040   0.72656   0.00000  Uiso   1.00
C68    C     0.79781   0.36212   0.65844   0.00000  Uiso   1.00
C69    C     0.73959   0.43043   0.60322   0.00000  Uiso   1.00
H70    H     0.75849   0.42283   0.82741   0.00000  Uiso   1.00
H71    H     0.62782   0.35813   0.89305   0.00000  Uiso   1.00
H72    H     0.95948   0.41013   0.89901   0.00000  Uiso   1.00
H73    H     0.67613   0.51550   0.69370   0.00000  Uiso   1.00
H74    H     0.50207   0.26232   0.96031   0.00000  Uiso   1.00
H75    H     0.20140   0.37198   0.97286   0.00000  Uiso   1.00
H76    H     0.60391   0.59417   0.53992   0.00000  Uiso   1.00
H77    H     0.90562   0.23738   0.78481   0.00000  Uiso   1.00
H78    H     0.78301   0.16251   0.84810   0.00000  Uiso   1.00
H79    H     0.11468   0.21451   0.85407   0.00000  Uiso   1.00
H80    H     0.83133   0.31987   0.64876   0.00000  Uiso   1.00
H81    H     0.62803   0.10355   0.92384   0.00000  Uiso   1.00
H82    H     0.32737   0.21321   0.93638   0.00000  Uiso   1.00
H83    H     0.72987   0.43540   0.50344   0.00000  Uiso   1.00
O84    O     0.48177   0.13701   0.98450   0.00000  Uiso   1.00
O85    O     0.39927   0.28089   0.00096   0.00000  Uiso   1.00
O86    O     0.61537   0.57240   0.43295   0.00000  Uiso   1.00
N87    N     0.54852   0.23524   0.94303   0.00000  Uiso   1.00
N88    N     0.20236   0.33775   0.95477   0.00000  Uiso   1.00
N89    N     0.64377   0.54549   0.55001   0.00000  Uiso   1.00
N90    N     0.61630   0.14980   0.92340   0.00000  Uiso   1.00
N91    N     0.27014   0.25232   0.93514   0.00000  Uiso   1.00
N92    N     0.71156   0.46005   0.53038   0.00000  Uiso   1.00
C93    C     0.16103   0.80236   0.37932   0.00000  Uiso   1.00
C94    C     0.05003   0.83312   0.31863   0.00000  Uiso   1.00
C95    C     0.96603   0.80034   0.31523   0.00000  Uiso   1.00
C96    C     0.87084   0.83721   0.25520   0.00000  Uiso   1.00
C97    C     0.70014   0.87472   0.16926   0.00000  Uiso   1.00
C98    C     0.25777   0.80246   0.34647   0.00000  Uiso   1.00
C99    C     0.34844   0.74390   0.36649   0.00000  Uiso   1.00
C100   C     0.42814   0.75497   0.32991   0.00000  Uiso   1.00
C101   C     0.58000   0.74488   0.28723   0.00000  Uiso   1.00
C102   C     0.16182   0.85634   0.40393   0.00000  Uiso   1.00
C103   C     0.17184   0.84309   0.47227   0.00000  Uiso   1.00
C104   C     0.17078   0.89953   0.48407   0.00000  Uiso   1.00
C105   C     0.17366   0.97311   0.53061   0.00000  Uiso   1.00
C106   C     0.14136   0.92614   0.27875   0.00000  Uiso   1.00
C107   C     0.03935   0.90035   0.26401   0.00000  Uiso   1.00
C108   C     0.94426   0.93728   0.20397   0.00000  Uiso   1.00
C109   C     0.86013   0.90457   0.20048   0.00000  Uiso   1.00
C110   C     0.24709   0.86968   0.29185   0.00000  Uiso   1.00
C111   C     0.32667   0.88084   0.25523   0.00000  Uiso   1.00
C112   C     0.41744   0.82232   0.27519   0.00000  Uiso   1.00
C113   C     0.15113   0.92358   0.34931   0.00000  Uiso   1.00
C114   C     0.15006   0.98004   0.36101   0.00000  Uiso   1.00
C115   C     0.16007   0.96688   0.42935   0.00000  Uiso   1.00
H116   H     0.16936   0.75002   0.42184   0.00000  Uiso   1.00
H117   H     0.97434   0.74830   0.35751   0.00000  Uiso   1.00
H118   H     0.35670   0.69188   0.40877   0.00000  Uiso   1.00
H119   H     0.18011   0.79106   0.51453   0.00000  Uiso   1.00
H120   H     0.75343   0.77604   0.26208   0.00000  Uiso   1.00
H121   H     0.55967   0.65707   0.37018   0.00000  Uiso   1.00
H122   H     0.18731   0.86621   0.59320   0.00000  Uiso   1.00
H123   H     0.13304   0.97849   0.23623   0.00000  Uiso   1.00
H124   H     0.93602   0.98931   0.16171   0.00000  Uiso   1.00
H125   H     0.31838   0.93288   0.21297   0.00000  Uiso   1.00
H126   H     0.14179   0.03206   0.31873   0.00000  Uiso   1.00
H127   H     0.72232   0.97165   0.10316   0.00000  Uiso   1.00
H128   H     0.52858   0.85267   0.21127   0.00000  Uiso   1.00
H129   H     0.15621   0.06181   0.43428   0.00000  Uiso   1.00
O130   O     0.60894   0.87683   0.13694   0.00000  Uiso   1.00
O131   O     0.66671   0.72074   0.27878   0.00000  Uiso   1.00
O132   O     0.17818   0.99513   0.57136   0.00000  Uiso   1.00
N133   N     0.77313   0.82060   0.23492   0.00000  Uiso   1.00
N134   N     0.52692   0.70936   0.33598   0.00000  Uiso   1.00
N135   N     0.17882   0.90488   0.54448   0.00000  Uiso   1.00
N136   N     0.75640   0.92585   0.14940   0.00000  Uiso   1.00
N137   N     0.51018   0.81462   0.25046   0.00000  Uiso   1.00
N138   N     0.16209   0.01014   0.45897   0.00000  Uiso   1.00
C139   C     0.02507   0.17970   0.19684   0.00000  Uiso   1.00
C140   C     0.10485   0.15011   0.16592   0.00000  Uiso   1.00
C141   C     0.22107   0.11435   0.19849   0.00000  Uiso   1.00
C142   C     0.27902   0.09147   0.16148   0.00000  Uiso   1.00
C143   C     0.41145   0.04360   0.12370   0.00000  Uiso   1.00
C144   C     0.92815   0.14648   0.19697   0.00000  Uiso   1.00
C145   C     0.89580   0.10767   0.25565   0.00000  Uiso   1.00
C146   C     0.80499   0.08173   0.24478   0.00000  Uiso   1.00
C147   C     0.66304   0.02825   0.25520   0.00000  Uiso   1.00
C148   C     0.97110   0.25824   0.14290   0.00000  Uiso   1.00
C149   C     0.97483   0.31342   0.15612   0.00000  Uiso   1.00
C150   C     0.92015   0.38158   0.09973   0.00000  Uiso   1.00
C151   C     0.84489   0.50164   0.02619   0.00000  Uiso   1.00
C152   C     0.92129   0.20266   0.07319   0.00000  Uiso   1.00
C153   C     0.04847   0.16258   0.09875   0.00000  Uiso   1.00
C154   C     0.10625   0.13975   0.06168   0.00000  Uiso   1.00
C155   C     0.22255   0.10396   0.09420   0.00000  Uiso   1.00
C156   C     0.87178   0.15894   0.12981   0.00000  Uiso   1.00
C157   C     0.78098   0.13306   0.11884   0.00000  Uiso   1.00
C158   C     0.74851   0.09422   0.17750   0.00000  Uiso   1.00
C159   C     0.91473   0.27071   0.07573   0.00000  Uiso   1.00
C160   C     0.86002   0.33881   0.01931   0.00000  Uiso   1.00
C161   C     0.86368   0.39407   0.03244   0.00000  Uiso   1.00
H162   H     0.06895   0.17000   0.24913   0.00000  Uiso   1.00
H163   H     0.26467   0.10471   0.25047   0.00000  Uiso   1.00
H164   H     0.93944   0.09803   0.30762   0.00000  Uiso   1.00
H165   H     0.01846   0.30375   0.20811   0.00000  Uiso   1.00
H166   H     0.45678   0.03780   0.22235   0.00000  Uiso   1.00
H167   H     0.77100   0.02374   0.34285   0.00000  Uiso   1.00
H168   H     0.93763   0.45754   0.13300   0.00000  Uiso   1.00
H169   H     0.87740   0.21236   0.02089   0.00000  Uiso   1.00
H170   H     0.06260   0.14940   0.00971   0.00000  Uiso   1.00
H171   H     0.73738   0.14272   0.06686   0.00000  Uiso   1.00
H172   H     0.81640   0.34843   0.96734   0.00000  Uiso   1.00
H173   H     0.29278   0.07407   0.02694   0.00000  Uiso   1.00
H174   H     0.60699   0.06001   0.14744   0.00000  Uiso   1.00
H175   H     0.77363   0.49380   0.93759   0.00000  Uiso   1.00
O176   O     0.50006   0.01374   0.12141   0.00000  Uiso   1.00
O177   O     0.60033   0.99530   0.27950   0.00000  Uiso   1.00
O178   O     0.81896   0.56442   0.00418   0.00000  Uiso   1.00
N179   N     0.39277   0.05500   0.17789   0.00000  Uiso   1.00
N180   N     0.75161   0.04184   0.29055   0.00000  Uiso   1.00
N181   N     0.90738   0.44740   0.09436   0.00000  Uiso   1.00
N182   N     0.30453   0.07451   0.07274   0.00000  Uiso   1.00
N183   N     0.66337   0.06135   0.18540   0.00000  Uiso   1.00
N184   N     0.81913   0.46691   0.98921   0.00000  Uiso   1.00
C185   C     0.20781   0.61965   0.18235   0.00000  Uiso   1.00
C186   C     0.25841   0.68052   0.15260   0.00000  Uiso   1.00
C187   C     0.33871   0.68411   0.11665   0.00000  Uiso   1.00
C188   C     0.37421   0.74428   0.09364   0.00000  Uiso   1.00
C189   C     0.45933   0.83050   0.04551   0.00000  Uiso   1.00
C190   C     0.07821   0.65227   0.14935   0.00000  Uiso   1.00
C191   C     0.00699   0.63211   0.11068   0.00000  Uiso   1.00
C192   C     0.89080   0.66849   0.08495   0.00000  Uiso   1.00
C193   C     0.69614   0.71083   0.03182   0.00000  Uiso   1.00
C194   C     0.23217   0.59503   0.26090   0.00000  Uiso   1.00
C195   C     0.29038   0.52672   0.31602   0.00000  Uiso   1.00
C196   C     0.30379   0.51490   0.38421   0.00000  Uiso   1.00
C197   C     0.34818   0.46835   0.50429   0.00000  Uiso   1.00
C198   C     0.12810   0.72013   0.20543   0.00000  Uiso   1.00
C199   C     0.21511   0.73509   0.16514   0.00000  Uiso   1.00
C200   C     0.25051   0.79527   0.14219   0.00000  Uiso   1.00
C201   C     0.33085   0.79894   0.10621   0.00000  Uiso   1.00
C202   C     0.03491   0.70685   0.16189   0.00000  Uiso   1.00
C203   C     0.91880   0.74327   0.13622   0.00000  Uiso   1.00
C204   C     0.84742   0.72316   0.09751   0.00000  Uiso   1.00
C205   C     0.18888   0.64960   0.27344   0.00000  Uiso   1.00
C206   C     0.20219   0.63788   0.34156   0.00000  Uiso   1.00
C207   C     0.26041   0.56957   0.39677   0.00000  Uiso   1.00
H208   H     0.24151   0.57717   0.17259   0.00000  Uiso   1.00
H209   H     0.37218   0.64187   0.10695   0.00000  Uiso   1.00
H210   H     0.04052   0.58987   0.10099   0.00000  Uiso   1.00
H211   H     0.32387   0.48450   0.30630   0.00000  Uiso   1.00
H212   H     0.49793   0.73768   0.03969   0.00000  Uiso   1.00
H213   H     0.79860   0.62802   0.02714   0.00000  Uiso   1.00
H214   H     0.39609   0.40583   0.46008   0.00000  Uiso   1.00
H215   H     0.09438   0.76261   0.21519   0.00000  Uiso   1.00
H216   H     0.21699   0.83749   0.15189   0.00000  Uiso   1.00
H217   H     0.88532   0.78549   0.14593   0.00000  Uiso   1.00
H218   H     0.16867   0.68012   0.35124   0.00000  Uiso   1.00
H219   H     0.37197   0.89645   0.07616   0.00000  Uiso   1.00
H220   H     0.67263   0.78679   0.06361   0.00000  Uiso   1.00
H221   H     0.27013   0.56460   0.49656   0.00000  Uiso   1.00
O222   O     0.51823   0.86299   0.01549   0.00000  Uiso   1.00
O223   O     0.60073   0.71911   0.99904   0.00000  Uiso   1.00
O224   O     0.38463   0.42760   0.56705   0.00000  Uiso   1.00
N225   N     0.45148   0.76476   0.05697   0.00000  Uiso   1.00
N226   N     0.79764   0.66225   0.04523   0.00000  Uiso   1.00
N227   N     0.35622   0.45451   0.44999   0.00000  Uiso   1.00
N228   N     0.38370   0.85020   0.07660   0.00000  Uiso   1.00
N229   N     0.72986   0.74768   0.06486   0.00000  Uiso   1.00
N230   N     0.28844   0.53995   0.46962   0.00000  Uiso   1.00
C231   C     0.83897   0.19764   0.62068   0.00000  Uiso   1.00
C232   C     0.94997   0.16688   0.68137   0.00000  Uiso   1.00
C233   C     0.03397   0.19966   0.68477   0.00000  Uiso   1.00
C234   C     0.12916   0.16279   0.74480   0.00000  Uiso   1.00
C235   C     0.29986   0.12528   0.83074   0.00000  Uiso   1.00
C236   C     0.74223   0.19754   0.65353   0.00000  Uiso   1.00
C237   C     0.65156   0.25610   0.63351   0.00000  Uiso   1.00
C238   C     0.57186   0.24503   0.67009   0.00000  Uiso   1.00
C239   C     0.42000   0.25512   0.71277   0.00000  Uiso   1.00
C240   C     0.83818   0.14366   0.59607   0.00000  Uiso   1.00
C241   C     0.82816   0.15691   0.52773   0.00000  Uiso   1.00
C242   C     0.82922   0.10047   0.51593   0.00000  Uiso   1.00
C243   C     0.82634   0.02689   0.46939   0.00000  Uiso   1.00
C244   C     0.85864   0.07386   0.72125   0.00000  Uiso   1.00
C245   C     0.96065   0.09965   0.73599   0.00000  Uiso   1.00
C246   C     0.05574   0.06272   0.79603   0.00000  Uiso   1.00
C247   C     0.13987   0.09543   0.79952   0.00000  Uiso   1.00
C248   C     0.75291   0.13032   0.70815   0.00000  Uiso   1.00
C249   C     0.67333   0.11916   0.74477   0.00000  Uiso   1.00
C250   C     0.58256   0.17768   0.72481   0.00000  Uiso   1.00
C251   C     0.84887   0.07642   0.65069   0.00000  Uiso   1.00
C252   C     0.84994   0.01996   0.63899   0.00000  Uiso   1.00
C253   C     0.83992   0.03312   0.57065   0.00000  Uiso   1.00
H254   H     0.83064   0.24998   0.57816   0.00000  Uiso   1.00
H255   H     0.02566   0.25170   0.64249   0.00000  Uiso   1.00
H256   H     0.64330   0.30812   0.59123   0.00000  Uiso   1.00
H257   H     0.81989   0.20894   0.48547   0.00000  Uiso   1.00
H258   H     0.24657   0.22396   0.73792   0.00000  Uiso   1.00
H259   H     0.44033   0.34293   0.62981   0.00000  Uiso   1.00
H260   H     0.81269   0.13379   0.40680   0.00000  Uiso   1.00
H261   H     0.86696   0.02151   0.76377   0.00000  Uiso   1.00
H262   H     0.06398   0.01069   0.83829   0.00000  Uiso   1.00
H263   H     0.68162   0.06712   0.78703   0.00000  Uiso   1.00
H264   H     0.85821   0.96794   0.68127   0.00000  Uiso   1.00
H265   H     0.27768   0.02835   0.89684   0.00000  Uiso   1.00
H266   H     0.47142   0.14733   0.78873   0.00000  Uiso   1.00
H267   H     0.84379   0.93819   0.56572   0.00000  Uiso   1.00
O268   O     0.39106   0.12317   0.86306   0.00000  Uiso   1.00
O269   O     0.33329   0.27926   0.72122   0.00000  Uiso   1.00
O270   O     0.82182   0.00487   0.42863   0.00000  Uiso   1.00
N271   N     0.22687   0.17940   0.76508   0.00000  Uiso   1.00
N272   N     0.47308   0.29064   0.66402   0.00000  Uiso   1.00
N273   N     0.82118   0.09512   0.45552   0.00000  Uiso   1.00
N274   N     0.24360   0.07415   0.85060   0.00000  Uiso   1.00
N275   N     0.48982   0.18538   0.74954   0.00000  Uiso   1.00
N276   N     0.83791   0.98986   0.54103   0.00000  Uiso   1.00
