data_job_02928
_audit_creation_date              2018-12-19
_audit_creation_method            'Materials Studio'
_symmetry_space_group_name_H-M    'P1'
_symmetry_Int_Tables_number       1
_symmetry_cell_setting            triclinic
loop_
_symmetry_equiv_pos_as_xyz
  x,y,z
_cell_length_a                    9.3043
_cell_length_b                    19.3055
_cell_length_c                    15.2266
_cell_angle_alpha                 90.0000
_cell_angle_beta                  90.0000
_cell_angle_gamma                 90.0000
loop_
_atom_site_label
_atom_site_type_symbol
_atom_site_fract_x
_atom_site_fract_y
_atom_site_fract_z
_atom_site_U_iso_or_equiv
_atom_site_adp_type
_atom_site_occupancy
C1     C     0.10919   0.58484   0.59448   0.00000  Uiso   1.00
C2     C     0.14567   0.51158   0.62459   0.00000  Uiso   1.00
C3     C     0.24172   0.49435   0.69080   0.00000  Uiso   1.00
C4     C     0.26019   0.42437   0.70847   0.00000  Uiso   1.00
C5     C     0.32828   0.31836   0.76233   0.00000  Uiso   1.00
C6     C     0.14073   0.58689   0.49623   0.00000  Uiso   1.00
C7     C     0.23262   0.63299   0.45453   0.00000  Uiso   1.00
C8     C     0.24691   0.62639   0.36415   0.00000  Uiso   1.00
C9     C     0.30726   0.63733   0.21873   0.00000  Uiso   1.00
C10    C     0.94661   0.59186   0.60342   0.00000  Uiso   1.00
C11    C     0.87528   0.64215   0.65183   0.00000  Uiso   1.00
C12    C     0.72614   0.63975   0.65167   0.00000  Uiso   1.00
C13    C     0.48509   0.65840   0.67268   0.00000  Uiso   1.00
C14    C     0.97117   0.49118   0.50812   0.00000  Uiso   1.00
C15    C     0.07069   0.46071   0.57768   0.00000  Uiso   1.00
C16    C     0.08901   0.39073   0.59526   0.00000  Uiso   1.00
C17    C     0.18508   0.37340   0.66149   0.00000  Uiso   1.00
C18    C     0.06576   0.53602   0.44933   0.00000  Uiso   1.00
C19    C     0.07991   0.52936   0.35899   0.00000  Uiso   1.00
C20    C     0.17181   0.57543   0.31716   0.00000  Uiso   1.00
C21    C     0.87164   0.54099   0.55652   0.00000  Uiso   1.00
C22    C     0.72257   0.53852   0.55628   0.00000  Uiso   1.00
C23    C     0.65103   0.58879   0.60468   0.00000  Uiso   1.00
H24    H     0.16756   0.62445   0.63099   0.00000  Uiso   1.00
H25    H     0.29973   0.53374   0.72708   0.00000  Uiso   1.00
H26    H     0.29061   0.67235   0.49084   0.00000  Uiso   1.00
H27    H     0.93333   0.68150   0.68811   0.00000  Uiso   1.00
H28    H     0.41324   0.41074   0.81291   0.00000  Uiso   1.00
H29    H     0.39398   0.70302   0.31479   0.00000  Uiso   1.00
H30    H     0.64058   0.72233   0.73077   0.00000  Uiso   1.00
H31    H     0.91280   0.45158   0.47160   0.00000  Uiso   1.00
H32    H     0.03098   0.35138   0.55895   0.00000  Uiso   1.00
H33    H     0.02187   0.48999   0.32271   0.00000  Uiso   1.00
H34    H     0.66459   0.49915   0.51998   0.00000  Uiso   1.00
H35    H     0.19512   0.26272   0.67644   0.00000  Uiso   1.00
H36    H     0.17586   0.55502   0.17832   0.00000  Uiso   1.00
H37    H     0.42246   0.57432   0.59430   0.00000  Uiso   1.00
O38    O     0.38656   0.27393   0.80499   0.00000  Uiso   1.00
O39    O     0.36127   0.65742   0.15148   0.00000  Uiso   1.00
O40    O     0.37284   0.68274   0.69724   0.00000  Uiso   1.00
N41    N     0.34566   0.38965   0.76881   0.00000  Uiso   1.00
N42    N     0.32768   0.66292   0.30310   0.00000  Uiso   1.00
N43    N     0.62331   0.68098   0.69199   0.00000  Uiso   1.00
N44    N     0.22829   0.31001   0.69538   0.00000  Uiso   1.00
N45    N     0.21031   0.58327   0.22967   0.00000  Uiso   1.00
N46    N     0.50594   0.60134   0.61856   0.00000  Uiso   1.00
C47    C     0.89081   0.41516   0.09448   0.00000  Uiso   1.00
C48    C     0.85433   0.48842   0.12459   0.00000  Uiso   1.00
C49    C     0.75828   0.50565   0.19080   0.00000  Uiso   1.00
C50    C     0.73981   0.57563   0.20847   0.00000  Uiso   1.00
C51    C     0.67172   0.68164   0.26233   0.00000  Uiso   1.00
C52    C     0.85927   0.41311   0.99623   0.00000  Uiso   1.00
C53    C     0.76738   0.36701   0.95453   0.00000  Uiso   1.00
C54    C     0.75309   0.37361   0.86415   0.00000  Uiso   1.00
C55    C     0.69274   0.36267   0.71873   0.00000  Uiso   1.00
C56    C     0.05339   0.40814   0.10342   0.00000  Uiso   1.00
C57    C     0.12472   0.35785   0.15183   0.00000  Uiso   1.00
C58    C     0.27386   0.36025   0.15167   0.00000  Uiso   1.00
C59    C     0.51491   0.34160   0.17268   0.00000  Uiso   1.00
C60    C     0.02883   0.50882   0.00812   0.00000  Uiso   1.00
C61    C     0.92931   0.53929   0.07768   0.00000  Uiso   1.00
C62    C     0.91099   0.60927   0.09526   0.00000  Uiso   1.00
C63    C     0.81492   0.62660   0.16149   0.00000  Uiso   1.00
C64    C     0.93424   0.46398   0.94933   0.00000  Uiso   1.00
C65    C     0.92009   0.47064   0.85899   0.00000  Uiso   1.00
C66    C     0.82819   0.42457   0.81716   0.00000  Uiso   1.00
C67    C     0.12836   0.45901   0.05652   0.00000  Uiso   1.00
C68    C     0.27743   0.46148   0.05628   0.00000  Uiso   1.00
C69    C     0.34897   0.41121   0.10468   0.00000  Uiso   1.00
H70    H     0.83244   0.37555   0.13099   0.00000  Uiso   1.00
H71    H     0.70027   0.46626   0.22708   0.00000  Uiso   1.00
H72    H     0.70939   0.32765   0.99084   0.00000  Uiso   1.00
H73    H     0.06667   0.31850   0.18811   0.00000  Uiso   1.00
H74    H     0.58676   0.58926   0.31291   0.00000  Uiso   1.00
H75    H     0.60602   0.29698   0.81479   0.00000  Uiso   1.00
H76    H     0.35942   0.27767   0.23077   0.00000  Uiso   1.00
H77    H     0.08720   0.54842   0.97160   0.00000  Uiso   1.00
H78    H     0.96902   0.64862   0.05895   0.00000  Uiso   1.00
H79    H     0.97813   0.51001   0.82271   0.00000  Uiso   1.00
H80    H     0.33541   0.50085   0.01998   0.00000  Uiso   1.00
H81    H     0.80488   0.73728   0.17644   0.00000  Uiso   1.00
H82    H     0.82414   0.44498   0.67832   0.00000  Uiso   1.00
H83    H     0.57754   0.42568   0.09430   0.00000  Uiso   1.00
O84    O     0.61344   0.72607   0.30499   0.00000  Uiso   1.00
O85    O     0.63873   0.34258   0.65148   0.00000  Uiso   1.00
O86    O     0.62716   0.31726   0.19724   0.00000  Uiso   1.00
N87    N     0.65434   0.61035   0.26881   0.00000  Uiso   1.00
N88    N     0.67232   0.33708   0.80310   0.00000  Uiso   1.00
N89    N     0.37669   0.31902   0.19199   0.00000  Uiso   1.00
N90    N     0.77171   0.68999   0.19538   0.00000  Uiso   1.00
N91    N     0.78969   0.41673   0.72967   0.00000  Uiso   1.00
N92    N     0.49406   0.39866   0.11856   0.00000  Uiso   1.00
C93    C     0.60919   0.91516   0.59448   0.00000  Uiso   1.00
C94    C     0.64567   0.98842   0.62459   0.00000  Uiso   1.00
C95    C     0.74172   0.00565   0.69080   0.00000  Uiso   1.00
C96    C     0.76019   0.07563   0.70847   0.00000  Uiso   1.00
C97    C     0.82828   0.18164   0.76233   0.00000  Uiso   1.00
C98    C     0.64073   0.91311   0.49623   0.00000  Uiso   1.00
C99    C     0.73262   0.86701   0.45453   0.00000  Uiso   1.00
C100   C     0.74691   0.87361   0.36415   0.00000  Uiso   1.00
C101   C     0.80726   0.86267   0.21873   0.00000  Uiso   1.00
C102   C     0.44661   0.90814   0.60342   0.00000  Uiso   1.00
C103   C     0.37528   0.85785   0.65183   0.00000  Uiso   1.00
C104   C     0.22614   0.86025   0.65167   0.00000  Uiso   1.00
C105   C     0.98509   0.84160   0.67268   0.00000  Uiso   1.00
C106   C     0.47117   0.00882   0.50812   0.00000  Uiso   1.00
C107   C     0.57069   0.03929   0.57768   0.00000  Uiso   1.00
C108   C     0.58901   0.10927   0.59526   0.00000  Uiso   1.00
C109   C     0.68508   0.12660   0.66149   0.00000  Uiso   1.00
C110   C     0.56576   0.96398   0.44933   0.00000  Uiso   1.00
C111   C     0.57991   0.97064   0.35899   0.00000  Uiso   1.00
C112   C     0.67181   0.92457   0.31716   0.00000  Uiso   1.00
C113   C     0.37164   0.95901   0.55652   0.00000  Uiso   1.00
C114   C     0.22257   0.96148   0.55628   0.00000  Uiso   1.00
C115   C     0.15103   0.91121   0.60468   0.00000  Uiso   1.00
H116   H     0.66756   0.87555   0.63099   0.00000  Uiso   1.00
H117   H     0.79973   0.96626   0.72708   0.00000  Uiso   1.00
H118   H     0.79061   0.82765   0.49084   0.00000  Uiso   1.00
H119   H     0.43333   0.81850   0.68811   0.00000  Uiso   1.00
H120   H     0.91324   0.08926   0.81291   0.00000  Uiso   1.00
H121   H     0.89398   0.79698   0.31479   0.00000  Uiso   1.00
H122   H     0.14058   0.77767   0.73077   0.00000  Uiso   1.00
H123   H     0.41280   0.04842   0.47160   0.00000  Uiso   1.00
H124   H     0.53098   0.14862   0.55895   0.00000  Uiso   1.00
H125   H     0.52187   0.01001   0.32271   0.00000  Uiso   1.00
H126   H     0.16459   0.00085   0.51998   0.00000  Uiso   1.00
H127   H     0.69512   0.23728   0.67644   0.00000  Uiso   1.00
H128   H     0.67586   0.94498   0.17832   0.00000  Uiso   1.00
H129   H     0.92246   0.92568   0.59430   0.00000  Uiso   1.00
O130   O     0.88656   0.22607   0.80499   0.00000  Uiso   1.00
O131   O     0.86127   0.84258   0.15148   0.00000  Uiso   1.00
O132   O     0.87284   0.81726   0.69724   0.00000  Uiso   1.00
N133   N     0.84566   0.11035   0.76881   0.00000  Uiso   1.00
N134   N     0.82768   0.83708   0.30310   0.00000  Uiso   1.00
N135   N     0.12331   0.81902   0.69199   0.00000  Uiso   1.00
N136   N     0.72829   0.18999   0.69538   0.00000  Uiso   1.00
N137   N     0.71031   0.91673   0.22967   0.00000  Uiso   1.00
N138   N     0.00594   0.89866   0.61856   0.00000  Uiso   1.00
C139   C     0.39081   0.08484   0.09448   0.00000  Uiso   1.00
C140   C     0.35433   0.01158   0.12459   0.00000  Uiso   1.00
C141   C     0.25828   0.99435   0.19080   0.00000  Uiso   1.00
C142   C     0.23981   0.92437   0.20847   0.00000  Uiso   1.00
C143   C     0.17172   0.81836   0.26233   0.00000  Uiso   1.00
C144   C     0.35927   0.08689   0.99623   0.00000  Uiso   1.00
C145   C     0.26738   0.13299   0.95453   0.00000  Uiso   1.00
C146   C     0.25309   0.12639   0.86415   0.00000  Uiso   1.00
C147   C     0.19274   0.13733   0.71873   0.00000  Uiso   1.00
C148   C     0.55339   0.09186   0.10342   0.00000  Uiso   1.00
C149   C     0.62472   0.14215   0.15183   0.00000  Uiso   1.00
C150   C     0.77386   0.13975   0.15167   0.00000  Uiso   1.00
C151   C     0.01491   0.15840   0.17268   0.00000  Uiso   1.00
C152   C     0.52883   0.99118   0.00812   0.00000  Uiso   1.00
C153   C     0.42931   0.96071   0.07768   0.00000  Uiso   1.00
C154   C     0.41099   0.89073   0.09526   0.00000  Uiso   1.00
C155   C     0.31492   0.87340   0.16149   0.00000  Uiso   1.00
C156   C     0.43424   0.03602   0.94933   0.00000  Uiso   1.00
C157   C     0.42009   0.02936   0.85899   0.00000  Uiso   1.00
C158   C     0.32819   0.07543   0.81716   0.00000  Uiso   1.00
C159   C     0.62836   0.04099   0.05652   0.00000  Uiso   1.00
C160   C     0.77743   0.03852   0.05628   0.00000  Uiso   1.00
C161   C     0.84897   0.08879   0.10468   0.00000  Uiso   1.00
H162   H     0.33244   0.12445   0.13099   0.00000  Uiso   1.00
H163   H     0.20027   0.03374   0.22708   0.00000  Uiso   1.00
H164   H     0.20939   0.17235   0.99084   0.00000  Uiso   1.00
H165   H     0.56667   0.18150   0.18811   0.00000  Uiso   1.00
H166   H     0.08676   0.91074   0.31291   0.00000  Uiso   1.00
H167   H     0.10602   0.20302   0.81479   0.00000  Uiso   1.00
H168   H     0.85942   0.22233   0.23077   0.00000  Uiso   1.00
H169   H     0.58720   0.95158   0.97160   0.00000  Uiso   1.00
H170   H     0.46902   0.85138   0.05895   0.00000  Uiso   1.00
H171   H     0.47813   0.98999   0.82271   0.00000  Uiso   1.00
H172   H     0.83541   0.99915   0.01998   0.00000  Uiso   1.00
H173   H     0.30488   0.76272   0.17644   0.00000  Uiso   1.00
H174   H     0.32414   0.05502   0.67832   0.00000  Uiso   1.00
H175   H     0.07754   0.07432   0.09430   0.00000  Uiso   1.00
O176   O     0.11344   0.77393   0.30499   0.00000  Uiso   1.00
O177   O     0.13873   0.15742   0.65148   0.00000  Uiso   1.00
O178   O     0.12716   0.18274   0.19724   0.00000  Uiso   1.00
N179   N     0.15434   0.88965   0.26881   0.00000  Uiso   1.00
N180   N     0.17232   0.16292   0.80310   0.00000  Uiso   1.00
N181   N     0.87669   0.18098   0.19199   0.00000  Uiso   1.00
N182   N     0.27171   0.81001   0.19538   0.00000  Uiso   1.00
N183   N     0.28969   0.08327   0.72967   0.00000  Uiso   1.00
N184   N     0.99406   0.10134   0.11856   0.00000  Uiso   1.00
