data_job_02274
_audit_creation_date              2018-12-19
_audit_creation_method            'Materials Studio'
_symmetry_space_group_name_H-M    'P1'
_symmetry_Int_Tables_number       1
_symmetry_cell_setting            triclinic
loop_
_symmetry_equiv_pos_as_xyz
  x,y,z
_cell_length_a                    25.5968
_cell_length_b                    12.2094
_cell_length_c                    7.3532
_cell_angle_alpha                 90.0000
_cell_angle_beta                  90.0000
_cell_angle_gamma                 90.0000
loop_
_atom_site_label
_atom_site_type_symbol
_atom_site_fract_x
_atom_site_fract_y
_atom_site_fract_z
_atom_site_U_iso_or_equiv
_atom_site_adp_type
_atom_site_occupancy
C1     C     0.89477   0.22061   0.54113   0.00000  Uiso   1.00
C2     C     0.89726   0.12392   0.67212   0.00000  Uiso   1.00
C3     C     0.88639   0.01567   0.62882   0.00000  Uiso   1.00
C4     C     0.89090   0.93933   0.76787   0.00000  Uiso   1.00
C5     C     0.89247   0.78450   0.94453   0.00000  Uiso   1.00
C6     C     0.85721   0.30284   0.62640   0.00000  Uiso   1.00
C7     C     0.81268   0.34502   0.54464   0.00000  Uiso   1.00
C8     C     0.78348   0.41930   0.64520   0.00000  Uiso   1.00
C9     C     0.72291   0.54230   0.75082   0.00000  Uiso   1.00
C10    C     0.94858   0.27409   0.54687   0.00000  Uiso   1.00
C11    C     0.98087   0.29213   0.39824   0.00000  Uiso   1.00
C12    C     0.02860   0.34223   0.43184   0.00000  Uiso   1.00
C13    C     0.10989   0.42059   0.41397   0.00000  Uiso   1.00
C14    C     0.92212   0.27755   0.86508   0.00000  Uiso   1.00
C15    C     0.91211   0.15485   0.84808   0.00000  Uiso   1.00
C16    C     0.91664   0.07866   0.98724   0.00000  Uiso   1.00
C17    C     0.90578   0.97030   0.94415   0.00000  Uiso   1.00
C18    C     0.87206   0.33376   0.80235   0.00000  Uiso   1.00
C19    C     0.84293   0.40801   0.90306   0.00000  Uiso   1.00
C20    C     0.79836   0.45028   0.82148   0.00000  Uiso   1.00
C21    C     0.96344   0.30501   0.72283   0.00000  Uiso   1.00
C22    C     0.01112   0.35511   0.75666   0.00000  Uiso   1.00
C23    C     0.04348   0.37321   0.60811   0.00000  Uiso   1.00
H24    H     0.88321   0.19654   0.40414   0.00000  Uiso   1.00
H25    H     0.87489   0.99177   0.49263   0.00000  Uiso   1.00
H26    H     0.80120   0.32108   0.40846   0.00000  Uiso   1.00
H27    H     0.96936   0.26819   0.26209   0.00000  Uiso   1.00
H28    H     0.87220   0.77839   0.66836   0.00000  Uiso   1.00
H29    H     0.71682   0.47278   0.49086   0.00000  Uiso   1.00
H30    H     0.07144   0.36125   0.18220   0.00000  Uiso   1.00
H31    H     0.93368   0.30162   0.00208   0.00000  Uiso   1.00
H32    H     0.92813   0.10261   0.12339   0.00000  Uiso   1.00
H33    H     0.85444   0.43192   0.03922   0.00000  Uiso   1.00
H34    H     0.02260   0.37903   0.89284   0.00000  Uiso   1.00
H35    H     0.91541   0.86835   0.18031   0.00000  Uiso   1.00
H36    H     0.76003   0.56275   0.00280   0.00000  Uiso   1.00
H37    H     0.11465   0.45121   0.69415   0.00000  Uiso   1.00
O38    O     0.88922   0.69056   0.99337   0.00000  Uiso   1.00
O39    O     0.68539   0.60159   0.76047   0.00000  Uiso   1.00
O40    O     0.15063   0.45526   0.35552   0.00000  Uiso   1.00
N41    N     0.88314   0.82687   0.77220   0.00000  Uiso   1.00
N42    N     0.73787   0.47607   0.60625   0.00000  Uiso   1.00
N43    N     0.06939   0.37183   0.31767   0.00000  Uiso   1.00
N44    N     0.90639   0.87528   0.04767   0.00000  Uiso   1.00
N45    N     0.76112   0.52448   0.88172   0.00000  Uiso   1.00
N46    N     0.09265   0.42023   0.59314   0.00000  Uiso   1.00
C47    C     0.10523   0.77939   0.54113   0.00000  Uiso   1.00
C48    C     0.10274   0.87608   0.67212   0.00000  Uiso   1.00
C49    C     0.11361   0.98433   0.62882   0.00000  Uiso   1.00
C50    C     0.10910   0.06067   0.76787   0.00000  Uiso   1.00
C51    C     0.10753   0.21550   0.94453   0.00000  Uiso   1.00
C52    C     0.14279   0.69716   0.62640   0.00000  Uiso   1.00
C53    C     0.18732   0.65498   0.54464   0.00000  Uiso   1.00
C54    C     0.21652   0.58070   0.64520   0.00000  Uiso   1.00
C55    C     0.27709   0.45770   0.75082   0.00000  Uiso   1.00
C56    C     0.05142   0.72591   0.54687   0.00000  Uiso   1.00
C57    C     0.01913   0.70787   0.39824   0.00000  Uiso   1.00
C58    C     0.97140   0.65777   0.43184   0.00000  Uiso   1.00
C59    C     0.89011   0.57941   0.41397   0.00000  Uiso   1.00
C60    C     0.07788   0.72245   0.86508   0.00000  Uiso   1.00
C61    C     0.08789   0.84515   0.84808   0.00000  Uiso   1.00
C62    C     0.08336   0.92134   0.98724   0.00000  Uiso   1.00
C63    C     0.09422   0.02970   0.94415   0.00000  Uiso   1.00
C64    C     0.12794   0.66624   0.80235   0.00000  Uiso   1.00
C65    C     0.15707   0.59199   0.90306   0.00000  Uiso   1.00
C66    C     0.20164   0.54972   0.82148   0.00000  Uiso   1.00
C67    C     0.03656   0.69499   0.72283   0.00000  Uiso   1.00
C68    C     0.98888   0.64489   0.75666   0.00000  Uiso   1.00
C69    C     0.95652   0.62679   0.60811   0.00000  Uiso   1.00
H70    H     0.11679   0.80346   0.40414   0.00000  Uiso   1.00
H71    H     0.12511   0.00823   0.49263   0.00000  Uiso   1.00
H72    H     0.19880   0.67892   0.40846   0.00000  Uiso   1.00
H73    H     0.03064   0.73181   0.26209   0.00000  Uiso   1.00
H74    H     0.12780   0.22161   0.66836   0.00000  Uiso   1.00
H75    H     0.28318   0.52722   0.49086   0.00000  Uiso   1.00
H76    H     0.92856   0.63875   0.18220   0.00000  Uiso   1.00
H77    H     0.06632   0.69838   0.00208   0.00000  Uiso   1.00
H78    H     0.07187   0.89739   0.12339   0.00000  Uiso   1.00
H79    H     0.14556   0.56808   0.03922   0.00000  Uiso   1.00
H80    H     0.97740   0.62097   0.89284   0.00000  Uiso   1.00
H81    H     0.08459   0.13165   0.18031   0.00000  Uiso   1.00
H82    H     0.23997   0.43725   0.00280   0.00000  Uiso   1.00
H83    H     0.88535   0.54879   0.69415   0.00000  Uiso   1.00
O84    O     0.11078   0.30944   0.99337   0.00000  Uiso   1.00
O85    O     0.31461   0.39841   0.76047   0.00000  Uiso   1.00
O86    O     0.84937   0.54474   0.35552   0.00000  Uiso   1.00
N87    N     0.11686   0.17313   0.77220   0.00000  Uiso   1.00
N88    N     0.26213   0.52393   0.60625   0.00000  Uiso   1.00
N89    N     0.93061   0.62817   0.31767   0.00000  Uiso   1.00
N90    N     0.09361   0.12472   0.04767   0.00000  Uiso   1.00
N91    N     0.23888   0.47552   0.88172   0.00000  Uiso   1.00
N92    N     0.90735   0.57977   0.59314   0.00000  Uiso   1.00
C93    C     0.60523   0.72061   0.45887   0.00000  Uiso   1.00
C94    C     0.60274   0.62392   0.32788   0.00000  Uiso   1.00
C95    C     0.61361   0.51567   0.37118   0.00000  Uiso   1.00
C96    C     0.60910   0.43933   0.23213   0.00000  Uiso   1.00
C97    C     0.60753   0.28450   0.05547   0.00000  Uiso   1.00
C98    C     0.64279   0.80284   0.37360   0.00000  Uiso   1.00
C99    C     0.68732   0.84502   0.45536   0.00000  Uiso   1.00
C100   C     0.71652   0.91930   0.35480   0.00000  Uiso   1.00
C101   C     0.77709   0.04230   0.24918   0.00000  Uiso   1.00
C102   C     0.55142   0.77409   0.45313   0.00000  Uiso   1.00
C103   C     0.51913   0.79213   0.60176   0.00000  Uiso   1.00
C104   C     0.47140   0.84223   0.56816   0.00000  Uiso   1.00
C105   C     0.39011   0.92059   0.58603   0.00000  Uiso   1.00
C106   C     0.57788   0.77755   0.13492   0.00000  Uiso   1.00
C107   C     0.58789   0.65485   0.15192   0.00000  Uiso   1.00
C108   C     0.58336   0.57866   0.01276   0.00000  Uiso   1.00
C109   C     0.59422   0.47030   0.05585   0.00000  Uiso   1.00
C110   C     0.62794   0.83376   0.19765   0.00000  Uiso   1.00
C111   C     0.65707   0.90801   0.09694   0.00000  Uiso   1.00
C112   C     0.70164   0.95028   0.17852   0.00000  Uiso   1.00
C113   C     0.53656   0.80501   0.27717   0.00000  Uiso   1.00
C114   C     0.48888   0.85511   0.24334   0.00000  Uiso   1.00
C115   C     0.45652   0.87321   0.39189   0.00000  Uiso   1.00
H116   H     0.61679   0.69654   0.59586   0.00000  Uiso   1.00
H117   H     0.62511   0.49177   0.50737   0.00000  Uiso   1.00
H118   H     0.69880   0.82108   0.59154   0.00000  Uiso   1.00
H119   H     0.53064   0.76819   0.73791   0.00000  Uiso   1.00
H120   H     0.62780   0.27839   0.33164   0.00000  Uiso   1.00
H121   H     0.78318   0.97278   0.50914   0.00000  Uiso   1.00
H122   H     0.42856   0.86125   0.81780   0.00000  Uiso   1.00
H123   H     0.56632   0.80162   0.99792   0.00000  Uiso   1.00
H124   H     0.57187   0.60261   0.87661   0.00000  Uiso   1.00
H125   H     0.64556   0.93192   0.96078   0.00000  Uiso   1.00
H126   H     0.47740   0.87903   0.10716   0.00000  Uiso   1.00
H127   H     0.58459   0.36835   0.81969   0.00000  Uiso   1.00
H128   H     0.73997   0.06275   0.99720   0.00000  Uiso   1.00
H129   H     0.38535   0.95121   0.30585   0.00000  Uiso   1.00
O130   O     0.61078   0.19056   0.00663   0.00000  Uiso   1.00
O131   O     0.81461   0.10159   0.23953   0.00000  Uiso   1.00
O132   O     0.34937   0.95526   0.64448   0.00000  Uiso   1.00
N133   N     0.61686   0.32687   0.22780   0.00000  Uiso   1.00
N134   N     0.76213   0.97607   0.39375   0.00000  Uiso   1.00
N135   N     0.43061   0.87183   0.68233   0.00000  Uiso   1.00
N136   N     0.59361   0.37528   0.95233   0.00000  Uiso   1.00
N137   N     0.73888   0.02448   0.11828   0.00000  Uiso   1.00
N138   N     0.40735   0.92023   0.40686   0.00000  Uiso   1.00
C139   C     0.39477   0.27939   0.45887   0.00000  Uiso   1.00
C140   C     0.39726   0.37608   0.32788   0.00000  Uiso   1.00
C141   C     0.38639   0.48433   0.37118   0.00000  Uiso   1.00
C142   C     0.39090   0.56067   0.23213   0.00000  Uiso   1.00
C143   C     0.39247   0.71550   0.05547   0.00000  Uiso   1.00
C144   C     0.35721   0.19716   0.37360   0.00000  Uiso   1.00
C145   C     0.31268   0.15498   0.45536   0.00000  Uiso   1.00
C146   C     0.28348   0.08070   0.35480   0.00000  Uiso   1.00
C147   C     0.22291   0.95770   0.24918   0.00000  Uiso   1.00
C148   C     0.44858   0.22591   0.45313   0.00000  Uiso   1.00
C149   C     0.48087   0.20787   0.60176   0.00000  Uiso   1.00
C150   C     0.52860   0.15777   0.56816   0.00000  Uiso   1.00
C151   C     0.60989   0.07941   0.58603   0.00000  Uiso   1.00
C152   C     0.42212   0.22245   0.13492   0.00000  Uiso   1.00
C153   C     0.41211   0.34515   0.15192   0.00000  Uiso   1.00
C154   C     0.41664   0.42134   0.01276   0.00000  Uiso   1.00
C155   C     0.40578   0.52970   0.05585   0.00000  Uiso   1.00
C156   C     0.37206   0.16624   0.19765   0.00000  Uiso   1.00
C157   C     0.34293   0.09199   0.09694   0.00000  Uiso   1.00
C158   C     0.29836   0.04972   0.17852   0.00000  Uiso   1.00
C159   C     0.46344   0.19499   0.27717   0.00000  Uiso   1.00
C160   C     0.51112   0.14489   0.24334   0.00000  Uiso   1.00
C161   C     0.54348   0.12679   0.39189   0.00000  Uiso   1.00
H162   H     0.38321   0.30346   0.59586   0.00000  Uiso   1.00
H163   H     0.37489   0.50823   0.50737   0.00000  Uiso   1.00
H164   H     0.30120   0.17892   0.59154   0.00000  Uiso   1.00
H165   H     0.46936   0.23181   0.73791   0.00000  Uiso   1.00
H166   H     0.37220   0.72161   0.33164   0.00000  Uiso   1.00
H167   H     0.21682   0.02722   0.50914   0.00000  Uiso   1.00
H168   H     0.57144   0.13875   0.81780   0.00000  Uiso   1.00
H169   H     0.43368   0.19838   0.99792   0.00000  Uiso   1.00
H170   H     0.42813   0.39739   0.87661   0.00000  Uiso   1.00
H171   H     0.35444   0.06808   0.96078   0.00000  Uiso   1.00
H172   H     0.52260   0.12097   0.10716   0.00000  Uiso   1.00
H173   H     0.41541   0.63165   0.81969   0.00000  Uiso   1.00
H174   H     0.26003   0.93725   0.99720   0.00000  Uiso   1.00
H175   H     0.61465   0.04879   0.30585   0.00000  Uiso   1.00
O176   O     0.38922   0.80944   0.00663   0.00000  Uiso   1.00
O177   O     0.18539   0.89841   0.23953   0.00000  Uiso   1.00
O178   O     0.65063   0.04474   0.64448   0.00000  Uiso   1.00
N179   N     0.38314   0.67313   0.22780   0.00000  Uiso   1.00
N180   N     0.23787   0.02393   0.39375   0.00000  Uiso   1.00
N181   N     0.56939   0.12817   0.68233   0.00000  Uiso   1.00
N182   N     0.40639   0.62472   0.95233   0.00000  Uiso   1.00
N183   N     0.26112   0.97552   0.11828   0.00000  Uiso   1.00
N184   N     0.59265   0.07977   0.40686   0.00000  Uiso   1.00
