data_job_04846
_audit_creation_date              2018-12-19
_audit_creation_method            'Materials Studio'
_symmetry_space_group_name_H-M    'P1'
_symmetry_Int_Tables_number       1
_symmetry_cell_setting            triclinic
loop_
_symmetry_equiv_pos_as_xyz
  x,y,z
_cell_length_a                    21.6027
_cell_length_b                    8.3266
_cell_length_c                    28.3172
_cell_angle_alpha                 90.0000
_cell_angle_beta                  70.8400
_cell_angle_gamma                 90.0000
loop_
_atom_site_label
_atom_site_type_symbol
_atom_site_fract_x
_atom_site_fract_y
_atom_site_fract_z
_atom_site_U_iso_or_equiv
_atom_site_adp_type
_atom_site_occupancy
C1     C     0.76481   0.62063   0.62612   0.00000  Uiso   1.00
C2     C     0.82128   0.62932   0.57680   0.00000  Uiso   1.00
C3     C     0.84319   0.76711   0.54871   0.00000  Uiso   1.00
C4     C     0.89551   0.74996   0.50468   0.00000  Uiso   1.00
C5     C     0.97871   0.78619   0.43041   0.00000  Uiso   1.00
C6     C     0.71695   0.49707   0.61835   0.00000  Uiso   1.00
C7     C     0.65115   0.52367   0.62520   0.00000  Uiso   1.00
C8     C     0.61565   0.39518   0.61614   0.00000  Uiso   1.00
C9     C     0.53687   0.22606   0.60642   0.00000  Uiso   1.00
C10    C     0.79317   0.54671   0.66385   0.00000  Uiso   1.00
C11    C     0.79144   0.61502   0.70897   0.00000  Uiso   1.00
C12    C     0.82010   0.52831   0.73823   0.00000  Uiso   1.00
C13    C     0.85966   0.43628   0.79916   0.00000  Uiso   1.00
C14    C     0.81875   0.34515   0.59787   0.00000  Uiso   1.00
C15    C     0.85057   0.47968   0.56145   0.00000  Uiso   1.00
C16    C     0.90287   0.46232   0.51745   0.00000  Uiso   1.00
C17    C     0.92487   0.60006   0.48930   0.00000  Uiso   1.00
C18    C     0.74625   0.34744   0.60300   0.00000  Uiso   1.00
C19    C     0.71083   0.21888   0.59393   0.00000  Uiso   1.00
C20    C     0.64500   0.24527   0.60077   0.00000  Uiso   1.00
C21    C     0.82247   0.39708   0.64850   0.00000  Uiso   1.00
C22    C     0.85113   0.31024   0.67771   0.00000  Uiso   1.00
C23    C     0.84945   0.37841   0.72286   0.00000  Uiso   1.00
H24    H     0.74200   0.73712   0.63807   0.00000  Uiso   1.00
H25    H     0.82050   0.88288   0.56060   0.00000  Uiso   1.00
H26    H     0.62849   0.63947   0.63708   0.00000  Uiso   1.00
H27    H     0.76877   0.73082   0.72084   0.00000  Uiso   1.00
H28    H     0.92045   0.97849   0.46793   0.00000  Uiso   1.00
H29    H     0.51557   0.46523   0.62921   0.00000  Uiso   1.00
H30    H     0.81137   0.65785   0.80583   0.00000  Uiso   1.00
H31    H     0.84156   0.22865   0.58592   0.00000  Uiso   1.00
H32    H     0.92554   0.34651   0.50558   0.00000  Uiso   1.00
H33    H     0.73352   0.10310   0.58206   0.00000  Uiso   1.00
H34    H     0.87380   0.19445   0.66582   0.00000  Uiso   1.00
H35    H     0.00569   0.54315   0.42328   0.00000  Uiso   1.00
H36    H     0.60081   0.02989   0.58455   0.00000  Uiso   1.00
H37    H     0.89661   0.22251   0.76117   0.00000  Uiso   1.00
O38    O     0.01650   0.84751   0.39369   0.00000  Uiso   1.00
O39    O     0.48532   0.17413   0.60529   0.00000  Uiso   1.00
O40    O     0.87339   0.42686   0.83701   0.00000  Uiso   1.00
N41    N     0.92899   0.85986   0.46845   0.00000  Uiso   1.00
N42    N     0.55046   0.38000   0.61923   0.00000  Uiso   1.00
N43    N     0.82699   0.56007   0.78436   0.00000  Uiso   1.00
N44    N     0.97486   0.62561   0.44442   0.00000  Uiso   1.00
N45    N     0.59633   0.14575   0.59520   0.00000  Uiso   1.00
N46    N     0.87286   0.32582   0.76033   0.00000  Uiso   1.00
C47    C     0.26481   0.12063   0.62612   0.00000  Uiso   1.00
C48    C     0.32128   0.12932   0.57680   0.00000  Uiso   1.00
C49    C     0.34319   0.26711   0.54871   0.00000  Uiso   1.00
C50    C     0.39551   0.24996   0.50468   0.00000  Uiso   1.00
C51    C     0.47871   0.28619   0.43041   0.00000  Uiso   1.00
C52    C     0.21695   0.99707   0.61835   0.00000  Uiso   1.00
C53    C     0.15115   0.02367   0.62520   0.00000  Uiso   1.00
C54    C     0.11565   0.89518   0.61614   0.00000  Uiso   1.00
C55    C     0.03687   0.72606   0.60642   0.00000  Uiso   1.00
C56    C     0.29317   0.04671   0.66385   0.00000  Uiso   1.00
C57    C     0.29144   0.11502   0.70897   0.00000  Uiso   1.00
C58    C     0.32010   0.02831   0.73823   0.00000  Uiso   1.00
C59    C     0.35966   0.93628   0.79916   0.00000  Uiso   1.00
C60    C     0.31875   0.84515   0.59787   0.00000  Uiso   1.00
C61    C     0.35057   0.97968   0.56145   0.00000  Uiso   1.00
C62    C     0.40287   0.96232   0.51745   0.00000  Uiso   1.00
C63    C     0.42487   0.10006   0.48930   0.00000  Uiso   1.00
C64    C     0.24625   0.84744   0.60300   0.00000  Uiso   1.00
C65    C     0.21083   0.71888   0.59393   0.00000  Uiso   1.00
C66    C     0.14500   0.74527   0.60077   0.00000  Uiso   1.00
C67    C     0.32247   0.89708   0.64850   0.00000  Uiso   1.00
C68    C     0.35113   0.81024   0.67771   0.00000  Uiso   1.00
C69    C     0.34945   0.87841   0.72286   0.00000  Uiso   1.00
H70    H     0.24200   0.23712   0.63807   0.00000  Uiso   1.00
H71    H     0.32050   0.38288   0.56060   0.00000  Uiso   1.00
H72    H     0.12849   0.13947   0.63708   0.00000  Uiso   1.00
H73    H     0.26877   0.23082   0.72084   0.00000  Uiso   1.00
H74    H     0.42045   0.47849   0.46793   0.00000  Uiso   1.00
H75    H     0.01557   0.96523   0.62921   0.00000  Uiso   1.00
H76    H     0.31137   0.15785   0.80583   0.00000  Uiso   1.00
H77    H     0.34156   0.72865   0.58592   0.00000  Uiso   1.00
H78    H     0.42554   0.84651   0.50558   0.00000  Uiso   1.00
H79    H     0.23352   0.60310   0.58206   0.00000  Uiso   1.00
H80    H     0.37380   0.69445   0.66582   0.00000  Uiso   1.00
H81    H     0.50569   0.04315   0.42328   0.00000  Uiso   1.00
H82    H     0.10081   0.52989   0.58455   0.00000  Uiso   1.00
H83    H     0.39661   0.72251   0.76117   0.00000  Uiso   1.00
O84    O     0.51650   0.34751   0.39369   0.00000  Uiso   1.00
O85    O     0.98532   0.67413   0.60529   0.00000  Uiso   1.00
O86    O     0.37339   0.92686   0.83701   0.00000  Uiso   1.00
N87    N     0.42899   0.35986   0.46845   0.00000  Uiso   1.00
N88    N     0.05046   0.88000   0.61923   0.00000  Uiso   1.00
N89    N     0.32699   0.06007   0.78436   0.00000  Uiso   1.00
N90    N     0.47486   0.12561   0.44442   0.00000  Uiso   1.00
N91    N     0.09633   0.64575   0.59520   0.00000  Uiso   1.00
N92    N     0.37286   0.82582   0.76033   0.00000  Uiso   1.00
C93    C     0.23519   0.62063   0.87388   0.00000  Uiso   1.00
C94    C     0.17872   0.62932   0.92320   0.00000  Uiso   1.00
C95    C     0.15681   0.76711   0.95129   0.00000  Uiso   1.00
C96    C     0.10449   0.74996   0.99532   0.00000  Uiso   1.00
C97    C     0.02129   0.78619   0.06959   0.00000  Uiso   1.00
C98    C     0.28305   0.49707   0.88165   0.00000  Uiso   1.00
C99    C     0.34885   0.52367   0.87480   0.00000  Uiso   1.00
C100   C     0.38435   0.39518   0.88386   0.00000  Uiso   1.00
C101   C     0.46313   0.22606   0.89358   0.00000  Uiso   1.00
C102   C     0.20683   0.54671   0.83615   0.00000  Uiso   1.00
C103   C     0.20856   0.61502   0.79103   0.00000  Uiso   1.00
C104   C     0.17990   0.52831   0.76177   0.00000  Uiso   1.00
C105   C     0.14034   0.43628   0.70084   0.00000  Uiso   1.00
C106   C     0.18125   0.34515   0.90213   0.00000  Uiso   1.00
C107   C     0.14943   0.47968   0.93855   0.00000  Uiso   1.00
C108   C     0.09713   0.46232   0.98255   0.00000  Uiso   1.00
C109   C     0.07513   0.60006   0.01070   0.00000  Uiso   1.00
C110   C     0.25375   0.34744   0.89700   0.00000  Uiso   1.00
C111   C     0.28917   0.21888   0.90607   0.00000  Uiso   1.00
C112   C     0.35500   0.24527   0.89923   0.00000  Uiso   1.00
C113   C     0.17753   0.39708   0.85150   0.00000  Uiso   1.00
C114   C     0.14887   0.31024   0.82229   0.00000  Uiso   1.00
C115   C     0.15055   0.37841   0.77714   0.00000  Uiso   1.00
H116   H     0.25800   0.73712   0.86193   0.00000  Uiso   1.00
H117   H     0.17950   0.88288   0.93940   0.00000  Uiso   1.00
H118   H     0.37151   0.63947   0.86292   0.00000  Uiso   1.00
H119   H     0.23123   0.73082   0.77916   0.00000  Uiso   1.00
H120   H     0.07955   0.97849   0.03207   0.00000  Uiso   1.00
H121   H     0.48443   0.46523   0.87079   0.00000  Uiso   1.00
H122   H     0.18863   0.65785   0.69417   0.00000  Uiso   1.00
H123   H     0.15844   0.22865   0.91408   0.00000  Uiso   1.00
H124   H     0.07446   0.34651   0.99442   0.00000  Uiso   1.00
H125   H     0.26648   0.10310   0.91794   0.00000  Uiso   1.00
H126   H     0.12620   0.19445   0.83418   0.00000  Uiso   1.00
H127   H     0.99431   0.54315   0.07672   0.00000  Uiso   1.00
H128   H     0.39919   0.02989   0.91545   0.00000  Uiso   1.00
H129   H     0.10339   0.22251   0.73883   0.00000  Uiso   1.00
O130   O     0.98350   0.84751   0.10631   0.00000  Uiso   1.00
O131   O     0.51468   0.17413   0.89471   0.00000  Uiso   1.00
O132   O     0.12661   0.42686   0.66299   0.00000  Uiso   1.00
N133   N     0.07101   0.85986   0.03155   0.00000  Uiso   1.00
N134   N     0.44954   0.38000   0.88077   0.00000  Uiso   1.00
N135   N     0.17301   0.56007   0.71564   0.00000  Uiso   1.00
N136   N     0.02514   0.62561   0.05558   0.00000  Uiso   1.00
N137   N     0.40367   0.14575   0.90480   0.00000  Uiso   1.00
N138   N     0.12714   0.32582   0.73967   0.00000  Uiso   1.00
C139   C     0.73519   0.12063   0.87388   0.00000  Uiso   1.00
C140   C     0.67872   0.12932   0.92320   0.00000  Uiso   1.00
C141   C     0.65681   0.26711   0.95129   0.00000  Uiso   1.00
C142   C     0.60449   0.24996   0.99532   0.00000  Uiso   1.00
C143   C     0.52129   0.28619   0.06959   0.00000  Uiso   1.00
C144   C     0.78305   0.99707   0.88165   0.00000  Uiso   1.00
C145   C     0.84885   0.02367   0.87480   0.00000  Uiso   1.00
C146   C     0.88435   0.89518   0.88386   0.00000  Uiso   1.00
C147   C     0.96313   0.72606   0.89358   0.00000  Uiso   1.00
C148   C     0.70683   0.04671   0.83615   0.00000  Uiso   1.00
C149   C     0.70856   0.11502   0.79103   0.00000  Uiso   1.00
C150   C     0.67990   0.02831   0.76177   0.00000  Uiso   1.00
C151   C     0.64034   0.93628   0.70084   0.00000  Uiso   1.00
C152   C     0.68125   0.84515   0.90213   0.00000  Uiso   1.00
C153   C     0.64943   0.97968   0.93855   0.00000  Uiso   1.00
C154   C     0.59713   0.96232   0.98255   0.00000  Uiso   1.00
C155   C     0.57513   0.10006   0.01070   0.00000  Uiso   1.00
C156   C     0.75375   0.84744   0.89700   0.00000  Uiso   1.00
C157   C     0.78917   0.71888   0.90607   0.00000  Uiso   1.00
C158   C     0.85500   0.74527   0.89923   0.00000  Uiso   1.00
C159   C     0.67753   0.89708   0.85150   0.00000  Uiso   1.00
C160   C     0.64887   0.81024   0.82229   0.00000  Uiso   1.00
C161   C     0.65055   0.87841   0.77714   0.00000  Uiso   1.00
H162   H     0.75800   0.23712   0.86193   0.00000  Uiso   1.00
H163   H     0.67950   0.38288   0.93940   0.00000  Uiso   1.00
H164   H     0.87151   0.13947   0.86292   0.00000  Uiso   1.00
H165   H     0.73123   0.23082   0.77916   0.00000  Uiso   1.00
H166   H     0.57955   0.47849   0.03207   0.00000  Uiso   1.00
H167   H     0.98443   0.96523   0.87079   0.00000  Uiso   1.00
H168   H     0.68863   0.15785   0.69417   0.00000  Uiso   1.00
H169   H     0.65844   0.72865   0.91408   0.00000  Uiso   1.00
H170   H     0.57446   0.84651   0.99442   0.00000  Uiso   1.00
H171   H     0.76648   0.60310   0.91794   0.00000  Uiso   1.00
H172   H     0.62620   0.69445   0.83418   0.00000  Uiso   1.00
H173   H     0.49431   0.04315   0.07672   0.00000  Uiso   1.00
H174   H     0.89919   0.52989   0.91545   0.00000  Uiso   1.00
H175   H     0.60339   0.72251   0.73883   0.00000  Uiso   1.00
O176   O     0.48350   0.34751   0.10631   0.00000  Uiso   1.00
O177   O     0.01468   0.67413   0.89471   0.00000  Uiso   1.00
O178   O     0.62661   0.92686   0.66299   0.00000  Uiso   1.00
N179   N     0.57101   0.35986   0.03155   0.00000  Uiso   1.00
N180   N     0.94954   0.88000   0.88077   0.00000  Uiso   1.00
N181   N     0.67301   0.06007   0.71564   0.00000  Uiso   1.00
N182   N     0.52514   0.12561   0.05558   0.00000  Uiso   1.00
N183   N     0.90367   0.64575   0.90480   0.00000  Uiso   1.00
N184   N     0.62714   0.82582   0.73967   0.00000  Uiso   1.00
C185   C     0.23519   0.37937   0.37388   0.00000  Uiso   1.00
C186   C     0.17872   0.37068   0.42320   0.00000  Uiso   1.00
C187   C     0.15681   0.23289   0.45129   0.00000  Uiso   1.00
C188   C     0.10449   0.25004   0.49532   0.00000  Uiso   1.00
C189   C     0.02129   0.21381   0.56959   0.00000  Uiso   1.00
C190   C     0.28305   0.50293   0.38165   0.00000  Uiso   1.00
C191   C     0.34885   0.47633   0.37480   0.00000  Uiso   1.00
C192   C     0.38435   0.60482   0.38386   0.00000  Uiso   1.00
C193   C     0.46313   0.77394   0.39358   0.00000  Uiso   1.00
C194   C     0.20683   0.45329   0.33615   0.00000  Uiso   1.00
C195   C     0.20856   0.38498   0.29103   0.00000  Uiso   1.00
C196   C     0.17990   0.47169   0.26177   0.00000  Uiso   1.00
C197   C     0.14034   0.56372   0.20084   0.00000  Uiso   1.00
C198   C     0.18125   0.65485   0.40213   0.00000  Uiso   1.00
C199   C     0.14943   0.52032   0.43855   0.00000  Uiso   1.00
C200   C     0.09713   0.53768   0.48255   0.00000  Uiso   1.00
C201   C     0.07513   0.39994   0.51070   0.00000  Uiso   1.00
C202   C     0.25375   0.65256   0.39700   0.00000  Uiso   1.00
C203   C     0.28917   0.78112   0.40607   0.00000  Uiso   1.00
C204   C     0.35500   0.75473   0.39923   0.00000  Uiso   1.00
C205   C     0.17753   0.60292   0.35150   0.00000  Uiso   1.00
C206   C     0.14887   0.68976   0.32229   0.00000  Uiso   1.00
C207   C     0.15055   0.62159   0.27714   0.00000  Uiso   1.00
H208   H     0.25800   0.26288   0.36193   0.00000  Uiso   1.00
H209   H     0.17950   0.11712   0.43940   0.00000  Uiso   1.00
H210   H     0.37151   0.36053   0.36292   0.00000  Uiso   1.00
H211   H     0.23123   0.26918   0.27916   0.00000  Uiso   1.00
H212   H     0.07955   0.02151   0.53207   0.00000  Uiso   1.00
H213   H     0.48443   0.53477   0.37079   0.00000  Uiso   1.00
H214   H     0.18863   0.34215   0.19417   0.00000  Uiso   1.00
H215   H     0.15844   0.77135   0.41408   0.00000  Uiso   1.00
H216   H     0.07446   0.65349   0.49442   0.00000  Uiso   1.00
H217   H     0.26648   0.89690   0.41794   0.00000  Uiso   1.00
H218   H     0.12620   0.80555   0.33418   0.00000  Uiso   1.00
H219   H     0.99431   0.45685   0.57672   0.00000  Uiso   1.00
H220   H     0.39919   0.97011   0.41545   0.00000  Uiso   1.00
H221   H     0.10339   0.77749   0.23883   0.00000  Uiso   1.00
O222   O     0.98350   0.15249   0.60631   0.00000  Uiso   1.00
O223   O     0.51468   0.82587   0.39471   0.00000  Uiso   1.00
O224   O     0.12661   0.57314   0.16299   0.00000  Uiso   1.00
N225   N     0.07101   0.14014   0.53155   0.00000  Uiso   1.00
N226   N     0.44954   0.62000   0.38077   0.00000  Uiso   1.00
N227   N     0.17301   0.43993   0.21564   0.00000  Uiso   1.00
N228   N     0.02514   0.37439   0.55558   0.00000  Uiso   1.00
N229   N     0.40367   0.85425   0.40480   0.00000  Uiso   1.00
N230   N     0.12714   0.67418   0.23967   0.00000  Uiso   1.00
C231   C     0.73519   0.87937   0.37388   0.00000  Uiso   1.00
C232   C     0.67872   0.87068   0.42320   0.00000  Uiso   1.00
C233   C     0.65681   0.73289   0.45129   0.00000  Uiso   1.00
C234   C     0.60449   0.75004   0.49532   0.00000  Uiso   1.00
C235   C     0.52129   0.71381   0.56959   0.00000  Uiso   1.00
C236   C     0.78305   0.00293   0.38165   0.00000  Uiso   1.00
C237   C     0.84885   0.97633   0.37480   0.00000  Uiso   1.00
C238   C     0.88435   0.10482   0.38386   0.00000  Uiso   1.00
C239   C     0.96313   0.27394   0.39358   0.00000  Uiso   1.00
C240   C     0.70683   0.95329   0.33615   0.00000  Uiso   1.00
C241   C     0.70856   0.88498   0.29103   0.00000  Uiso   1.00
C242   C     0.67990   0.97169   0.26177   0.00000  Uiso   1.00
C243   C     0.64034   0.06372   0.20084   0.00000  Uiso   1.00
C244   C     0.68125   0.15485   0.40213   0.00000  Uiso   1.00
C245   C     0.64943   0.02032   0.43855   0.00000  Uiso   1.00
C246   C     0.59713   0.03768   0.48255   0.00000  Uiso   1.00
C247   C     0.57513   0.89994   0.51070   0.00000  Uiso   1.00
C248   C     0.75375   0.15256   0.39700   0.00000  Uiso   1.00
C249   C     0.78917   0.28112   0.40607   0.00000  Uiso   1.00
C250   C     0.85500   0.25473   0.39923   0.00000  Uiso   1.00
C251   C     0.67753   0.10292   0.35150   0.00000  Uiso   1.00
C252   C     0.64887   0.18976   0.32229   0.00000  Uiso   1.00
C253   C     0.65055   0.12159   0.27714   0.00000  Uiso   1.00
H254   H     0.75800   0.76288   0.36193   0.00000  Uiso   1.00
H255   H     0.67950   0.61712   0.43940   0.00000  Uiso   1.00
H256   H     0.87151   0.86053   0.36292   0.00000  Uiso   1.00
H257   H     0.73123   0.76918   0.27916   0.00000  Uiso   1.00
H258   H     0.57955   0.52151   0.53207   0.00000  Uiso   1.00
H259   H     0.98443   0.03477   0.37079   0.00000  Uiso   1.00
H260   H     0.68863   0.84215   0.19417   0.00000  Uiso   1.00
H261   H     0.65844   0.27135   0.41408   0.00000  Uiso   1.00
H262   H     0.57446   0.15349   0.49442   0.00000  Uiso   1.00
H263   H     0.76648   0.39690   0.41794   0.00000  Uiso   1.00
H264   H     0.62620   0.30555   0.33418   0.00000  Uiso   1.00
H265   H     0.49431   0.95685   0.57672   0.00000  Uiso   1.00
H266   H     0.89919   0.47011   0.41545   0.00000  Uiso   1.00
H267   H     0.60339   0.27749   0.23883   0.00000  Uiso   1.00
O268   O     0.48350   0.65249   0.60631   0.00000  Uiso   1.00
O269   O     0.01468   0.32587   0.39471   0.00000  Uiso   1.00
O270   O     0.62661   0.07314   0.16299   0.00000  Uiso   1.00
N271   N     0.57101   0.64014   0.53155   0.00000  Uiso   1.00
N272   N     0.94954   0.12000   0.38077   0.00000  Uiso   1.00
N273   N     0.67301   0.93993   0.21564   0.00000  Uiso   1.00
N274   N     0.52514   0.87439   0.55558   0.00000  Uiso   1.00
N275   N     0.90367   0.35425   0.40480   0.00000  Uiso   1.00
N276   N     0.62714   0.17418   0.23967   0.00000  Uiso   1.00
C277   C     0.76481   0.37937   0.12612   0.00000  Uiso   1.00
C278   C     0.82128   0.37068   0.07680   0.00000  Uiso   1.00
C279   C     0.84319   0.23289   0.04871   0.00000  Uiso   1.00
C280   C     0.89551   0.25004   0.00468   0.00000  Uiso   1.00
C281   C     0.97871   0.21381   0.93041   0.00000  Uiso   1.00
C282   C     0.71695   0.50293   0.11835   0.00000  Uiso   1.00
C283   C     0.65115   0.47633   0.12520   0.00000  Uiso   1.00
C284   C     0.61565   0.60482   0.11614   0.00000  Uiso   1.00
C285   C     0.53687   0.77394   0.10642   0.00000  Uiso   1.00
C286   C     0.79317   0.45329   0.16385   0.00000  Uiso   1.00
C287   C     0.79144   0.38498   0.20897   0.00000  Uiso   1.00
C288   C     0.82010   0.47169   0.23823   0.00000  Uiso   1.00
C289   C     0.85966   0.56372   0.29916   0.00000  Uiso   1.00
C290   C     0.81875   0.65485   0.09787   0.00000  Uiso   1.00
C291   C     0.85057   0.52032   0.06145   0.00000  Uiso   1.00
C292   C     0.90287   0.53768   0.01745   0.00000  Uiso   1.00
C293   C     0.92487   0.39994   0.98930   0.00000  Uiso   1.00
C294   C     0.74625   0.65256   0.10300   0.00000  Uiso   1.00
C295   C     0.71083   0.78112   0.09393   0.00000  Uiso   1.00
C296   C     0.64500   0.75473   0.10077   0.00000  Uiso   1.00
C297   C     0.82247   0.60292   0.14850   0.00000  Uiso   1.00
C298   C     0.85113   0.68976   0.17771   0.00000  Uiso   1.00
C299   C     0.84945   0.62159   0.22286   0.00000  Uiso   1.00
H300   H     0.74200   0.26288   0.13807   0.00000  Uiso   1.00
H301   H     0.82050   0.11712   0.06060   0.00000  Uiso   1.00
H302   H     0.62849   0.36053   0.13708   0.00000  Uiso   1.00
H303   H     0.76877   0.26918   0.22084   0.00000  Uiso   1.00
H304   H     0.92045   0.02151   0.96793   0.00000  Uiso   1.00
H305   H     0.51557   0.53477   0.12921   0.00000  Uiso   1.00
H306   H     0.81137   0.34215   0.30583   0.00000  Uiso   1.00
H307   H     0.84156   0.77135   0.08592   0.00000  Uiso   1.00
H308   H     0.92554   0.65349   0.00558   0.00000  Uiso   1.00
H309   H     0.73352   0.89690   0.08206   0.00000  Uiso   1.00
H310   H     0.87380   0.80555   0.16582   0.00000  Uiso   1.00
H311   H     0.00569   0.45685   0.92328   0.00000  Uiso   1.00
H312   H     0.60081   0.97011   0.08455   0.00000  Uiso   1.00
H313   H     0.89661   0.77749   0.26117   0.00000  Uiso   1.00
O314   O     0.01650   0.15249   0.89369   0.00000  Uiso   1.00
O315   O     0.48532   0.82587   0.10529   0.00000  Uiso   1.00
O316   O     0.87339   0.57314   0.33701   0.00000  Uiso   1.00
N317   N     0.92899   0.14014   0.96845   0.00000  Uiso   1.00
N318   N     0.55046   0.62000   0.11923   0.00000  Uiso   1.00
N319   N     0.82699   0.43993   0.28436   0.00000  Uiso   1.00
N320   N     0.97486   0.37439   0.94442   0.00000  Uiso   1.00
N321   N     0.59633   0.85425   0.09520   0.00000  Uiso   1.00
N322   N     0.87286   0.67418   0.26033   0.00000  Uiso   1.00
C323   C     0.26481   0.87937   0.12612   0.00000  Uiso   1.00
C324   C     0.32128   0.87068   0.07680   0.00000  Uiso   1.00
C325   C     0.34319   0.73289   0.04871   0.00000  Uiso   1.00
C326   C     0.39551   0.75004   0.00468   0.00000  Uiso   1.00
C327   C     0.47871   0.71381   0.93041   0.00000  Uiso   1.00
C328   C     0.21695   0.00293   0.11835   0.00000  Uiso   1.00
C329   C     0.15115   0.97633   0.12520   0.00000  Uiso   1.00
C330   C     0.11565   0.10482   0.11614   0.00000  Uiso   1.00
C331   C     0.03687   0.27394   0.10642   0.00000  Uiso   1.00
C332   C     0.29317   0.95329   0.16385   0.00000  Uiso   1.00
C333   C     0.29144   0.88498   0.20897   0.00000  Uiso   1.00
C334   C     0.32010   0.97169   0.23823   0.00000  Uiso   1.00
C335   C     0.35966   0.06372   0.29916   0.00000  Uiso   1.00
C336   C     0.31875   0.15485   0.09787   0.00000  Uiso   1.00
C337   C     0.35057   0.02032   0.06145   0.00000  Uiso   1.00
C338   C     0.40287   0.03768   0.01745   0.00000  Uiso   1.00
C339   C     0.42487   0.89994   0.98930   0.00000  Uiso   1.00
C340   C     0.24625   0.15256   0.10300   0.00000  Uiso   1.00
C341   C     0.21083   0.28112   0.09393   0.00000  Uiso   1.00
C342   C     0.14500   0.25473   0.10077   0.00000  Uiso   1.00
C343   C     0.32247   0.10292   0.14850   0.00000  Uiso   1.00
C344   C     0.35113   0.18976   0.17771   0.00000  Uiso   1.00
C345   C     0.34945   0.12159   0.22286   0.00000  Uiso   1.00
H346   H     0.24200   0.76288   0.13807   0.00000  Uiso   1.00
H347   H     0.32050   0.61712   0.06060   0.00000  Uiso   1.00
H348   H     0.12849   0.86053   0.13708   0.00000  Uiso   1.00
H349   H     0.26877   0.76918   0.22084   0.00000  Uiso   1.00
H350   H     0.42045   0.52151   0.96793   0.00000  Uiso   1.00
H351   H     0.01557   0.03477   0.12921   0.00000  Uiso   1.00
H352   H     0.31137   0.84215   0.30583   0.00000  Uiso   1.00
H353   H     0.34156   0.27135   0.08592   0.00000  Uiso   1.00
H354   H     0.42554   0.15349   0.00558   0.00000  Uiso   1.00
H355   H     0.23352   0.39690   0.08206   0.00000  Uiso   1.00
H356   H     0.37380   0.30555   0.16582   0.00000  Uiso   1.00
H357   H     0.50569   0.95685   0.92328   0.00000  Uiso   1.00
H358   H     0.10081   0.47011   0.08455   0.00000  Uiso   1.00
H359   H     0.39661   0.27749   0.26117   0.00000  Uiso   1.00
O360   O     0.51650   0.65249   0.89369   0.00000  Uiso   1.00
O361   O     0.98532   0.32587   0.10529   0.00000  Uiso   1.00
O362   O     0.37339   0.07314   0.33701   0.00000  Uiso   1.00
N363   N     0.42899   0.64014   0.96845   0.00000  Uiso   1.00
N364   N     0.05046   0.12000   0.11923   0.00000  Uiso   1.00
N365   N     0.32699   0.93993   0.28436   0.00000  Uiso   1.00
N366   N     0.47486   0.87439   0.94442   0.00000  Uiso   1.00
N367   N     0.09633   0.35425   0.09520   0.00000  Uiso   1.00
N368   N     0.37286   0.17418   0.26033   0.00000  Uiso   1.00
