data_job_04120
_audit_creation_date              2018-12-19
_audit_creation_method            'Materials Studio'
_symmetry_space_group_name_H-M    'P1'
_symmetry_Int_Tables_number       1
_symmetry_cell_setting            triclinic
loop_
_symmetry_equiv_pos_as_xyz
  x,y,z
_cell_length_a                    20.8280
_cell_length_b                    17.2831
_cell_length_c                    22.0797
_cell_angle_alpha                 90.0000
_cell_angle_beta                  90.0000
_cell_angle_gamma                 90.0000
loop_
_atom_site_label
_atom_site_type_symbol
_atom_site_fract_x
_atom_site_fract_y
_atom_site_fract_z
_atom_site_U_iso_or_equiv
_atom_site_adp_type
_atom_site_occupancy
C1     C     0.27297   0.25188   0.08124   0.00000  Uiso   1.00
C2     C     0.25657   0.26153   0.14813   0.00000  Uiso   1.00
C3     C     0.20568   0.22651   0.17803   0.00000  Uiso   1.00
C4     C     0.19883   0.24274   0.23927   0.00000  Uiso   1.00
C5     C     0.16688   0.25023   0.33853   0.00000  Uiso   1.00
C6     C     0.27381   0.33324   0.05453   0.00000  Uiso   1.00
C7     C     0.23742   0.35850   0.00573   0.00000  Uiso   1.00
C8     C     0.24508   0.43509   0.98819   0.00000  Uiso   1.00
C9     C     0.23994   0.55389   0.94211   0.00000  Uiso   1.00
C10    C     0.34220   0.22329   0.07916   0.00000  Uiso   1.00
C11    C     0.36330   0.15612   0.05106   0.00000  Uiso   1.00
C12    C     0.42855   0.14015   0.05423   0.00000  Uiso   1.00
C13    C     0.52958   0.08825   0.04639   0.00000  Uiso   1.00
C14    C     0.35131   0.34297   0.13684   0.00000  Uiso   1.00
C15    C     0.29913   0.31101   0.17832   0.00000  Uiso   1.00
C16    C     0.29235   0.32729   0.23954   0.00000  Uiso   1.00
C17    C     0.24146   0.29230   0.26953   0.00000  Uiso   1.00
C18    C     0.31636   0.38272   0.08473   0.00000  Uiso   1.00
C19    C     0.32409   0.45928   0.06724   0.00000  Uiso   1.00
C20    C     0.28771   0.48466   0.01844   0.00000  Uiso   1.00
C21    C     0.38475   0.27277   0.10936   0.00000  Uiso   1.00
C22    C     0.44998   0.25690   0.11257   0.00000  Uiso   1.00
C23    C     0.47118   0.18972   0.08448   0.00000  Uiso   1.00
H24    H     0.23984   0.21336   0.05773   0.00000  Uiso   1.00
H25    H     0.17276   0.18823   0.15464   0.00000  Uiso   1.00
H26    H     0.20450   0.32020   0.98237   0.00000  Uiso   1.00
H27    H     0.33036   0.11785   0.02769   0.00000  Uiso   1.00
H28    H     0.11714   0.18221   0.27540   0.00000  Uiso   1.00
H29    H     0.18407   0.46046   0.91215   0.00000  Uiso   1.00
H30    H     0.44949   0.03377   0.00771   0.00000  Uiso   1.00
H31    H     0.38443   0.38149   0.16034   0.00000  Uiso   1.00
H32    H     0.32529   0.36558   0.26289   0.00000  Uiso   1.00
H33    H     0.35702   0.49755   0.09062   0.00000  Uiso   1.00
H34    H     0.48289   0.29521   0.13594   0.00000  Uiso   1.00
H35    H     0.24093   0.32616   0.36326   0.00000  Uiso   1.00
H36    H     0.30787   0.60441   0.00000   0.00000  Uiso   1.00
H37    H     0.57328   0.17772   0.09557   0.00000  Uiso   1.00
O38    O     0.13750   0.24071   0.38493   0.00000  Uiso   1.00
O39    O     0.22533   0.60576   0.90835   0.00000  Uiso   1.00
O40    O     0.57355   0.04595   0.03373   0.00000  Uiso   1.00
N41    N     0.15440   0.21826   0.28201   0.00000  Uiso   1.00
N42    N     0.21697   0.47841   0.94239   0.00000  Uiso   1.00
N43    N     0.46511   0.07950   0.03172   0.00000  Uiso   1.00
N44    N     0.22101   0.29572   0.32928   0.00000  Uiso   1.00
N45    N     0.28359   0.55587   0.98967   0.00000  Uiso   1.00
N46    N     0.53173   0.15696   0.07900   0.00000  Uiso   1.00
C47    C     0.22703   0.74812   0.58124   0.00000  Uiso   1.00
C48    C     0.24343   0.73847   0.64813   0.00000  Uiso   1.00
C49    C     0.29432   0.77349   0.67803   0.00000  Uiso   1.00
C50    C     0.30117   0.75726   0.73927   0.00000  Uiso   1.00
C51    C     0.33312   0.74977   0.83853   0.00000  Uiso   1.00
C52    C     0.22619   0.66676   0.55453   0.00000  Uiso   1.00
C53    C     0.26258   0.64150   0.50573   0.00000  Uiso   1.00
C54    C     0.25492   0.56491   0.48819   0.00000  Uiso   1.00
C55    C     0.26006   0.44611   0.44211   0.00000  Uiso   1.00
C56    C     0.15780   0.77671   0.57916   0.00000  Uiso   1.00
C57    C     0.13670   0.84388   0.55106   0.00000  Uiso   1.00
C58    C     0.07145   0.85985   0.55423   0.00000  Uiso   1.00
C59    C     0.97042   0.91175   0.54639   0.00000  Uiso   1.00
C60    C     0.14869   0.65703   0.63684   0.00000  Uiso   1.00
C61    C     0.20087   0.68899   0.67832   0.00000  Uiso   1.00
C62    C     0.20765   0.67271   0.73954   0.00000  Uiso   1.00
C63    C     0.25854   0.70770   0.76953   0.00000  Uiso   1.00
C64    C     0.18364   0.61728   0.58473   0.00000  Uiso   1.00
C65    C     0.17591   0.54072   0.56724   0.00000  Uiso   1.00
C66    C     0.21229   0.51534   0.51844   0.00000  Uiso   1.00
C67    C     0.11525   0.72723   0.60936   0.00000  Uiso   1.00
C68    C     0.05002   0.74310   0.61257   0.00000  Uiso   1.00
C69    C     0.02882   0.81028   0.58448   0.00000  Uiso   1.00
H70    H     0.26016   0.78664   0.55773   0.00000  Uiso   1.00
H71    H     0.32724   0.81177   0.65464   0.00000  Uiso   1.00
H72    H     0.29550   0.67980   0.48237   0.00000  Uiso   1.00
H73    H     0.16964   0.88215   0.52769   0.00000  Uiso   1.00
H74    H     0.38286   0.81779   0.77540   0.00000  Uiso   1.00
H75    H     0.31593   0.53954   0.41215   0.00000  Uiso   1.00
H76    H     0.05051   0.96623   0.50771   0.00000  Uiso   1.00
H77    H     0.11557   0.61851   0.66034   0.00000  Uiso   1.00
H78    H     0.17471   0.63442   0.76289   0.00000  Uiso   1.00
H79    H     0.14298   0.50245   0.59062   0.00000  Uiso   1.00
H80    H     0.01711   0.70479   0.63594   0.00000  Uiso   1.00
H81    H     0.25907   0.67384   0.86326   0.00000  Uiso   1.00
H82    H     0.19213   0.39559   0.50000   0.00000  Uiso   1.00
H83    H     0.92672   0.82228   0.59557   0.00000  Uiso   1.00
O84    O     0.36250   0.75929   0.88493   0.00000  Uiso   1.00
O85    O     0.27467   0.39424   0.40835   0.00000  Uiso   1.00
O86    O     0.92645   0.95405   0.53373   0.00000  Uiso   1.00
N87    N     0.34560   0.78174   0.78201   0.00000  Uiso   1.00
N88    N     0.28303   0.52159   0.44239   0.00000  Uiso   1.00
N89    N     0.03489   0.92050   0.53172   0.00000  Uiso   1.00
N90    N     0.27899   0.70428   0.82928   0.00000  Uiso   1.00
N91    N     0.21641   0.44413   0.48967   0.00000  Uiso   1.00
N92    N     0.96827   0.84304   0.57900   0.00000  Uiso   1.00
C93    C     0.72703   0.75188   0.41876   0.00000  Uiso   1.00
C94    C     0.74343   0.76153   0.35187   0.00000  Uiso   1.00
C95    C     0.79432   0.72651   0.32197   0.00000  Uiso   1.00
C96    C     0.80117   0.74274   0.26073   0.00000  Uiso   1.00
C97    C     0.83312   0.75023   0.16147   0.00000  Uiso   1.00
C98    C     0.72619   0.83324   0.44547   0.00000  Uiso   1.00
C99    C     0.76258   0.85850   0.49427   0.00000  Uiso   1.00
C100   C     0.75492   0.93509   0.51181   0.00000  Uiso   1.00
C101   C     0.76006   0.05389   0.55789   0.00000  Uiso   1.00
C102   C     0.65780   0.72329   0.42084   0.00000  Uiso   1.00
C103   C     0.63670   0.65612   0.44894   0.00000  Uiso   1.00
C104   C     0.57145   0.64015   0.44577   0.00000  Uiso   1.00
C105   C     0.47042   0.58825   0.45361   0.00000  Uiso   1.00
C106   C     0.64869   0.84297   0.36316   0.00000  Uiso   1.00
C107   C     0.70087   0.81101   0.32168   0.00000  Uiso   1.00
C108   C     0.70765   0.82729   0.26046   0.00000  Uiso   1.00
C109   C     0.75854   0.79230   0.23047   0.00000  Uiso   1.00
C110   C     0.68364   0.88272   0.41527   0.00000  Uiso   1.00
C111   C     0.67591   0.95928   0.43276   0.00000  Uiso   1.00
C112   C     0.71229   0.98466   0.48156   0.00000  Uiso   1.00
C113   C     0.61525   0.77277   0.39064   0.00000  Uiso   1.00
C114   C     0.55002   0.75690   0.38743   0.00000  Uiso   1.00
C115   C     0.52882   0.68972   0.41552   0.00000  Uiso   1.00
H116   H     0.76016   0.71336   0.44227   0.00000  Uiso   1.00
H117   H     0.82724   0.68823   0.34536   0.00000  Uiso   1.00
H118   H     0.79550   0.82020   0.51763   0.00000  Uiso   1.00
H119   H     0.66964   0.61785   0.47231   0.00000  Uiso   1.00
H120   H     0.88286   0.68221   0.22460   0.00000  Uiso   1.00
H121   H     0.81593   0.96046   0.58785   0.00000  Uiso   1.00
H122   H     0.55051   0.53377   0.49229   0.00000  Uiso   1.00
H123   H     0.61557   0.88149   0.33966   0.00000  Uiso   1.00
H124   H     0.67471   0.86558   0.23711   0.00000  Uiso   1.00
H125   H     0.64298   0.99755   0.40938   0.00000  Uiso   1.00
H126   H     0.51711   0.79521   0.36406   0.00000  Uiso   1.00
H127   H     0.75907   0.82616   0.13674   0.00000  Uiso   1.00
H128   H     0.69213   0.10441   0.50000   0.00000  Uiso   1.00
H129   H     0.42672   0.67772   0.40443   0.00000  Uiso   1.00
O130   O     0.86250   0.74071   0.11507   0.00000  Uiso   1.00
O131   O     0.77467   0.10576   0.59165   0.00000  Uiso   1.00
O132   O     0.42645   0.54595   0.46627   0.00000  Uiso   1.00
N133   N     0.84560   0.71826   0.21799   0.00000  Uiso   1.00
N134   N     0.78303   0.97841   0.55761   0.00000  Uiso   1.00
N135   N     0.53489   0.57950   0.46828   0.00000  Uiso   1.00
N136   N     0.77899   0.79572   0.17072   0.00000  Uiso   1.00
N137   N     0.71641   0.05587   0.51033   0.00000  Uiso   1.00
N138   N     0.46827   0.65696   0.42100   0.00000  Uiso   1.00
C139   C     0.77297   0.24812   0.91876   0.00000  Uiso   1.00
C140   C     0.75657   0.23847   0.85187   0.00000  Uiso   1.00
C141   C     0.70568   0.27349   0.82197   0.00000  Uiso   1.00
C142   C     0.69883   0.25726   0.76073   0.00000  Uiso   1.00
C143   C     0.66688   0.24977   0.66147   0.00000  Uiso   1.00
C144   C     0.77381   0.16676   0.94547   0.00000  Uiso   1.00
C145   C     0.73742   0.14150   0.99427   0.00000  Uiso   1.00
C146   C     0.74508   0.06491   0.01181   0.00000  Uiso   1.00
C147   C     0.73994   0.94611   0.05789   0.00000  Uiso   1.00
C148   C     0.84220   0.27671   0.92084   0.00000  Uiso   1.00
C149   C     0.86330   0.34388   0.94894   0.00000  Uiso   1.00
C150   C     0.92855   0.35985   0.94577   0.00000  Uiso   1.00
C151   C     0.02958   0.41175   0.95361   0.00000  Uiso   1.00
C152   C     0.85131   0.15703   0.86316   0.00000  Uiso   1.00
C153   C     0.79913   0.18899   0.82168   0.00000  Uiso   1.00
C154   C     0.79235   0.17271   0.76046   0.00000  Uiso   1.00
C155   C     0.74146   0.20770   0.73047   0.00000  Uiso   1.00
C156   C     0.81636   0.11728   0.91527   0.00000  Uiso   1.00
C157   C     0.82409   0.04072   0.93276   0.00000  Uiso   1.00
C158   C     0.78771   0.01534   0.98156   0.00000  Uiso   1.00
C159   C     0.88475   0.22723   0.89064   0.00000  Uiso   1.00
C160   C     0.94998   0.24310   0.88743   0.00000  Uiso   1.00
C161   C     0.97118   0.31028   0.91552   0.00000  Uiso   1.00
H162   H     0.73984   0.28664   0.94227   0.00000  Uiso   1.00
H163   H     0.67276   0.31177   0.84536   0.00000  Uiso   1.00
H164   H     0.70450   0.17980   0.01763   0.00000  Uiso   1.00
H165   H     0.83036   0.38215   0.97231   0.00000  Uiso   1.00
H166   H     0.61714   0.31779   0.72460   0.00000  Uiso   1.00
H167   H     0.68407   0.03954   0.08785   0.00000  Uiso   1.00
H168   H     0.94949   0.46623   0.99229   0.00000  Uiso   1.00
H169   H     0.88443   0.11851   0.83966   0.00000  Uiso   1.00
H170   H     0.82529   0.13442   0.73711   0.00000  Uiso   1.00
H171   H     0.85702   0.00245   0.90938   0.00000  Uiso   1.00
H172   H     0.98289   0.20479   0.86406   0.00000  Uiso   1.00
H173   H     0.74093   0.17384   0.63674   0.00000  Uiso   1.00
H174   H     0.80787   0.89559  -0.00000   0.00000  Uiso   1.00
H175   H     0.07328   0.32228   0.90443   0.00000  Uiso   1.00
O176   O     0.63750   0.25929   0.61507   0.00000  Uiso   1.00
O177   O     0.72533   0.89424   0.09165   0.00000  Uiso   1.00
O178   O     0.07355   0.45405   0.96627   0.00000  Uiso   1.00
N179   N     0.65440   0.28174   0.71799   0.00000  Uiso   1.00
N180   N     0.71697   0.02159   0.05761   0.00000  Uiso   1.00
N181   N     0.96511   0.42050   0.96828   0.00000  Uiso   1.00
N182   N     0.72101   0.20428   0.67072   0.00000  Uiso   1.00
N183   N     0.78359   0.94413   0.01033   0.00000  Uiso   1.00
N184   N     0.03173   0.34304   0.92100   0.00000  Uiso   1.00
C185   C     0.72703   0.74812   0.91876   0.00000  Uiso   1.00
C186   C     0.74343   0.73847   0.85187   0.00000  Uiso   1.00
C187   C     0.79432   0.77349   0.82197   0.00000  Uiso   1.00
C188   C     0.80117   0.75726   0.76073   0.00000  Uiso   1.00
C189   C     0.83312   0.74977   0.66147   0.00000  Uiso   1.00
C190   C     0.72619   0.66676   0.94547   0.00000  Uiso   1.00
C191   C     0.76258   0.64150   0.99427   0.00000  Uiso   1.00
C192   C     0.75492   0.56491   0.01181   0.00000  Uiso   1.00
C193   C     0.76006   0.44611   0.05789   0.00000  Uiso   1.00
C194   C     0.65780   0.77671   0.92084   0.00000  Uiso   1.00
C195   C     0.63670   0.84388   0.94894   0.00000  Uiso   1.00
C196   C     0.57145   0.85985   0.94577   0.00000  Uiso   1.00
C197   C     0.47042   0.91175   0.95361   0.00000  Uiso   1.00
C198   C     0.64869   0.65703   0.86316   0.00000  Uiso   1.00
C199   C     0.70087   0.68899   0.82168   0.00000  Uiso   1.00
C200   C     0.70765   0.67271   0.76046   0.00000  Uiso   1.00
C201   C     0.75854   0.70770   0.73047   0.00000  Uiso   1.00
C202   C     0.68364   0.61728   0.91527   0.00000  Uiso   1.00
C203   C     0.67591   0.54072   0.93276   0.00000  Uiso   1.00
C204   C     0.71229   0.51534   0.98156   0.00000  Uiso   1.00
C205   C     0.61525   0.72723   0.89064   0.00000  Uiso   1.00
C206   C     0.55002   0.74310   0.88743   0.00000  Uiso   1.00
C207   C     0.52882   0.81028   0.91552   0.00000  Uiso   1.00
H208   H     0.76016   0.78664   0.94227   0.00000  Uiso   1.00
H209   H     0.82724   0.81177   0.84536   0.00000  Uiso   1.00
H210   H     0.79550   0.67980   0.01763   0.00000  Uiso   1.00
H211   H     0.66964   0.88215   0.97231   0.00000  Uiso   1.00
H212   H     0.88286   0.81779   0.72460   0.00000  Uiso   1.00
H213   H     0.81593   0.53954   0.08785   0.00000  Uiso   1.00
H214   H     0.55051   0.96623   0.99229   0.00000  Uiso   1.00
H215   H     0.61557   0.61851   0.83966   0.00000  Uiso   1.00
H216   H     0.67471   0.63442   0.73711   0.00000  Uiso   1.00
H217   H     0.64298   0.50245   0.90938   0.00000  Uiso   1.00
H218   H     0.51711   0.70479   0.86406   0.00000  Uiso   1.00
H219   H     0.75907   0.67384   0.63674   0.00000  Uiso   1.00
H220   H     0.69213   0.39559  -0.00000   0.00000  Uiso   1.00
H221   H     0.42672   0.82228   0.90443   0.00000  Uiso   1.00
O222   O     0.86250   0.75929   0.61507   0.00000  Uiso   1.00
O223   O     0.77467   0.39424   0.09165   0.00000  Uiso   1.00
O224   O     0.42645   0.95405   0.96627   0.00000  Uiso   1.00
N225   N     0.84560   0.78174   0.71799   0.00000  Uiso   1.00
N226   N     0.78303   0.52159   0.05761   0.00000  Uiso   1.00
N227   N     0.53489   0.92050   0.96828   0.00000  Uiso   1.00
N228   N     0.77899   0.70428   0.67072   0.00000  Uiso   1.00
N229   N     0.71641   0.44413   0.01033   0.00000  Uiso   1.00
N230   N     0.46827   0.84304   0.92100   0.00000  Uiso   1.00
C231   C     0.77297   0.25188   0.41876   0.00000  Uiso   1.00
C232   C     0.75657   0.26153   0.35187   0.00000  Uiso   1.00
C233   C     0.70568   0.22651   0.32197   0.00000  Uiso   1.00
C234   C     0.69883   0.24274   0.26073   0.00000  Uiso   1.00
C235   C     0.66688   0.25023   0.16147   0.00000  Uiso   1.00
C236   C     0.77381   0.33324   0.44547   0.00000  Uiso   1.00
C237   C     0.73742   0.35850   0.49427   0.00000  Uiso   1.00
C238   C     0.74508   0.43509   0.51181   0.00000  Uiso   1.00
C239   C     0.73994   0.55389   0.55789   0.00000  Uiso   1.00
C240   C     0.84220   0.22329   0.42084   0.00000  Uiso   1.00
C241   C     0.86330   0.15612   0.44894   0.00000  Uiso   1.00
C242   C     0.92855   0.14015   0.44577   0.00000  Uiso   1.00
C243   C     0.02958   0.08825   0.45361   0.00000  Uiso   1.00
C244   C     0.85131   0.34297   0.36316   0.00000  Uiso   1.00
C245   C     0.79913   0.31101   0.32168   0.00000  Uiso   1.00
C246   C     0.79235   0.32729   0.26046   0.00000  Uiso   1.00
C247   C     0.74146   0.29230   0.23047   0.00000  Uiso   1.00
C248   C     0.81636   0.38272   0.41527   0.00000  Uiso   1.00
C249   C     0.82409   0.45928   0.43276   0.00000  Uiso   1.00
C250   C     0.78771   0.48466   0.48156   0.00000  Uiso   1.00
C251   C     0.88475   0.27277   0.39064   0.00000  Uiso   1.00
C252   C     0.94998   0.25690   0.38743   0.00000  Uiso   1.00
C253   C     0.97118   0.18972   0.41552   0.00000  Uiso   1.00
H254   H     0.73984   0.21336   0.44227   0.00000  Uiso   1.00
H255   H     0.67276   0.18823   0.34536   0.00000  Uiso   1.00
H256   H     0.70450   0.32020   0.51763   0.00000  Uiso   1.00
H257   H     0.83036   0.11785   0.47231   0.00000  Uiso   1.00
H258   H     0.61714   0.18221   0.22460   0.00000  Uiso   1.00
H259   H     0.68407   0.46046   0.58785   0.00000  Uiso   1.00
H260   H     0.94949   0.03377   0.49229   0.00000  Uiso   1.00
H261   H     0.88443   0.38149   0.33966   0.00000  Uiso   1.00
H262   H     0.82529   0.36558   0.23711   0.00000  Uiso   1.00
H263   H     0.85702   0.49755   0.40938   0.00000  Uiso   1.00
H264   H     0.98289   0.29521   0.36406   0.00000  Uiso   1.00
H265   H     0.74093   0.32616   0.13674   0.00000  Uiso   1.00
H266   H     0.80787   0.60441   0.50000   0.00000  Uiso   1.00
H267   H     0.07328   0.17772   0.40443   0.00000  Uiso   1.00
O268   O     0.63750   0.24071   0.11507   0.00000  Uiso   1.00
O269   O     0.72533   0.60576   0.59165   0.00000  Uiso   1.00
O270   O     0.07355   0.04595   0.46627   0.00000  Uiso   1.00
N271   N     0.65440   0.21826   0.21799   0.00000  Uiso   1.00
N272   N     0.71697   0.47841   0.55761   0.00000  Uiso   1.00
N273   N     0.96511   0.07950   0.46828   0.00000  Uiso   1.00
N274   N     0.72101   0.29572   0.17072   0.00000  Uiso   1.00
N275   N     0.78359   0.55587   0.51033   0.00000  Uiso   1.00
N276   N     0.03173   0.15696   0.42100   0.00000  Uiso   1.00
C277   C     0.27297   0.24812   0.58124   0.00000  Uiso   1.00
C278   C     0.25657   0.23847   0.64813   0.00000  Uiso   1.00
C279   C     0.20568   0.27349   0.67803   0.00000  Uiso   1.00
C280   C     0.19883   0.25726   0.73927   0.00000  Uiso   1.00
C281   C     0.16688   0.24977   0.83853   0.00000  Uiso   1.00
C282   C     0.27381   0.16676   0.55453   0.00000  Uiso   1.00
C283   C     0.23742   0.14150   0.50573   0.00000  Uiso   1.00
C284   C     0.24508   0.06491   0.48819   0.00000  Uiso   1.00
C285   C     0.23994   0.94611   0.44211   0.00000  Uiso   1.00
C286   C     0.34220   0.27671   0.57916   0.00000  Uiso   1.00
C287   C     0.36330   0.34388   0.55106   0.00000  Uiso   1.00
C288   C     0.42855   0.35985   0.55423   0.00000  Uiso   1.00
C289   C     0.52958   0.41175   0.54639   0.00000  Uiso   1.00
C290   C     0.35131   0.15703   0.63684   0.00000  Uiso   1.00
C291   C     0.29913   0.18899   0.67832   0.00000  Uiso   1.00
C292   C     0.29235   0.17271   0.73954   0.00000  Uiso   1.00
C293   C     0.24146   0.20770   0.76953   0.00000  Uiso   1.00
C294   C     0.31636   0.11728   0.58473   0.00000  Uiso   1.00
C295   C     0.32409   0.04072   0.56724   0.00000  Uiso   1.00
C296   C     0.28771   0.01534   0.51844   0.00000  Uiso   1.00
C297   C     0.38475   0.22723   0.60936   0.00000  Uiso   1.00
C298   C     0.44998   0.24310   0.61257   0.00000  Uiso   1.00
C299   C     0.47118   0.31028   0.58448   0.00000  Uiso   1.00
H300   H     0.23984   0.28664   0.55773   0.00000  Uiso   1.00
H301   H     0.17276   0.31177   0.65464   0.00000  Uiso   1.00
H302   H     0.20450   0.17980   0.48237   0.00000  Uiso   1.00
H303   H     0.33036   0.38215   0.52769   0.00000  Uiso   1.00
H304   H     0.11714   0.31779   0.77540   0.00000  Uiso   1.00
H305   H     0.18407   0.03954   0.41215   0.00000  Uiso   1.00
H306   H     0.44949   0.46623   0.50771   0.00000  Uiso   1.00
H307   H     0.38443   0.11851   0.66034   0.00000  Uiso   1.00
H308   H     0.32529   0.13442   0.76289   0.00000  Uiso   1.00
H309   H     0.35702   0.00245   0.59062   0.00000  Uiso   1.00
H310   H     0.48289   0.20479   0.63594   0.00000  Uiso   1.00
H311   H     0.24093   0.17384   0.86326   0.00000  Uiso   1.00
H312   H     0.30787   0.89559   0.50000   0.00000  Uiso   1.00
H313   H     0.57328   0.32228   0.59557   0.00000  Uiso   1.00
O314   O     0.13750   0.25929   0.88493   0.00000  Uiso   1.00
O315   O     0.22533   0.89424   0.40835   0.00000  Uiso   1.00
O316   O     0.57355   0.45405   0.53373   0.00000  Uiso   1.00
N317   N     0.15440   0.28174   0.78201   0.00000  Uiso   1.00
N318   N     0.21697   0.02159   0.44239   0.00000  Uiso   1.00
N319   N     0.46511   0.42050   0.53172   0.00000  Uiso   1.00
N320   N     0.22101   0.20428   0.82928   0.00000  Uiso   1.00
N321   N     0.28359   0.94413   0.48967   0.00000  Uiso   1.00
N322   N     0.53173   0.34304   0.57900   0.00000  Uiso   1.00
C323   C     0.22703   0.75188   0.08124   0.00000  Uiso   1.00
C324   C     0.24343   0.76153   0.14813   0.00000  Uiso   1.00
C325   C     0.29432   0.72651   0.17803   0.00000  Uiso   1.00
C326   C     0.30117   0.74274   0.23927   0.00000  Uiso   1.00
C327   C     0.33312   0.75023   0.33853   0.00000  Uiso   1.00
C328   C     0.22619   0.83324   0.05453   0.00000  Uiso   1.00
C329   C     0.26258   0.85850   0.00573   0.00000  Uiso   1.00
C330   C     0.25492   0.93509   0.98819   0.00000  Uiso   1.00
C331   C     0.26006   0.05389   0.94211   0.00000  Uiso   1.00
C332   C     0.15780   0.72329   0.07916   0.00000  Uiso   1.00
C333   C     0.13670   0.65612   0.05106   0.00000  Uiso   1.00
C334   C     0.07145   0.64015   0.05423   0.00000  Uiso   1.00
C335   C     0.97042   0.58825   0.04639   0.00000  Uiso   1.00
C336   C     0.14869   0.84297   0.13684   0.00000  Uiso   1.00
C337   C     0.20087   0.81101   0.17832   0.00000  Uiso   1.00
C338   C     0.20765   0.82729   0.23954   0.00000  Uiso   1.00
C339   C     0.25854   0.79230   0.26953   0.00000  Uiso   1.00
C340   C     0.18364   0.88272   0.08473   0.00000  Uiso   1.00
C341   C     0.17591   0.95928   0.06724   0.00000  Uiso   1.00
C342   C     0.21229   0.98466   0.01844   0.00000  Uiso   1.00
C343   C     0.11525   0.77277   0.10936   0.00000  Uiso   1.00
C344   C     0.05002   0.75690   0.11257   0.00000  Uiso   1.00
C345   C     0.02882   0.68972   0.08448   0.00000  Uiso   1.00
H346   H     0.26016   0.71336   0.05773   0.00000  Uiso   1.00
H347   H     0.32724   0.68823   0.15464   0.00000  Uiso   1.00
H348   H     0.29550   0.82020   0.98237   0.00000  Uiso   1.00
H349   H     0.16964   0.61785   0.02769   0.00000  Uiso   1.00
H350   H     0.38286   0.68221   0.27540   0.00000  Uiso   1.00
H351   H     0.31593   0.96046   0.91215   0.00000  Uiso   1.00
H352   H     0.05051   0.53377   0.00771   0.00000  Uiso   1.00
H353   H     0.11557   0.88149   0.16034   0.00000  Uiso   1.00
H354   H     0.17471   0.86558   0.26289   0.00000  Uiso   1.00
H355   H     0.14298   0.99755   0.09062   0.00000  Uiso   1.00
H356   H     0.01711   0.79521   0.13594   0.00000  Uiso   1.00
H357   H     0.25907   0.82616   0.36326   0.00000  Uiso   1.00
H358   H     0.19213   0.10441   0.00000   0.00000  Uiso   1.00
H359   H     0.92672   0.67772   0.09557   0.00000  Uiso   1.00
O360   O     0.36250   0.74071   0.38493   0.00000  Uiso   1.00
O361   O     0.27467   0.10576   0.90835   0.00000  Uiso   1.00
O362   O     0.92645   0.54595   0.03373   0.00000  Uiso   1.00
N363   N     0.34560   0.71826   0.28201   0.00000  Uiso   1.00
N364   N     0.28303   0.97841   0.94239   0.00000  Uiso   1.00
N365   N     0.03489   0.57950   0.03172   0.00000  Uiso   1.00
N366   N     0.27899   0.79572   0.32928   0.00000  Uiso   1.00
N367   N     0.21641   0.05587   0.98967   0.00000  Uiso   1.00
N368   N     0.96827   0.65696   0.07900   0.00000  Uiso   1.00
