data_job_06250
_audit_creation_date              2018-12-19
_audit_creation_method            'Materials Studio'
_symmetry_space_group_name_H-M    'P1'
_symmetry_Int_Tables_number       1
_symmetry_cell_setting            triclinic
loop_
_symmetry_equiv_pos_as_xyz
  x,y,z
_cell_length_a                    16.4690
_cell_length_b                    16.1961
_cell_length_c                    15.4610
_cell_angle_alpha                 90.6183
_cell_angle_beta                  90.6603
_cell_angle_gamma                 89.4595
loop_
_atom_site_label
_atom_site_type_symbol
_atom_site_fract_x
_atom_site_fract_y
_atom_site_fract_z
_atom_site_U_iso_or_equiv
_atom_site_adp_type
_atom_site_occupancy
C1     C     0.19625   0.13742   0.45673   0.00000  Uiso   1.00
C2     C     0.27597   0.18130   0.47645   0.00000  Uiso   1.00
C3     C     0.34359   0.18135   0.42371   0.00000  Uiso   1.00
C4     C     0.41059   0.22519   0.45332   0.00000  Uiso   1.00
C5     C     0.53449   0.28686   0.47187   0.00000  Uiso   1.00
C6     C     0.18190   0.08052   0.53288   0.00000  Uiso   1.00
C7     C     0.17041   0.99583   0.52758   0.00000  Uiso   1.00
C8     C     0.15822   0.95483   0.60470   0.00000  Uiso   1.00
C9     C     0.13601   0.86005   0.71085   0.00000  Uiso   1.00
C10    C     0.13005   0.20374   0.46116   0.00000  Uiso   1.00
C11    C     0.07494   0.22263   0.39557   0.00000  Uiso   1.00
C12    C     0.01907   0.28536   0.41230   0.00000  Uiso   1.00
C13    C     0.91635   0.38189   0.40710   0.00000  Uiso   1.00
C14    C     0.19502   0.21520   0.60310   0.00000  Uiso   1.00
C15    C     0.27530   0.22355   0.55595   0.00000  Uiso   1.00
C16    C     0.34222   0.26741   0.58565   0.00000  Uiso   1.00
C17    C     0.40992   0.26751   0.53296   0.00000  Uiso   1.00
C18    C     0.18123   0.12277   0.61238   0.00000  Uiso   1.00
C19    C     0.16904   0.08189   0.68952   0.00000  Uiso   1.00
C20    C     0.15754   0.99715   0.68434   0.00000  Uiso   1.00
C21    C     0.12937   0.24599   0.54066   0.00000  Uiso   1.00
C22    C     0.07358   0.30869   0.55751   0.00000  Uiso   1.00
C23    C     0.01840   0.32769   0.49195   0.00000  Uiso   1.00
H24    H     0.19678   0.10453   0.39484   0.00000  Uiso   1.00
H25    H     0.34409   0.14864   0.36219   0.00000  Uiso   1.00
H26    H     0.17093   0.96315   0.46605   0.00000  Uiso   1.00
H27    H     0.07548   0.18993   0.33405   0.00000  Uiso   1.00
H28    H     0.50712   0.21615   0.36108   0.00000  Uiso   1.00
H29    H     0.14198   0.82505   0.58006   0.00000  Uiso   1.00
H30    H     0.94070   0.30324   0.30172   0.00000  Uiso   1.00
H31    H     0.19449   0.24810   0.66500   0.00000  Uiso   1.00
H32    H     0.34168   0.30009   0.64717   0.00000  Uiso   1.00
H33    H     0.16852   0.11460   0.75103   0.00000  Uiso   1.00
H34    H     0.07307   0.34137   0.61904   0.00000  Uiso   1.00
H35    H     0.50517   0.33907   0.59238   0.00000  Uiso   1.00
H36    H     0.14002   0.94797   0.81136   0.00000  Uiso   1.00
H37    H     0.93875   0.42616   0.53302   0.00000  Uiso   1.00
O38    O     0.60302   0.30920   0.46014   0.00000  Uiso   1.00
O39    O     0.12395   0.79609   0.74744   0.00000  Uiso   1.00
O40    O     0.85988   0.42347   0.38226   0.00000  Uiso   1.00
N41    N     0.48646   0.23796   0.41795   0.00000  Uiso   1.00
N42    N     0.14508   0.87230   0.62269   0.00000  Uiso   1.00
N43    N     0.95689   0.31935   0.36247   0.00000  Uiso   1.00
N44    N     0.48541   0.30410   0.54241   0.00000  Uiso   1.00
N45    N     0.14403   0.93844   0.74715   0.00000  Uiso   1.00
N46    N     0.95584   0.38550   0.48693   0.00000  Uiso   1.00
C47    C     0.47437   0.19721   0.12595   0.00000  Uiso   1.00
C48    C     0.49113   0.27852   0.17319   0.00000  Uiso   1.00
C49    C     0.44046   0.34747   0.17364   0.00000  Uiso   1.00
C50    C     0.46672   0.41582   0.22076   0.00000  Uiso   1.00
C51    C     0.48147   0.54219   0.28724   0.00000  Uiso   1.00
C52    C     0.54663   0.18193   0.06690   0.00000  Uiso   1.00
C53    C     0.54261   0.16966   0.97798   0.00000  Uiso   1.00
C54    C     0.61559   0.15669   0.93564   0.00000  Uiso   1.00
C55    C     0.71649   0.13303   0.83710   0.00000  Uiso   1.00
C56    C     0.47906   0.13034   0.19455   0.00000  Uiso   1.00
C57    C     0.41824   0.07468   0.21295   0.00000  Uiso   1.00
C58    C     0.43434   0.01826   0.27806   0.00000  Uiso   1.00
C59    C     0.43033   0.91451   0.37772   0.00000  Uiso   1.00
C60    C     0.61111   0.19598   0.20885   0.00000  Uiso   1.00
C61    C     0.56541   0.27785   0.21822   0.00000  Uiso   1.00
C62    C     0.59175   0.34611   0.26536   0.00000  Uiso   1.00
C63    C     0.54113   0.41515   0.26588   0.00000  Uiso   1.00
C64    C     0.62090   0.18126   0.11193   0.00000  Uiso   1.00
C65    C     0.69390   0.16829   0.06970   0.00000  Uiso   1.00
C66    C     0.69000   0.15601   0.98074   0.00000  Uiso   1.00
C67    C     0.55333   0.12967   0.23958   0.00000  Uiso   1.00
C68    C     0.56953   0.07332   0.30467   0.00000  Uiso   1.00
C69    C     0.50874   0.01758   0.32317   0.00000  Uiso   1.00
H70    H     0.41655   0.19773   0.09089   0.00000  Uiso   1.00
H71    H     0.38299   0.34797   0.13878   0.00000  Uiso   1.00
H72    H     0.48513   0.17017   0.94316   0.00000  Uiso   1.00
H73    H     0.36077   0.07522   0.17809   0.00000  Uiso   1.00
H74    H     0.37856   0.51425   0.21171   0.00000  Uiso   1.00
H75    H     0.59391   0.13933   0.79923   0.00000  Uiso   1.00
H76    H     0.33169   0.93909   0.29463   0.00000  Uiso   1.00
H77    H     0.66894   0.19546   0.24390   0.00000  Uiso   1.00
H78    H     0.64923   0.34557   0.30020   0.00000  Uiso   1.00
H79    H     0.75136   0.16778   0.10457   0.00000  Uiso   1.00
H80    H     0.62701   0.07282   0.33950   0.00000  Uiso   1.00
H81    H     0.59465   0.51231   0.34271   0.00000  Uiso   1.00
H82    H     0.81000   0.13738   0.93024   0.00000  Uiso   1.00
H83    H     0.54777   0.93714   0.42563   0.00000  Uiso   1.00
O84    O     0.46910   0.61208   0.31145   0.00000  Uiso   1.00
O85    O     0.75163   0.12018   0.77031   0.00000  Uiso   1.00
O86    O     0.40759   0.85747   0.42026   0.00000  Uiso   1.00
N87    N     0.43211   0.49319   0.23483   0.00000  Uiso   1.00
N88    N     0.63346   0.14267   0.84919   0.00000  Uiso   1.00
N89    N     0.38830   0.95545   0.31232   0.00000  Uiso   1.00
N90    N     0.54839   0.49214   0.30532   0.00000  Uiso   1.00
N91    N     0.74973   0.14163   0.91968   0.00000  Uiso   1.00
N92    N     0.50458   0.95440   0.38282   0.00000  Uiso   1.00
C93    C     0.14291   0.47113   0.19546   0.00000  Uiso   1.00
C94    C     0.18624   0.48859   0.28133   0.00000  Uiso   1.00
C95    C     0.18690   0.43756   0.35286   0.00000  Uiso   1.00
C96    C     0.23008   0.46458   0.42527   0.00000  Uiso   1.00
C97    C     0.29109   0.48024   0.55849   0.00000  Uiso   1.00
C98    C     0.08638   0.54472   0.17986   0.00000  Uiso   1.00
C99    C     0.00307   0.54087   0.16607   0.00000  Uiso   1.00
C100   C     0.96219   0.61515   0.15306   0.00000  Uiso   1.00
C101   C     0.86817   0.71794   0.12869   0.00000  Uiso   1.00
C102   C     0.20784   0.47517   0.12616   0.00000  Uiso   1.00
C103   C     0.22665   0.41286   0.06721   0.00000  Uiso   1.00
C104   C     0.28802   0.42859   0.00897   0.00000  Uiso   1.00
C105   C     0.38259   0.42340   0.90123   0.00000  Uiso   1.00
C106   C     0.21842   0.60988   0.19685   0.00000  Uiso   1.00
C107   C     0.22726   0.56395   0.28208   0.00000  Uiso   1.00
C108   C     0.27045   0.59106   0.35440   0.00000  Uiso   1.00
C109   C     0.27117   0.54007   0.42603   0.00000  Uiso   1.00
C110   C     0.12739   0.62008   0.18061   0.00000  Uiso   1.00
C111   C     0.08662   0.69437   0.16761   0.00000  Uiso   1.00
C112   C     0.00328   0.69064   0.15382   0.00000  Uiso   1.00
C113   C     0.24886   0.55053   0.12692   0.00000  Uiso   1.00
C114   C     0.31020   0.56636   0.06875   0.00000  Uiso   1.00
C115   C     0.32911   0.50408   0.00972   0.00000  Uiso   1.00
H116   H     0.11097   0.41247   0.19487   0.00000  Uiso   1.00
H117   H     0.15514   0.37925   0.35226   0.00000  Uiso   1.00
H118   H     0.97135   0.48255   0.16549   0.00000  Uiso   1.00
H119   H     0.19490   0.35455   0.06665   0.00000  Uiso   1.00
H120   H     0.22218   0.37566   0.52709   0.00000  Uiso   1.00
H121   H     0.83465   0.59347   0.13324   0.00000  Uiso   1.00
H122   H     0.30604   0.32357   0.92481   0.00000  Uiso   1.00
H123   H     0.25035   0.66855   0.19744   0.00000  Uiso   1.00
H124   H     0.30218   0.64938   0.35496   0.00000  Uiso   1.00
H125   H     0.11838   0.75268   0.16819   0.00000  Uiso   1.00
H126   H     0.34193   0.62469   0.06935   0.00000  Uiso   1.00
H127   H     0.34152   0.59492   0.52928   0.00000  Uiso   1.00
H128   H     0.95398   0.81272   0.13544   0.00000  Uiso   1.00
H129   H     0.42538   0.54282   0.92701   0.00000  Uiso   1.00
O130   O     0.31341   0.46807   0.63177   0.00000  Uiso   1.00
O131   O     0.80498   0.75382   0.11505   0.00000  Uiso   1.00
O132   O     0.42344   0.39972   0.84160   0.00000  Uiso   1.00
N133   N     0.24317   0.42989   0.50598   0.00000  Uiso   1.00
N134   N     0.88084   0.63353   0.13777   0.00000  Uiso   1.00
N135   N     0.32154   0.38120   0.94289   0.00000  Uiso   1.00
N136   N     0.30739   0.54786   0.50716   0.00000  Uiso   1.00
N137   N     0.94506   0.75150   0.13896   0.00000  Uiso   1.00
N138   N     0.38576   0.49918   0.94407   0.00000  Uiso   1.00
C139   C     0.80375   0.86258   0.54327   0.00000  Uiso   1.00
C140   C     0.72403   0.81869   0.52355   0.00000  Uiso   1.00
C141   C     0.65641   0.81865   0.57629   0.00000  Uiso   1.00
C142   C     0.58941   0.77481   0.54668   0.00000  Uiso   1.00
C143   C     0.46551   0.71314   0.52813   0.00000  Uiso   1.00
C144   C     0.81810   0.91948   0.46712   0.00000  Uiso   1.00
C145   C     0.82959   0.00417   0.47242   0.00000  Uiso   1.00
C146   C     0.84178   0.04517   0.39530   0.00000  Uiso   1.00
C147   C     0.86400   0.13995   0.28915   0.00000  Uiso   1.00
C148   C     0.86995   0.79626   0.53884   0.00000  Uiso   1.00
C149   C     0.92506   0.77737   0.60443   0.00000  Uiso   1.00
C150   C     0.98093   0.71464   0.58770   0.00000  Uiso   1.00
C151   C     0.08365   0.61811   0.59290   0.00000  Uiso   1.00
C152   C     0.80498   0.78480   0.39690   0.00000  Uiso   1.00
C153   C     0.72470   0.77645   0.44405   0.00000  Uiso   1.00
C154   C     0.65778   0.73259   0.41435   0.00000  Uiso   1.00
C155   C     0.59008   0.73249   0.46704   0.00000  Uiso   1.00
C156   C     0.81877   0.87723   0.38762   0.00000  Uiso   1.00
C157   C     0.83096   0.91811   0.31048   0.00000  Uiso   1.00
C158   C     0.84246   0.00285   0.31566   0.00000  Uiso   1.00
C159   C     0.87063   0.75401   0.45934   0.00000  Uiso   1.00
C160   C     0.92642   0.69131   0.44249   0.00000  Uiso   1.00
C161   C     0.98160   0.67231   0.50805   0.00000  Uiso   1.00
H162   H     0.80323   0.89547   0.60516   0.00000  Uiso   1.00
H163   H     0.65591   0.85136   0.63781   0.00000  Uiso   1.00
H164   H     0.82908   0.03685   0.53395   0.00000  Uiso   1.00
H165   H     0.92452   0.81007   0.66595   0.00000  Uiso   1.00
H166   H     0.49288   0.78385   0.63892   0.00000  Uiso   1.00
H167   H     0.85802   0.17495   0.41994   0.00000  Uiso   1.00
H168   H     0.05930   0.69676   0.69828   0.00000  Uiso   1.00
H169   H     0.80551   0.75190   0.33500   0.00000  Uiso   1.00
H170   H     0.65832   0.69991   0.35282   0.00000  Uiso   1.00
H171   H     0.83148   0.88540   0.24897   0.00000  Uiso   1.00
H172   H     0.92693   0.65863   0.38096   0.00000  Uiso   1.00
H173   H     0.49483   0.66093   0.40762   0.00000  Uiso   1.00
H174   H     0.85998   0.05203   0.18864   0.00000  Uiso   1.00
H175   H     0.06125   0.57384   0.46698   0.00000  Uiso   1.00
O176   O     0.39698   0.69080   0.53985   0.00000  Uiso   1.00
O177   O     0.87605   0.20391   0.25256   0.00000  Uiso   1.00
O178   O     0.14012   0.57653   0.61774   0.00000  Uiso   1.00
N179   N     0.51354   0.76204   0.58205   0.00000  Uiso   1.00
N180   N     0.85492   0.12770   0.37731   0.00000  Uiso   1.00
N181   N     0.04311   0.68065   0.63753   0.00000  Uiso   1.00
N182   N     0.51459   0.69590   0.45759   0.00000  Uiso   1.00
N183   N     0.85597   0.06156   0.25285   0.00000  Uiso   1.00
N184   N     0.04416   0.61450   0.51307   0.00000  Uiso   1.00
C185   C     0.52563   0.80279   0.87405   0.00000  Uiso   1.00
C186   C     0.50887   0.72148   0.82681   0.00000  Uiso   1.00
C187   C     0.55954   0.65253   0.82636   0.00000  Uiso   1.00
C188   C     0.53328   0.58418   0.77924   0.00000  Uiso   1.00
C189   C     0.51853   0.45781   0.71276   0.00000  Uiso   1.00
C190   C     0.45337   0.81807   0.93310   0.00000  Uiso   1.00
C191   C     0.45739   0.83034   0.02202   0.00000  Uiso   1.00
C192   C     0.38441   0.84331   0.06436   0.00000  Uiso   1.00
C193   C     0.28351   0.86697   0.16290   0.00000  Uiso   1.00
C194   C     0.52094   0.86966   0.80545   0.00000  Uiso   1.00
C195   C     0.58176   0.92532   0.78705   0.00000  Uiso   1.00
C196   C     0.56566   0.98174   0.72194   0.00000  Uiso   1.00
C197   C     0.56967   0.08549   0.62228   0.00000  Uiso   1.00
C198   C     0.38889   0.80402   0.79115   0.00000  Uiso   1.00
C199   C     0.43459   0.72215   0.78178   0.00000  Uiso   1.00
C200   C     0.40825   0.65389   0.73464   0.00000  Uiso   1.00
C201   C     0.45887   0.58485   0.73412   0.00000  Uiso   1.00
C202   C     0.37910   0.81874   0.88807   0.00000  Uiso   1.00
C203   C     0.30610   0.83170   0.93030   0.00000  Uiso   1.00
C204   C     0.31000   0.84399   0.01926   0.00000  Uiso   1.00
C205   C     0.44667   0.87033   0.76042   0.00000  Uiso   1.00
C206   C     0.43047   0.92668   0.69533   0.00000  Uiso   1.00
C207   C     0.49126   0.98242   0.67683   0.00000  Uiso   1.00
H208   H     0.58345   0.80227   0.90911   0.00000  Uiso   1.00
H209   H     0.61701   0.65203   0.86122   0.00000  Uiso   1.00
H210   H     0.51487   0.82983   0.05684   0.00000  Uiso   1.00
H211   H     0.63923   0.92478   0.82191   0.00000  Uiso   1.00
H212   H     0.62144   0.48575   0.78829   0.00000  Uiso   1.00
H213   H     0.40609   0.86067   0.20077   0.00000  Uiso   1.00
H214   H     0.66831   0.06091   0.70537   0.00000  Uiso   1.00
H215   H     0.33107   0.80454   0.75610   0.00000  Uiso   1.00
H216   H     0.35077   0.65443   0.69980   0.00000  Uiso   1.00
H217   H     0.24864   0.83222   0.89543   0.00000  Uiso   1.00
H218   H     0.37299   0.92718   0.66050   0.00000  Uiso   1.00
H219   H     0.40535   0.48769   0.65729   0.00000  Uiso   1.00
H220   H     0.19000   0.86262   0.06976   0.00000  Uiso   1.00
H221   H     0.45223   0.06286   0.57437   0.00000  Uiso   1.00
O222   O     0.53090   0.38792   0.68854   0.00000  Uiso   1.00
O223   O     0.24837   0.87982   0.22969   0.00000  Uiso   1.00
O224   O     0.59241   0.14253   0.57974   0.00000  Uiso   1.00
N225   N     0.56789   0.50681   0.76517   0.00000  Uiso   1.00
N226   N     0.36654   0.85733   0.15081   0.00000  Uiso   1.00
N227   N     0.61170   0.04455   0.68768   0.00000  Uiso   1.00
N228   N     0.45161   0.50786   0.69468   0.00000  Uiso   1.00
N229   N     0.25027   0.85837   0.08032   0.00000  Uiso   1.00
N230   N     0.49542   0.04560   0.61718   0.00000  Uiso   1.00
C231   C     0.85709   0.52887   0.80454   0.00000  Uiso   1.00
C232   C     0.81376   0.51141   0.71867   0.00000  Uiso   1.00
C233   C     0.81310   0.56244   0.64714   0.00000  Uiso   1.00
C234   C     0.76992   0.53542   0.57473   0.00000  Uiso   1.00
C235   C     0.70891   0.51976   0.44150   0.00000  Uiso   1.00
C236   C     0.91362   0.45528   0.82014   0.00000  Uiso   1.00
C237   C     0.99693   0.45913   0.83393   0.00000  Uiso   1.00
C238   C     0.03781   0.38485   0.84694   0.00000  Uiso   1.00
C239   C     0.13183   0.28206   0.87131   0.00000  Uiso   1.00
C240   C     0.79216   0.52483   0.87384   0.00000  Uiso   1.00
C241   C     0.77335   0.58714   0.93279   0.00000  Uiso   1.00
C242   C     0.71198   0.57141   0.99103   0.00000  Uiso   1.00
C243   C     0.61741   0.57660   0.09877   0.00000  Uiso   1.00
C244   C     0.78158   0.39012   0.80315   0.00000  Uiso   1.00
C245   C     0.77274   0.43605   0.71792   0.00000  Uiso   1.00
C246   C     0.72955   0.40894   0.64560   0.00000  Uiso   1.00
C247   C     0.72883   0.45993   0.57397   0.00000  Uiso   1.00
C248   C     0.87261   0.37992   0.81939   0.00000  Uiso   1.00
C249   C     0.91338   0.30563   0.83239   0.00000  Uiso   1.00
C250   C     0.99672   0.30936   0.84618   0.00000  Uiso   1.00
C251   C     0.75114   0.44947   0.87308   0.00000  Uiso   1.00
C252   C     0.68980   0.43364   0.93125   0.00000  Uiso   1.00
C253   C     0.67089   0.49592   0.99028   0.00000  Uiso   1.00
H254   H     0.88903   0.58753   0.80512   0.00000  Uiso   1.00
H255   H     0.84486   0.62075   0.64774   0.00000  Uiso   1.00
H256   H     0.02865   0.51745   0.83451   0.00000  Uiso   1.00
H257   H     0.80510   0.64545   0.93335   0.00000  Uiso   1.00
H258   H     0.77782   0.62434   0.47291   0.00000  Uiso   1.00
H259   H     0.16535   0.40653   0.86676   0.00000  Uiso   1.00
H260   H     0.69396   0.67643   0.07519   0.00000  Uiso   1.00
H261   H     0.74965   0.33145   0.80256   0.00000  Uiso   1.00
H262   H     0.69782   0.35062   0.64504   0.00000  Uiso   1.00
H263   H     0.88162   0.24732   0.83181   0.00000  Uiso   1.00
H264   H     0.65807   0.37531   0.93065   0.00000  Uiso   1.00
H265   H     0.65848   0.40508   0.47072   0.00000  Uiso   1.00
H266   H     0.04602   0.18728   0.86456   0.00000  Uiso   1.00
H267   H     0.57462   0.45718   0.07299   0.00000  Uiso   1.00
O268   O     0.68659   0.53193   0.36823   0.00000  Uiso   1.00
O269   O     0.19502   0.24618   0.88495   0.00000  Uiso   1.00
O270   O     0.57656   0.60028   0.15840   0.00000  Uiso   1.00
N271   N     0.75683   0.57011   0.49402   0.00000  Uiso   1.00
N272   N     0.11916   0.36647   0.86223   0.00000  Uiso   1.00
N273   N     0.67846   0.61880   0.05711   0.00000  Uiso   1.00
N274   N     0.69261   0.45214   0.49284   0.00000  Uiso   1.00
N275   N     0.05494   0.24850   0.86104   0.00000  Uiso   1.00
N276   N     0.61424   0.50082   0.05593   0.00000  Uiso   1.00
