data_job_03114
_audit_creation_date              2018-12-19
_audit_creation_method            'Materials Studio'
_symmetry_space_group_name_H-M    'P1'
_symmetry_Int_Tables_number       1
_symmetry_cell_setting            triclinic
loop_
_symmetry_equiv_pos_as_xyz
  x,y,z
_cell_length_a                    19.1086
_cell_length_b                    16.1746
_cell_length_c                    29.2521
_cell_angle_alpha                 90.0000
_cell_angle_beta                  131.9158
_cell_angle_gamma                 90.0000
loop_
_atom_site_label
_atom_site_type_symbol
_atom_site_fract_x
_atom_site_fract_y
_atom_site_fract_z
_atom_site_U_iso_or_equiv
_atom_site_adp_type
_atom_site_occupancy
C1     C     0.24221   0.81643   0.33404   0.00000  Uiso   1.00
C2     C     0.26751   0.88920   0.37586   0.00000  Uiso   1.00
C3     C     0.22196   0.96506   0.35692   0.00000  Uiso   1.00
C4     C     0.25580   0.02358   0.40226   0.00000  Uiso   1.00
C5     C     0.28345   0.13914   0.45776   0.00000  Uiso   1.00
C6     C     0.33139   0.79544   0.34642   0.00000  Uiso   1.00
C7     C     0.33954   0.79246   0.30273   0.00000  Uiso   1.00
C8     C     0.42715   0.77204   0.32330   0.00000  Uiso   1.00
C9     C     0.55396   0.74198   0.33309   0.00000  Uiso   1.00
C10    C     0.22443   0.74342   0.35810   0.00000  Uiso   1.00
C11    C     0.14266   0.69669   0.32423   0.00000  Uiso   1.00
C12    C     0.14022   0.63246   0.35463   0.00000  Uiso   1.00
C13    C     0.10095   0.52164   0.38255   0.00000  Uiso   1.00
C14    C     0.38329   0.78544   0.44825   0.00000  Uiso   1.00
C15    C     0.34414   0.87236   0.43789   0.00000  Uiso   1.00
C16    C     0.37805   0.93078   0.48328   0.00000  Uiso   1.00
C17    C     0.33256   0.00671   0.46442   0.00000  Uiso   1.00
C18    C     0.40802   0.77861   0.40846   0.00000  Uiso   1.00
C19    C     0.49563   0.75818   0.42910   0.00000  Uiso   1.00
C20    C     0.50392   0.75517   0.38545   0.00000  Uiso   1.00
C21    C     0.30106   0.72659   0.42014   0.00000  Uiso   1.00
C22    C     0.29875   0.66241   0.45060   0.00000  Uiso   1.00
C23    C     0.21699   0.61559   0.41678   0.00000  Uiso   1.00
H24    H     0.18256   0.82953   0.28574   0.00000  Uiso   1.00
H25    H     0.16267   0.97807   0.30890   0.00000  Uiso   1.00
H26    H     0.28023   0.80548   0.25472   0.00000  Uiso   1.00
H27    H     0.08337   0.70973   0.27622   0.00000  Uiso   1.00
H28    H     0.17443   0.13533   0.36194   0.00000  Uiso   1.00
H29    H     0.42231   0.77140   0.24770   0.00000  Uiso   1.00
H30    H     0.00719   0.56949   0.29303   0.00000  Uiso   1.00
H31    H     0.44296   0.77234   0.49655   0.00000  Uiso   1.00
H32    H     0.43735   0.91773   0.53129   0.00000  Uiso   1.00
H33    H     0.55491   0.74515   0.47711   0.00000  Uiso   1.00
H34    H     0.35806   0.64940   0.49861   0.00000  Uiso   1.00
H35    H     0.39738   0.08637   0.54244   0.00000  Uiso   1.00
H36    H     0.64525   0.72243   0.42820   0.00000  Uiso   1.00
H37    H     0.23014   0.52053   0.47353   0.00000  Uiso   1.00
O38    O     0.27754   0.20754   0.47123   0.00000  Uiso   1.00
O39    O     0.60274   0.73006   0.32135   0.00000  Uiso   1.00
O40    O     0.05812   0.46517   0.38082   0.00000  Uiso   1.00
N41    N     0.22766   0.10385   0.39965   0.00000  Uiso   1.00
N42    N     0.45941   0.76361   0.29285   0.00000  Uiso   1.00
N43    N     0.07133   0.57483   0.33522   0.00000  Uiso   1.00
N44    N     0.34763   0.07750   0.49678   0.00000  Uiso   1.00
N45    N     0.57938   0.73726   0.38997   0.00000  Uiso   1.00
N46    N     0.19129   0.54848   0.43235   0.00000  Uiso   1.00
C47    C     0.74221   0.31643   0.33404   0.00000  Uiso   1.00
C48    C     0.76751   0.38920   0.37586   0.00000  Uiso   1.00
C49    C     0.72196   0.46506   0.35692   0.00000  Uiso   1.00
C50    C     0.75580   0.52358   0.40226   0.00000  Uiso   1.00
C51    C     0.78345   0.63914   0.45776   0.00000  Uiso   1.00
C52    C     0.83139   0.29544   0.34642   0.00000  Uiso   1.00
C53    C     0.83954   0.29246   0.30273   0.00000  Uiso   1.00
C54    C     0.92715   0.27204   0.32330   0.00000  Uiso   1.00
C55    C     0.05396   0.24198   0.33309   0.00000  Uiso   1.00
C56    C     0.72443   0.24342   0.35810   0.00000  Uiso   1.00
C57    C     0.64266   0.19669   0.32423   0.00000  Uiso   1.00
C58    C     0.64022   0.13246   0.35463   0.00000  Uiso   1.00
C59    C     0.60095   0.02164   0.38255   0.00000  Uiso   1.00
C60    C     0.88329   0.28544   0.44825   0.00000  Uiso   1.00
C61    C     0.84414   0.37236   0.43789   0.00000  Uiso   1.00
C62    C     0.87805   0.43078   0.48328   0.00000  Uiso   1.00
C63    C     0.83256   0.50671   0.46442   0.00000  Uiso   1.00
C64    C     0.90802   0.27861   0.40846   0.00000  Uiso   1.00
C65    C     0.99563   0.25818   0.42910   0.00000  Uiso   1.00
C66    C     0.00392   0.25517   0.38545   0.00000  Uiso   1.00
C67    C     0.80106   0.22659   0.42014   0.00000  Uiso   1.00
C68    C     0.79875   0.16241   0.45060   0.00000  Uiso   1.00
C69    C     0.71699   0.11559   0.41678   0.00000  Uiso   1.00
H70    H     0.68256   0.32953   0.28574   0.00000  Uiso   1.00
H71    H     0.66267   0.47807   0.30890   0.00000  Uiso   1.00
H72    H     0.78023   0.30548   0.25472   0.00000  Uiso   1.00
H73    H     0.58337   0.20973   0.27622   0.00000  Uiso   1.00
H74    H     0.67443   0.63533   0.36194   0.00000  Uiso   1.00
H75    H     0.92231   0.27140   0.24770   0.00000  Uiso   1.00
H76    H     0.50719   0.06949   0.29303   0.00000  Uiso   1.00
H77    H     0.94296   0.27234   0.49655   0.00000  Uiso   1.00
H78    H     0.93735   0.41773   0.53129   0.00000  Uiso   1.00
H79    H     0.05491   0.24515   0.47711   0.00000  Uiso   1.00
H80    H     0.85806   0.14940   0.49861   0.00000  Uiso   1.00
H81    H     0.89738   0.58637   0.54244   0.00000  Uiso   1.00
H82    H     0.14525   0.22243   0.42820   0.00000  Uiso   1.00
H83    H     0.73014   0.02053   0.47353   0.00000  Uiso   1.00
O84    O     0.77754   0.70754   0.47123   0.00000  Uiso   1.00
O85    O     0.10274   0.23006   0.32135   0.00000  Uiso   1.00
O86    O     0.55812   0.96517   0.38082   0.00000  Uiso   1.00
N87    N     0.72766   0.60385   0.39965   0.00000  Uiso   1.00
N88    N     0.95941   0.26361   0.29285   0.00000  Uiso   1.00
N89    N     0.57133   0.07483   0.33522   0.00000  Uiso   1.00
N90    N     0.84763   0.57750   0.49678   0.00000  Uiso   1.00
N91    N     0.07938   0.23726   0.38997   0.00000  Uiso   1.00
N92    N     0.69129   0.04848   0.43235   0.00000  Uiso   1.00
C93    C     0.75779   0.81643   0.16596   0.00000  Uiso   1.00
C94    C     0.73249   0.88920   0.12414   0.00000  Uiso   1.00
C95    C     0.77804   0.96506   0.14308   0.00000  Uiso   1.00
C96    C     0.74420   0.02358   0.09774   0.00000  Uiso   1.00
C97    C     0.71655   0.13914   0.04224   0.00000  Uiso   1.00
C98    C     0.66861   0.79544   0.15358   0.00000  Uiso   1.00
C99    C     0.66046   0.79246   0.19727   0.00000  Uiso   1.00
C100   C     0.57285   0.77204   0.17670   0.00000  Uiso   1.00
C101   C     0.44604   0.74198   0.16691   0.00000  Uiso   1.00
C102   C     0.77557   0.74342   0.14190   0.00000  Uiso   1.00
C103   C     0.85734   0.69669   0.17577   0.00000  Uiso   1.00
C104   C     0.85978   0.63246   0.14537   0.00000  Uiso   1.00
C105   C     0.89905   0.52164   0.11745   0.00000  Uiso   1.00
C106   C     0.61671   0.78544   0.05175   0.00000  Uiso   1.00
C107   C     0.65586   0.87236   0.06211   0.00000  Uiso   1.00
C108   C     0.62195   0.93078   0.01672   0.00000  Uiso   1.00
C109   C     0.66744   0.00671   0.03558   0.00000  Uiso   1.00
C110   C     0.59198   0.77861   0.09154   0.00000  Uiso   1.00
C111   C     0.50437   0.75818   0.07090   0.00000  Uiso   1.00
C112   C     0.49608   0.75517   0.11455   0.00000  Uiso   1.00
C113   C     0.69894   0.72659   0.07986   0.00000  Uiso   1.00
C114   C     0.70125   0.66241   0.04940   0.00000  Uiso   1.00
C115   C     0.78301   0.61559   0.08322   0.00000  Uiso   1.00
H116   H     0.81744   0.82953   0.21426   0.00000  Uiso   1.00
H117   H     0.83733   0.97807   0.19110   0.00000  Uiso   1.00
H118   H     0.71977   0.80548   0.24528   0.00000  Uiso   1.00
H119   H     0.91663   0.70973   0.22378   0.00000  Uiso   1.00
H120   H     0.82557   0.13533   0.13806   0.00000  Uiso   1.00
H121   H     0.57769   0.77140   0.25230   0.00000  Uiso   1.00
H122   H     0.99281   0.56949   0.20697   0.00000  Uiso   1.00
H123   H     0.55704   0.77234   0.00345   0.00000  Uiso   1.00
H124   H     0.56265   0.91773   0.96871   0.00000  Uiso   1.00
H125   H     0.44509   0.74515   0.02289   0.00000  Uiso   1.00
H126   H     0.64194   0.64940   0.00139   0.00000  Uiso   1.00
H127   H     0.60262   0.08637   0.95756   0.00000  Uiso   1.00
H128   H     0.35475   0.72243   0.07180   0.00000  Uiso   1.00
H129   H     0.76986   0.52053   0.02647   0.00000  Uiso   1.00
O130   O     0.72246   0.20754   0.02877   0.00000  Uiso   1.00
O131   O     0.39726   0.73006   0.17865   0.00000  Uiso   1.00
O132   O     0.94188   0.46517   0.11918   0.00000  Uiso   1.00
N133   N     0.77234   0.10385   0.10035   0.00000  Uiso   1.00
N134   N     0.54059   0.76361   0.20715   0.00000  Uiso   1.00
N135   N     0.92867   0.57483   0.16478   0.00000  Uiso   1.00
N136   N     0.65237   0.07750   0.00322   0.00000  Uiso   1.00
N137   N     0.42062   0.73726   0.11003   0.00000  Uiso   1.00
N138   N     0.80871   0.54848   0.06765   0.00000  Uiso   1.00
C139   C     0.25779   0.31643   0.16596   0.00000  Uiso   1.00
C140   C     0.23249   0.38920   0.12414   0.00000  Uiso   1.00
C141   C     0.27804   0.46506   0.14308   0.00000  Uiso   1.00
C142   C     0.24420   0.52358   0.09774   0.00000  Uiso   1.00
C143   C     0.21655   0.63914   0.04224   0.00000  Uiso   1.00
C144   C     0.16861   0.29544   0.15358   0.00000  Uiso   1.00
C145   C     0.16046   0.29246   0.19727   0.00000  Uiso   1.00
C146   C     0.07285   0.27204   0.17670   0.00000  Uiso   1.00
C147   C     0.94604   0.24198   0.16691   0.00000  Uiso   1.00
C148   C     0.27557   0.24342   0.14190   0.00000  Uiso   1.00
C149   C     0.35734   0.19669   0.17577   0.00000  Uiso   1.00
C150   C     0.35978   0.13246   0.14537   0.00000  Uiso   1.00
C151   C     0.39905   0.02164   0.11745   0.00000  Uiso   1.00
C152   C     0.11671   0.28544   0.05175   0.00000  Uiso   1.00
C153   C     0.15586   0.37236   0.06211   0.00000  Uiso   1.00
C154   C     0.12195   0.43078   0.01672   0.00000  Uiso   1.00
C155   C     0.16744   0.50671   0.03558   0.00000  Uiso   1.00
C156   C     0.09198   0.27861   0.09154   0.00000  Uiso   1.00
C157   C     0.00437   0.25818   0.07090   0.00000  Uiso   1.00
C158   C     0.99608   0.25517   0.11455   0.00000  Uiso   1.00
C159   C     0.19894   0.22659   0.07986   0.00000  Uiso   1.00
C160   C     0.20125   0.16241   0.04940   0.00000  Uiso   1.00
C161   C     0.28301   0.11559   0.08322   0.00000  Uiso   1.00
H162   H     0.31744   0.32953   0.21426   0.00000  Uiso   1.00
H163   H     0.33733   0.47807   0.19110   0.00000  Uiso   1.00
H164   H     0.21977   0.30548   0.24528   0.00000  Uiso   1.00
H165   H     0.41663   0.20973   0.22378   0.00000  Uiso   1.00
H166   H     0.32557   0.63533   0.13806   0.00000  Uiso   1.00
H167   H     0.07769   0.27140   0.25230   0.00000  Uiso   1.00
H168   H     0.49281   0.06949   0.20697   0.00000  Uiso   1.00
H169   H     0.05704   0.27234   0.00345   0.00000  Uiso   1.00
H170   H     0.06265   0.41773   0.96871   0.00000  Uiso   1.00
H171   H     0.94509   0.24515   0.02289   0.00000  Uiso   1.00
H172   H     0.14194   0.14940   0.00139   0.00000  Uiso   1.00
H173   H     0.10262   0.58637   0.95756   0.00000  Uiso   1.00
H174   H     0.85475   0.22243   0.07180   0.00000  Uiso   1.00
H175   H     0.26986   0.02053   0.02647   0.00000  Uiso   1.00
O176   O     0.22246   0.70754   0.02877   0.00000  Uiso   1.00
O177   O     0.89726   0.23006   0.17865   0.00000  Uiso   1.00
O178   O     0.44188   0.96517   0.11918   0.00000  Uiso   1.00
N179   N     0.27234   0.60385   0.10035   0.00000  Uiso   1.00
N180   N     0.04059   0.26361   0.20715   0.00000  Uiso   1.00
N181   N     0.42867   0.07483   0.16478   0.00000  Uiso   1.00
N182   N     0.15237   0.57750   0.00322   0.00000  Uiso   1.00
N183   N     0.92062   0.23726   0.11003   0.00000  Uiso   1.00
N184   N     0.30871   0.04848   0.06765   0.00000  Uiso   1.00
C185   C     0.75779   0.18357   0.66596   0.00000  Uiso   1.00
C186   C     0.73249   0.11080   0.62414   0.00000  Uiso   1.00
C187   C     0.77804   0.03494   0.64308   0.00000  Uiso   1.00
C188   C     0.74420   0.97642   0.59774   0.00000  Uiso   1.00
C189   C     0.71655   0.86086   0.54224   0.00000  Uiso   1.00
C190   C     0.66861   0.20456   0.65358   0.00000  Uiso   1.00
C191   C     0.66046   0.20754   0.69727   0.00000  Uiso   1.00
C192   C     0.57285   0.22796   0.67670   0.00000  Uiso   1.00
C193   C     0.44604   0.25802   0.66691   0.00000  Uiso   1.00
C194   C     0.77557   0.25658   0.64190   0.00000  Uiso   1.00
C195   C     0.85734   0.30331   0.67577   0.00000  Uiso   1.00
C196   C     0.85978   0.36754   0.64537   0.00000  Uiso   1.00
C197   C     0.89905   0.47836   0.61745   0.00000  Uiso   1.00
C198   C     0.61671   0.21456   0.55175   0.00000  Uiso   1.00
C199   C     0.65586   0.12764   0.56211   0.00000  Uiso   1.00
C200   C     0.62195   0.06922   0.51672   0.00000  Uiso   1.00
C201   C     0.66744   0.99329   0.53558   0.00000  Uiso   1.00
C202   C     0.59198   0.22139   0.59154   0.00000  Uiso   1.00
C203   C     0.50437   0.24182   0.57090   0.00000  Uiso   1.00
C204   C     0.49608   0.24483   0.61455   0.00000  Uiso   1.00
C205   C     0.69894   0.27341   0.57986   0.00000  Uiso   1.00
C206   C     0.70125   0.33759   0.54940   0.00000  Uiso   1.00
C207   C     0.78301   0.38441   0.58322   0.00000  Uiso   1.00
H208   H     0.81744   0.17047   0.71426   0.00000  Uiso   1.00
H209   H     0.83733   0.02193   0.69110   0.00000  Uiso   1.00
H210   H     0.71977   0.19452   0.74528   0.00000  Uiso   1.00
H211   H     0.91663   0.29027   0.72378   0.00000  Uiso   1.00
H212   H     0.82557   0.86467   0.63806   0.00000  Uiso   1.00
H213   H     0.57769   0.22860   0.75230   0.00000  Uiso   1.00
H214   H     0.99281   0.43051   0.70697   0.00000  Uiso   1.00
H215   H     0.55704   0.22766   0.50345   0.00000  Uiso   1.00
H216   H     0.56265   0.08227   0.46871   0.00000  Uiso   1.00
H217   H     0.44509   0.25485   0.52289   0.00000  Uiso   1.00
H218   H     0.64194   0.35060   0.50139   0.00000  Uiso   1.00
H219   H     0.60262   0.91363   0.45756   0.00000  Uiso   1.00
H220   H     0.35475   0.27757   0.57180   0.00000  Uiso   1.00
H221   H     0.76986   0.47947   0.52647   0.00000  Uiso   1.00
O222   O     0.72246   0.79246   0.52877   0.00000  Uiso   1.00
O223   O     0.39726   0.26994   0.67865   0.00000  Uiso   1.00
O224   O     0.94188   0.53483   0.61918   0.00000  Uiso   1.00
N225   N     0.77234   0.89615   0.60035   0.00000  Uiso   1.00
N226   N     0.54059   0.23639   0.70715   0.00000  Uiso   1.00
N227   N     0.92867   0.42517   0.66478   0.00000  Uiso   1.00
N228   N     0.65237   0.92250   0.50322   0.00000  Uiso   1.00
N229   N     0.42062   0.26274   0.61003   0.00000  Uiso   1.00
N230   N     0.80871   0.45152   0.56765   0.00000  Uiso   1.00
C231   C     0.25779   0.68357   0.66596   0.00000  Uiso   1.00
C232   C     0.23249   0.61080   0.62414   0.00000  Uiso   1.00
C233   C     0.27804   0.53494   0.64308   0.00000  Uiso   1.00
C234   C     0.24420   0.47642   0.59774   0.00000  Uiso   1.00
C235   C     0.21655   0.36086   0.54224   0.00000  Uiso   1.00
C236   C     0.16861   0.70456   0.65358   0.00000  Uiso   1.00
C237   C     0.16046   0.70754   0.69727   0.00000  Uiso   1.00
C238   C     0.07285   0.72796   0.67670   0.00000  Uiso   1.00
C239   C     0.94604   0.75802   0.66691   0.00000  Uiso   1.00
C240   C     0.27557   0.75658   0.64190   0.00000  Uiso   1.00
C241   C     0.35734   0.80331   0.67577   0.00000  Uiso   1.00
C242   C     0.35978   0.86754   0.64537   0.00000  Uiso   1.00
C243   C     0.39905   0.97836   0.61745   0.00000  Uiso   1.00
C244   C     0.11671   0.71456   0.55175   0.00000  Uiso   1.00
C245   C     0.15586   0.62764   0.56211   0.00000  Uiso   1.00
C246   C     0.12195   0.56922   0.51672   0.00000  Uiso   1.00
C247   C     0.16744   0.49329   0.53558   0.00000  Uiso   1.00
C248   C     0.09198   0.72139   0.59154   0.00000  Uiso   1.00
C249   C     0.00437   0.74182   0.57090   0.00000  Uiso   1.00
C250   C     0.99608   0.74483   0.61455   0.00000  Uiso   1.00
C251   C     0.19894   0.77341   0.57986   0.00000  Uiso   1.00
C252   C     0.20125   0.83759   0.54940   0.00000  Uiso   1.00
C253   C     0.28301   0.88441   0.58322   0.00000  Uiso   1.00
H254   H     0.31744   0.67047   0.71426   0.00000  Uiso   1.00
H255   H     0.33733   0.52193   0.69110   0.00000  Uiso   1.00
H256   H     0.21977   0.69452   0.74528   0.00000  Uiso   1.00
H257   H     0.41663   0.79027   0.72378   0.00000  Uiso   1.00
H258   H     0.32557   0.36467   0.63806   0.00000  Uiso   1.00
H259   H     0.07769   0.72860   0.75230   0.00000  Uiso   1.00
H260   H     0.49281   0.93051   0.70697   0.00000  Uiso   1.00
H261   H     0.05704   0.72766   0.50345   0.00000  Uiso   1.00
H262   H     0.06265   0.58227   0.46871   0.00000  Uiso   1.00
H263   H     0.94509   0.75485   0.52289   0.00000  Uiso   1.00
H264   H     0.14194   0.85060   0.50139   0.00000  Uiso   1.00
H265   H     0.10262   0.41363   0.45756   0.00000  Uiso   1.00
H266   H     0.85475   0.77757   0.57180   0.00000  Uiso   1.00
H267   H     0.26986   0.97947   0.52647   0.00000  Uiso   1.00
O268   O     0.22246   0.29246   0.52877   0.00000  Uiso   1.00
O269   O     0.89726   0.76994   0.67865   0.00000  Uiso   1.00
O270   O     0.44188   0.03483   0.61918   0.00000  Uiso   1.00
N271   N     0.27234   0.39615   0.60035   0.00000  Uiso   1.00
N272   N     0.04059   0.73639   0.70715   0.00000  Uiso   1.00
N273   N     0.42867   0.92517   0.66478   0.00000  Uiso   1.00
N274   N     0.15237   0.42250   0.50322   0.00000  Uiso   1.00
N275   N     0.92062   0.76274   0.61003   0.00000  Uiso   1.00
N276   N     0.30871   0.95152   0.56765   0.00000  Uiso   1.00
C277   C     0.24221   0.18357   0.83404   0.00000  Uiso   1.00
C278   C     0.26751   0.11080   0.87586   0.00000  Uiso   1.00
C279   C     0.22196   0.03494   0.85692   0.00000  Uiso   1.00
C280   C     0.25580   0.97642   0.90226   0.00000  Uiso   1.00
C281   C     0.28345   0.86086   0.95776   0.00000  Uiso   1.00
C282   C     0.33139   0.20456   0.84642   0.00000  Uiso   1.00
C283   C     0.33954   0.20754   0.80273   0.00000  Uiso   1.00
C284   C     0.42715   0.22796   0.82330   0.00000  Uiso   1.00
C285   C     0.55396   0.25802   0.83309   0.00000  Uiso   1.00
C286   C     0.22443   0.25658   0.85810   0.00000  Uiso   1.00
C287   C     0.14266   0.30331   0.82423   0.00000  Uiso   1.00
C288   C     0.14022   0.36754   0.85463   0.00000  Uiso   1.00
C289   C     0.10095   0.47836   0.88255   0.00000  Uiso   1.00
C290   C     0.38329   0.21456   0.94825   0.00000  Uiso   1.00
C291   C     0.34414   0.12764   0.93789   0.00000  Uiso   1.00
C292   C     0.37805   0.06922   0.98328   0.00000  Uiso   1.00
C293   C     0.33256   0.99329   0.96442   0.00000  Uiso   1.00
C294   C     0.40802   0.22139   0.90846   0.00000  Uiso   1.00
C295   C     0.49563   0.24182   0.92910   0.00000  Uiso   1.00
C296   C     0.50392   0.24483   0.88545   0.00000  Uiso   1.00
C297   C     0.30106   0.27341   0.92014   0.00000  Uiso   1.00
C298   C     0.29875   0.33759   0.95060   0.00000  Uiso   1.00
C299   C     0.21699   0.38441   0.91678   0.00000  Uiso   1.00
H300   H     0.18256   0.17047   0.78574   0.00000  Uiso   1.00
H301   H     0.16267   0.02193   0.80890   0.00000  Uiso   1.00
H302   H     0.28023   0.19452   0.75472   0.00000  Uiso   1.00
H303   H     0.08337   0.29027   0.77622   0.00000  Uiso   1.00
H304   H     0.17443   0.86467   0.86194   0.00000  Uiso   1.00
H305   H     0.42231   0.22860   0.74770   0.00000  Uiso   1.00
H306   H     0.00719   0.43051   0.79303   0.00000  Uiso   1.00
H307   H     0.44296   0.22766   0.99655   0.00000  Uiso   1.00
H308   H     0.43735   0.08227   0.03129   0.00000  Uiso   1.00
H309   H     0.55491   0.25485   0.97711   0.00000  Uiso   1.00
H310   H     0.35806   0.35060   0.99861   0.00000  Uiso   1.00
H311   H     0.39738   0.91363   0.04244   0.00000  Uiso   1.00
H312   H     0.64525   0.27757   0.92820   0.00000  Uiso   1.00
H313   H     0.23014   0.47947   0.97353   0.00000  Uiso   1.00
O314   O     0.27754   0.79246   0.97123   0.00000  Uiso   1.00
O315   O     0.60274   0.26994   0.82135   0.00000  Uiso   1.00
O316   O     0.05812   0.53483   0.88082   0.00000  Uiso   1.00
N317   N     0.22766   0.89615   0.89965   0.00000  Uiso   1.00
N318   N     0.45941   0.23639   0.79285   0.00000  Uiso   1.00
N319   N     0.07133   0.42517   0.83522   0.00000  Uiso   1.00
N320   N     0.34763   0.92250   0.99678   0.00000  Uiso   1.00
N321   N     0.57938   0.26274   0.88997   0.00000  Uiso   1.00
N322   N     0.19129   0.45152   0.93235   0.00000  Uiso   1.00
C323   C     0.74221   0.68357   0.83404   0.00000  Uiso   1.00
C324   C     0.76751   0.61080   0.87586   0.00000  Uiso   1.00
C325   C     0.72196   0.53494   0.85692   0.00000  Uiso   1.00
C326   C     0.75580   0.47642   0.90226   0.00000  Uiso   1.00
C327   C     0.78345   0.36086   0.95776   0.00000  Uiso   1.00
C328   C     0.83139   0.70456   0.84642   0.00000  Uiso   1.00
C329   C     0.83954   0.70754   0.80273   0.00000  Uiso   1.00
C330   C     0.92715   0.72796   0.82330   0.00000  Uiso   1.00
C331   C     0.05396   0.75802   0.83309   0.00000  Uiso   1.00
C332   C     0.72443   0.75658   0.85810   0.00000  Uiso   1.00
C333   C     0.64266   0.80331   0.82423   0.00000  Uiso   1.00
C334   C     0.64022   0.86754   0.85463   0.00000  Uiso   1.00
C335   C     0.60095   0.97836   0.88255   0.00000  Uiso   1.00
C336   C     0.88329   0.71456   0.94825   0.00000  Uiso   1.00
C337   C     0.84414   0.62764   0.93789   0.00000  Uiso   1.00
C338   C     0.87805   0.56922   0.98328   0.00000  Uiso   1.00
C339   C     0.83256   0.49329   0.96442   0.00000  Uiso   1.00
C340   C     0.90802   0.72139   0.90846   0.00000  Uiso   1.00
C341   C     0.99563   0.74182   0.92910   0.00000  Uiso   1.00
C342   C     0.00392   0.74483   0.88545   0.00000  Uiso   1.00
C343   C     0.80106   0.77341   0.92014   0.00000  Uiso   1.00
C344   C     0.79875   0.83759   0.95060   0.00000  Uiso   1.00
C345   C     0.71699   0.88441   0.91678   0.00000  Uiso   1.00
H346   H     0.68256   0.67047   0.78574   0.00000  Uiso   1.00
H347   H     0.66267   0.52193   0.80890   0.00000  Uiso   1.00
H348   H     0.78023   0.69452   0.75472   0.00000  Uiso   1.00
H349   H     0.58337   0.79027   0.77622   0.00000  Uiso   1.00
H350   H     0.67443   0.36467   0.86194   0.00000  Uiso   1.00
H351   H     0.92231   0.72860   0.74770   0.00000  Uiso   1.00
H352   H     0.50719   0.93051   0.79303   0.00000  Uiso   1.00
H353   H     0.94296   0.72766   0.99655   0.00000  Uiso   1.00
H354   H     0.93735   0.58227   0.03129   0.00000  Uiso   1.00
H355   H     0.05491   0.75485   0.97711   0.00000  Uiso   1.00
H356   H     0.85806   0.85060   0.99861   0.00000  Uiso   1.00
H357   H     0.89738   0.41363   0.04244   0.00000  Uiso   1.00
H358   H     0.14525   0.77757   0.92820   0.00000  Uiso   1.00
H359   H     0.73014   0.97947   0.97353   0.00000  Uiso   1.00
O360   O     0.77754   0.29246   0.97123   0.00000  Uiso   1.00
O361   O     0.10274   0.76994   0.82135   0.00000  Uiso   1.00
O362   O     0.55812   0.03483   0.88082   0.00000  Uiso   1.00
N363   N     0.72766   0.39615   0.89965   0.00000  Uiso   1.00
N364   N     0.95941   0.73639   0.79285   0.00000  Uiso   1.00
N365   N     0.57133   0.92517   0.83522   0.00000  Uiso   1.00
N366   N     0.84763   0.42250   0.99678   0.00000  Uiso   1.00
N367   N     0.07938   0.76274   0.88997   0.00000  Uiso   1.00
N368   N     0.69129   0.95152   0.93235   0.00000  Uiso   1.00
