data_job_05099
_audit_creation_date              2018-12-19
_audit_creation_method            'Materials Studio'
_symmetry_space_group_name_H-M    'P1'
_symmetry_Int_Tables_number       1
_symmetry_cell_setting            triclinic
loop_
_symmetry_equiv_pos_as_xyz
  x,y,z
_cell_length_a                    7.6028
_cell_length_b                    16.9303
_cell_length_c                    20.4792
_cell_angle_alpha                 99.4152
_cell_angle_beta                  89.0067
_cell_angle_gamma                 90.7427
loop_
_atom_site_label
_atom_site_type_symbol
_atom_site_fract_x
_atom_site_fract_y
_atom_site_fract_z
_atom_site_U_iso_or_equiv
_atom_site_adp_type
_atom_site_occupancy
C1     C     0.32547   0.19583   0.38880   0.00000  Uiso   1.00
C2     C     0.46036   0.26089   0.41337   0.00000  Uiso   1.00
C3     C     0.44135   0.31934   0.46897   0.00000  Uiso   1.00
C4     C     0.57972   0.37342   0.48310   0.00000  Uiso   1.00
C5     C     0.76604   0.47511   0.52733   0.00000  Uiso   1.00
C6     C     0.28709   0.20479   0.31756   0.00000  Uiso   1.00
C7     C     0.12238   0.21606   0.29259   0.00000  Uiso   1.00
C8     C     0.11489   0.22291   0.22606   0.00000  Uiso   1.00
C9     C     0.03218   0.23745   0.12152   0.00000  Uiso   1.00
C10    C     0.42053   0.11640   0.38492   0.00000  Uiso   1.00
C11    C     0.36801   0.05334   0.41658   0.00000  Uiso   1.00
C12    C     0.47285   0.98576   0.40674   0.00000  Uiso   1.00
C13    C     0.59732   0.86306   0.40679   0.00000  Uiso   1.00
C14    C     0.60502   0.18793   0.31503   0.00000  Uiso   1.00
C15    C     0.61220   0.25659   0.37330   0.00000  Uiso   1.00
C16    C     0.75064   0.31059   0.38735   0.00000  Uiso   1.00
C17    C     0.73184   0.36911   0.44296   0.00000  Uiso   1.00
C18    C     0.43892   0.20050   0.27748   0.00000  Uiso   1.00
C19    C     0.43167   0.20732   0.21097   0.00000  Uiso   1.00
C20    C     0.26701   0.21861   0.18591   0.00000  Uiso   1.00
C21    C     0.57237   0.11211   0.34485   0.00000  Uiso   1.00
C22    C     0.67730   0.04460   0.33496   0.00000  Uiso   1.00
C23    C     0.62496   0.98146   0.36660   0.00000  Uiso   1.00
H24    H     0.20725   0.19917   0.41999   0.00000  Uiso   1.00
H25    H     0.32382   0.32264   0.49996   0.00000  Uiso   1.00
H26    H     0.00490   0.21937   0.32361   0.00000  Uiso   1.00
H27    H     0.25050   0.05668   0.44758   0.00000  Uiso   1.00
H28    H     0.51999   0.45766   0.57094   0.00000  Uiso   1.00
H29    H     0.84753   0.23989   0.19909   0.00000  Uiso   1.00
H30    H     0.36540   0.89682   0.46050   0.00000  Uiso   1.00
H31    H     0.72324   0.18458   0.28383   0.00000  Uiso   1.00
H32    H     0.86813   0.30726   0.35633   0.00000  Uiso   1.00
H33    H     0.54920   0.20399   0.17998   0.00000  Uiso   1.00
H34    H     0.79480   0.04130   0.30394   0.00000  Uiso   1.00
H35    H     0.96177   0.44518   0.45436   0.00000  Uiso   1.00
H36    H     0.28930   0.22740   0.08250   0.00000  Uiso   1.00
H37    H     0.80718   0.88433   0.34392   0.00000  Uiso   1.00
O38    O     0.82685   0.53240   0.56279   0.00000  Uiso   1.00
O39    O     0.94460   0.24667   0.07493   0.00000  Uiso   1.00
O40    O     0.62405   0.79658   0.41790   0.00000  Uiso   1.00
N41    N     0.60409   0.43788   0.53356   0.00000  Uiso   1.00
N42    N     0.97538   0.23429   0.18590   0.00000  Uiso   1.00
N43    N     0.45953   0.91354   0.43029   0.00000  Uiso   1.00
N44    N     0.84181   0.43116   0.47083   0.00000  Uiso   1.00
N45    N     0.21310   0.22757   0.12317   0.00000  Uiso   1.00
N46    N     0.69725   0.90682   0.36755   0.00000  Uiso   1.00
C47    C     0.95201   0.31555   0.84673   0.00000  Uiso   1.00
C48    C     0.86531   0.24922   0.87855   0.00000  Uiso   1.00
C49    C     0.95078   0.19872   0.91432   0.00000  Uiso   1.00
C50    C     0.84810   0.14188   0.93940   0.00000  Uiso   1.00
C51    C     0.74111   0.03978   0.99035   0.00000  Uiso   1.00
C52    C     0.90627   0.29756   0.77356   0.00000  Uiso   1.00
C53    C     0.02619   0.28771   0.72106   0.00000  Uiso   1.00
C54    C     0.95799   0.27157   0.65776   0.00000  Uiso   1.00
C55    C     0.91459   0.24458   0.54571   0.00000  Uiso   1.00
C56    C     0.85534   0.39224   0.87502   0.00000  Uiso   1.00
C57    C     0.93243   0.46201   0.90782   0.00000  Uiso   1.00
C58    C     0.82134   0.52559   0.92993   0.00000  Uiso   1.00
C59    C     0.69887   0.64559   0.97540   0.00000  Uiso   1.00
C60    C     0.61767   0.30441   0.82766   0.00000  Uiso   1.00
C61    C     0.68370   0.24317   0.86818   0.00000  Uiso   1.00
C62    C     0.58086   0.18639   0.89322   0.00000  Uiso   1.00
C63    C     0.66617   0.13582   0.92903   0.00000  Uiso   1.00
C64    C     0.72468   0.29151   0.76320   0.00000  Uiso   1.00
C65    C     0.65628   0.27539   0.69996   0.00000  Uiso   1.00
C66    C     0.77606   0.26551   0.64738   0.00000  Uiso   1.00
C67    C     0.67373   0.38619   0.86466   0.00000  Uiso   1.00
C68    C     0.56251   0.44968   0.88672   0.00000  Uiso   1.00
C69    C     0.63941   0.51953   0.91954   0.00000  Uiso   1.00
H70    H     0.09340   0.32026   0.85480   0.00000  Uiso   1.00
H71    H     0.09132   0.20342   0.92232   0.00000  Uiso   1.00
H72    H     0.16672   0.29241   0.72910   0.00000  Uiso   1.00
H73    H     0.07296   0.46667   0.91582   0.00000  Uiso   1.00
H74    H     0.00895   0.07118   0.99260   0.00000  Uiso   1.00
H75    H     0.16792   0.25885   0.58517   0.00000  Uiso   1.00
H76    H     0.97023   0.62631   0.97892   0.00000  Uiso   1.00
H77    H     0.47628   0.29970   0.81959   0.00000  Uiso   1.00
H78    H     0.44033   0.18173   0.88519   0.00000  Uiso   1.00
H79    H     0.51574   0.27071   0.69196   0.00000  Uiso   1.00
H80    H     0.42198   0.44497   0.87869   0.00000  Uiso   1.00
H81    H     0.48058   0.05358   0.96246   0.00000  Uiso   1.00
H82    H     0.63956   0.24124   0.55503   0.00000  Uiso   1.00
H83    H     0.44187   0.60871   0.94878   0.00000  Uiso   1.00
O84    O     0.73226   0.98513   0.02130   0.00000  Uiso   1.00
O85    O     0.94084   0.23135   0.48677   0.00000  Uiso   1.00
O86    O     0.68147   0.71345   0.00336   0.00000  Uiso   1.00
N87    N     0.88952   0.08324   0.97652   0.00000  Uiso   1.00
N88    N     0.03816   0.25868   0.59559   0.00000  Uiso   1.00
N89    N     0.85334   0.60224   0.96370   0.00000  Uiso   1.00
N90    N     0.60521   0.07377   0.96030   0.00000  Uiso   1.00
N91    N     0.75385   0.24921   0.57937   0.00000  Uiso   1.00
N92    N     0.56903   0.59277   0.94748   0.00000  Uiso   1.00
C93    C     0.67453   0.80417   0.61120   0.00000  Uiso   1.00
C94    C     0.53964   0.73911   0.58663   0.00000  Uiso   1.00
C95    C     0.55865   0.68066   0.53103   0.00000  Uiso   1.00
C96    C     0.42028   0.62658   0.51690   0.00000  Uiso   1.00
C97    C     0.23396   0.52489   0.47267   0.00000  Uiso   1.00
C98    C     0.71291   0.79521   0.68244   0.00000  Uiso   1.00
C99    C     0.87762   0.78394   0.70741   0.00000  Uiso   1.00
C100   C     0.88511   0.77709   0.77394   0.00000  Uiso   1.00
C101   C     0.96782   0.76255   0.87848   0.00000  Uiso   1.00
C102   C     0.57947   0.88360   0.61508   0.00000  Uiso   1.00
C103   C     0.63199   0.94666   0.58342   0.00000  Uiso   1.00
C104   C     0.52715   0.01424   0.59326   0.00000  Uiso   1.00
C105   C     0.40268   0.13694   0.59321   0.00000  Uiso   1.00
C106   C     0.39498   0.81207   0.68497   0.00000  Uiso   1.00
C107   C     0.38780   0.74341   0.62670   0.00000  Uiso   1.00
C108   C     0.24936   0.68941   0.61265   0.00000  Uiso   1.00
C109   C     0.26816   0.63089   0.55704   0.00000  Uiso   1.00
C110   C     0.56108   0.79950   0.72252   0.00000  Uiso   1.00
C111   C     0.56833   0.79268   0.78903   0.00000  Uiso   1.00
C112   C     0.73299   0.78139   0.81409   0.00000  Uiso   1.00
C113   C     0.42763   0.88789   0.65515   0.00000  Uiso   1.00
C114   C     0.32270   0.95540   0.66504   0.00000  Uiso   1.00
C115   C     0.37504   0.01854   0.63340   0.00000  Uiso   1.00
H116   H     0.79275   0.80083   0.58001   0.00000  Uiso   1.00
H117   H     0.67618   0.67736   0.50004   0.00000  Uiso   1.00
H118   H     0.99510   0.78063   0.67639   0.00000  Uiso   1.00
H119   H     0.74950   0.94332   0.55242   0.00000  Uiso   1.00
H120   H     0.48001   0.54234   0.42906   0.00000  Uiso   1.00
H121   H     0.15247   0.76011   0.80091   0.00000  Uiso   1.00
H122   H     0.63460   0.10318   0.53950   0.00000  Uiso   1.00
H123   H     0.27676   0.81542   0.71617   0.00000  Uiso   1.00
H124   H     0.13187   0.69274   0.64367   0.00000  Uiso   1.00
H125   H     0.45080   0.79601   0.82002   0.00000  Uiso   1.00
H126   H     0.20520   0.95870   0.69606   0.00000  Uiso   1.00
H127   H     0.03823   0.55482   0.54564   0.00000  Uiso   1.00
H128   H     0.71070   0.77260   0.91750   0.00000  Uiso   1.00
H129   H     0.19282   0.11567   0.65608   0.00000  Uiso   1.00
O130   O     0.17315   0.46760   0.43721   0.00000  Uiso   1.00
O131   O     0.05540   0.75333   0.92507   0.00000  Uiso   1.00
O132   O     0.37595   0.20342   0.58210   0.00000  Uiso   1.00
N133   N     0.39591   0.56212   0.46644   0.00000  Uiso   1.00
N134   N     0.02462   0.76571   0.81410   0.00000  Uiso   1.00
N135   N     0.54047   0.08646   0.56971   0.00000  Uiso   1.00
N136   N     0.15819   0.56884   0.52917   0.00000  Uiso   1.00
N137   N     0.78690   0.77243   0.87683   0.00000  Uiso   1.00
N138   N     0.30275   0.09318   0.63245   0.00000  Uiso   1.00
C139   C     0.04799   0.68445   0.15327   0.00000  Uiso   1.00
C140   C     0.13469   0.75078   0.12145   0.00000  Uiso   1.00
C141   C     0.04922   0.80128   0.08568   0.00000  Uiso   1.00
C142   C     0.15190   0.85812   0.06060   0.00000  Uiso   1.00
C143   C     0.25889   0.96022   0.00965   0.00000  Uiso   1.00
C144   C     0.09373   0.70244   0.22644   0.00000  Uiso   1.00
C145   C     0.97381   0.71229   0.27894   0.00000  Uiso   1.00
C146   C     0.04201   0.72843   0.34224   0.00000  Uiso   1.00
C147   C     0.08541   0.75542   0.45429   0.00000  Uiso   1.00
C148   C     0.14466   0.60776   0.12498   0.00000  Uiso   1.00
C149   C     0.06757   0.53799   0.09218   0.00000  Uiso   1.00
C150   C     0.17866   0.47441   0.07007   0.00000  Uiso   1.00
C151   C     0.30113   0.35441   0.02460   0.00000  Uiso   1.00
C152   C     0.38233   0.69559   0.17234   0.00000  Uiso   1.00
C153   C     0.31630   0.75683   0.13182   0.00000  Uiso   1.00
C154   C     0.41914   0.81361   0.10678   0.00000  Uiso   1.00
C155   C     0.33383   0.86418   0.07097   0.00000  Uiso   1.00
C156   C     0.27532   0.70849   0.23680   0.00000  Uiso   1.00
C157   C     0.34372   0.72461   0.30004   0.00000  Uiso   1.00
C158   C     0.22394   0.73449   0.35262   0.00000  Uiso   1.00
C159   C     0.32627   0.61381   0.13534   0.00000  Uiso   1.00
C160   C     0.43749   0.55032   0.11328   0.00000  Uiso   1.00
C161   C     0.36059   0.48047   0.08046   0.00000  Uiso   1.00
H162   H     0.90660   0.67974   0.14520   0.00000  Uiso   1.00
H163   H     0.90868   0.79658   0.07768   0.00000  Uiso   1.00
H164   H     0.83328   0.70759   0.27090   0.00000  Uiso   1.00
H165   H     0.92704   0.53333   0.08418   0.00000  Uiso   1.00
H166   H     0.99105   0.92882   0.00740   0.00000  Uiso   1.00
H167   H     0.83208   0.74115   0.41483   0.00000  Uiso   1.00
H168   H     0.02977   0.37369   0.02108   0.00000  Uiso   1.00
H169   H     0.52372   0.70030   0.18041   0.00000  Uiso   1.00
H170   H     0.55967   0.81827   0.11481   0.00000  Uiso   1.00
H171   H     0.48426   0.72929   0.30804   0.00000  Uiso   1.00
H172   H     0.57802   0.55503   0.12131   0.00000  Uiso   1.00
H173   H     0.51942   0.94642   0.03754   0.00000  Uiso   1.00
H174   H     0.36044   0.75876   0.44497   0.00000  Uiso   1.00
H175   H     0.55813   0.39129   0.05122   0.00000  Uiso   1.00
O176   O     0.26774   0.01487   0.97870   0.00000  Uiso   1.00
O177   O     0.05916   0.76865   0.51323   0.00000  Uiso   1.00
O178   O     0.31853   0.28655   0.99664   0.00000  Uiso   1.00
N179   N     0.11048   0.91676   0.02348   0.00000  Uiso   1.00
N180   N     0.96184   0.74132   0.40441   0.00000  Uiso   1.00
N181   N     0.14666   0.39776   0.03630   0.00000  Uiso   1.00
N182   N     0.39479   0.92623   0.03970   0.00000  Uiso   1.00
N183   N     0.24615   0.75079   0.42063   0.00000  Uiso   1.00
N184   N     0.43097   0.40723   0.05252   0.00000  Uiso   1.00
