data_job_06918
_audit_creation_date              2018-12-19
_audit_creation_method            'Materials Studio'
_symmetry_space_group_name_H-M    'P1'
_symmetry_Int_Tables_number       1
_symmetry_cell_setting            triclinic
loop_
_symmetry_equiv_pos_as_xyz
  x,y,z
_cell_length_a                    20.8400
_cell_length_b                    21.0343
_cell_length_c                    23.5475
_cell_angle_alpha                 108.9720
_cell_angle_beta                  67.1115
_cell_angle_gamma                 81.7765
loop_
_atom_site_label
_atom_site_type_symbol
_atom_site_fract_x
_atom_site_fract_y
_atom_site_fract_z
_atom_site_U_iso_or_equiv
_atom_site_adp_type
_atom_site_occupancy
C1     C     0.70340   0.01334   0.99898   0.00000  Uiso   1.00
C2     C     0.66372   0.96257   0.01908   0.00000  Uiso   1.00
C3     C     0.66101   0.94146   0.06980   0.00000  Uiso   1.00
C4     C     0.62188   0.89466   0.08038   0.00000  Uiso   1.00
C5     C     0.56564   0.81956   0.11748   0.00000  Uiso   1.00
C6     C     0.75633   0.97349   0.92339   0.00000  Uiso   1.00
C7     C     0.83147   0.96158   0.89365   0.00000  Uiso   1.00
C8     C     0.87028   0.92398   0.82367   0.00000  Uiso   1.00
C9     C     0.95780   0.86589   0.71220   0.00000  Uiso   1.00
C10    C     0.64584   0.07272   0.00552   0.00000  Uiso   1.00
C11    C     0.62809   0.14424   0.04483   0.00000  Uiso   1.00
C12    C     0.57389   0.19019   0.04399   0.00000  Uiso   1.00
C13    C     0.48986   0.28616   0.06004   0.00000  Uiso   1.00
C14    C     0.63872   0.96775   0.92758   0.00000  Uiso   1.00
C15    C     0.62859   0.93780   0.98030   0.00000  Uiso   1.00
C16    C     0.58944   0.89102   0.99081   0.00000  Uiso   1.00
C17    C     0.58667   0.86985   0.04153   0.00000  Uiso   1.00
C18    C     0.72119   0.94873   0.88461   0.00000  Uiso   1.00
C19    C     0.75990   0.91115   0.81466   0.00000  Uiso   1.00
C20    C     0.83508   0.89918   0.78482   0.00000  Uiso   1.00
C21    C     0.61070   0.04796   0.96675   0.00000  Uiso   1.00
C22    C     0.55652   0.09380   0.96584   0.00000  Uiso   1.00
C23    C     0.53869   0.16538   0.00514   0.00000  Uiso   1.00
H24    H     0.73076   0.03262   0.02916   0.00000  Uiso   1.00
H25    H     0.68822   0.96063   0.09980   0.00000  Uiso   1.00
H26    H     0.85864   0.98076   0.92367   0.00000  Uiso   1.00
H27    H     0.65529   0.16338   0.07483   0.00000  Uiso   1.00
H28    H     0.62558   0.86988   0.16099   0.00000  Uiso   1.00
H29    H     0.98492   0.91234   0.78962   0.00000  Uiso   1.00
H30    H     0.55612   0.29745   0.10836   0.00000  Uiso   1.00
H31    H     0.61136   0.94848   0.89739   0.00000  Uiso   1.00
H32    H     0.56226   0.87187   0.96079   0.00000  Uiso   1.00
H33    H     0.73269   0.89200   0.78467   0.00000  Uiso   1.00
H34    H     0.52934   0.07463   0.93583   0.00000  Uiso   1.00
H35    H     0.52335   0.79784   0.04816   0.00000  Uiso   1.00
H36    H     0.88270   0.84030   0.67680   0.00000  Uiso   1.00
H37    H     0.45389   0.22541   0.99554   0.00000  Uiso   1.00
O38    O     0.54434   0.78496   0.14865   0.00000  Uiso   1.00
O39    O     0.01579   0.84068   0.66143   0.00000  Uiso   1.00
O40    O     0.45321   0.34594   0.07962   0.00000  Uiso   1.00
N41    N     0.60824   0.86345   0.12574   0.00000  Uiso   1.00
N42    N     0.94422   0.90313   0.77854   0.00000  Uiso   1.00
N43    N     0.54333   0.26318   0.07652   0.00000  Uiso   1.00
N44    N     0.55323   0.82468   0.06503   0.00000  Uiso   1.00
N45    N     0.88921   0.86437   0.71783   0.00000  Uiso   1.00
N46    N     0.48832   0.22442   0.01581   0.00000  Uiso   1.00
C47    C     0.22043   0.05480   0.68532   0.00000  Uiso   1.00
C48    C     0.29172   0.99682   0.65728   0.00000  Uiso   1.00
C49    C     0.32453   0.93842   0.59525   0.00000  Uiso   1.00
C50    C     0.38962   0.89140   0.57886   0.00000  Uiso   1.00
C51    C     0.49555   0.79967   0.52862   0.00000  Uiso   1.00
C52    C     0.17007   0.05742   0.75400   0.00000  Uiso   1.00
C53    C     0.10060   0.04998   0.77330   0.00000  Uiso   1.00
C54    C     0.06329   0.05399   0.83833   0.00000  Uiso   1.00
C55    C     0.98034   0.05638   0.93828   0.00000  Uiso   1.00
C56    C     0.23874   0.12412   0.70031   0.00000  Uiso   1.00
C57    C     0.22699   0.17278   0.67449   0.00000  Uiso   1.00
C58    C     0.24747   0.23296   0.69433   0.00000  Uiso   1.00
C59    C     0.27114   0.33892   0.71091   0.00000  Uiso   1.00
C60    C     0.27768   0.07516   0.76649   0.00000  Uiso   1.00
C61    C     0.32281   0.00788   0.70137   0.00000  Uiso   1.00
C62    C     0.38786   0.96094   0.68506   0.00000  Uiso   1.00
C63    C     0.42077   0.90248   0.62302   0.00000  Uiso   1.00
C64    C     0.20116   0.06848   0.79809   0.00000  Uiso   1.00
C65    C     0.16394   0.07250   0.86311   0.00000  Uiso   1.00
C66    C     0.09443   0.06506   0.88250   0.00000  Uiso   1.00
C67    C     0.26983   0.13518   0.74440   0.00000  Uiso   1.00
C68    C     0.29032   0.19530   0.76429   0.00000  Uiso   1.00
C69    C     0.27861   0.24404   0.73850   0.00000  Uiso   1.00
H70    H     0.19622   0.04620   0.65100   0.00000  Uiso   1.00
H71    H     0.30045   0.92987   0.56115   0.00000  Uiso   1.00
H72    H     0.07655   0.04143   0.73917   0.00000  Uiso   1.00
H73    H     0.20292   0.16421   0.64037   0.00000  Uiso   1.00
H74    H     0.42970   0.80578   0.48099   0.00000  Uiso   1.00
H75    H     0.95760   0.04101   0.85637   0.00000  Uiso   1.00
H76    H     0.22407   0.29992   0.64803   0.00000  Uiso   1.00
H77    H     0.30188   0.08377   0.80082   0.00000  Uiso   1.00
H78    H     0.41191   0.96951   0.71919   0.00000  Uiso   1.00
H79    H     0.18801   0.08106   0.89721   0.00000  Uiso   1.00
H80    H     0.31438   0.20384   0.79841   0.00000  Uiso   1.00
H81    H     0.52016   0.83794   0.60927   0.00000  Uiso   1.00
H82    H     0.04806   0.07318   0.98465   0.00000  Uiso   1.00
H83    H     0.31453   0.33208   0.77630   0.00000  Uiso   1.00
O84    O     0.54539   0.74601   0.48874   0.00000  Uiso   1.00
O85    O     0.92601   0.05464   0.98122   0.00000  Uiso   1.00
O86    O     0.27561   0.39431   0.70787   0.00000  Uiso   1.00
N87    N     0.43590   0.82903   0.52238   0.00000  Uiso   1.00
N88    N     0.99451   0.04896   0.87333   0.00000  Uiso   1.00
N89    N     0.24362   0.29102   0.67856   0.00000  Uiso   1.00
N90    N     0.48458   0.84634   0.59140   0.00000  Uiso   1.00
N91    N     0.04319   0.06627   0.94235   0.00000  Uiso   1.00
N92    N     0.29230   0.30833   0.74758   0.00000  Uiso   1.00
C93    C     0.01453   0.09105   0.23022   0.00000  Uiso   1.00
C94    C     0.07958   0.03602   0.21914   0.00000  Uiso   1.00
C95    C     0.15257   0.03237   0.18695   0.00000  Uiso   1.00
C96    C     0.20390   0.97804   0.18190   0.00000  Uiso   1.00
C97    C     0.30810   0.90000   0.16067   0.00000  Uiso   1.00
C98    C     0.97391   0.04968   0.19814   0.00000  Uiso   1.00
C99    C     0.95804   0.05754   0.14830   0.00000  Uiso   1.00
C100   C     0.92041   0.01472   0.12558   0.00000  Uiso   1.00
C101   C     0.86050   0.95793   0.07179   0.00000  Uiso   1.00
C102   C     0.96365   0.12576   0.30644   0.00000  Uiso   1.00
C103   C     0.93912   0.19759   0.34768   0.00000  Uiso   1.00
C104   C     0.89284   0.21883   0.41614   0.00000  Uiso   1.00
C105   C     0.81699   0.28017   0.53052   0.00000  Uiso   1.00
C106   C     0.97592   0.00103   0.27848   0.00000  Uiso   1.00
C107   C     0.05861   0.98712   0.24535   0.00000  Uiso   1.00
C108   C     0.10985   0.93278   0.24034   0.00000  Uiso   1.00
C109   C     0.18289   0.92906   0.20816   0.00000  Uiso   1.00
C110   C     0.95294   0.00079   0.22435   0.00000  Uiso   1.00
C111   C     0.91532   0.95795   0.20169   0.00000  Uiso   1.00
C112   C     0.89940   0.96573   0.15184   0.00000  Uiso   1.00
C113   C     0.94267   0.07687   0.33266   0.00000  Uiso   1.00
C114   C     0.89641   0.09799   0.40107   0.00000  Uiso   1.00
C115   C     0.87182   0.16984   0.44240   0.00000  Uiso   1.00
H116   H     0.03086   0.12912   0.20981   0.00000  Uiso   1.00
H117   H     0.16878   0.07022   0.16667   0.00000  Uiso   1.00
H118   H     0.97427   0.09539   0.12803   0.00000  Uiso   1.00
H119   H     0.95536   0.23541   0.32738   0.00000  Uiso   1.00
H120   H     0.31244   0.98335   0.13038   0.00000  Uiso   1.00
H121   H     0.90229   0.03643   0.04893   0.00000  Uiso   1.00
H122   H     0.86242   0.33171   0.46928   0.00000  Uiso   1.00
H123   H     0.95959   0.96296   0.29888   0.00000  Uiso   1.00
H124   H     0.09360   0.89495   0.26063   0.00000  Uiso   1.00
H125   H     0.89909   0.92012   0.22199   0.00000  Uiso   1.00
H126   H     0.88019   0.06014   0.42134   0.00000  Uiso   1.00
H127   H     0.25142   0.84109   0.20664   0.00000  Uiso   1.00
H128   H     0.84127   0.89417   0.12519   0.00000  Uiso   1.00
H129   H     0.80140   0.18945   0.54554   0.00000  Uiso   1.00
O130   O     0.37137   0.87046   0.14172   0.00000  Uiso   1.00
O131   O     0.83326   0.94012   0.03487   0.00000  Uiso   1.00
O132   O     0.78096   0.32751   0.58636   0.00000  Uiso   1.00
N133   N     0.27968   0.95921   0.15359   0.00000  Uiso   1.00
N134   N     0.89623   0.00883   0.07743   0.00000  Uiso   1.00
N135   N     0.85894   0.28489   0.47042   0.00000  Uiso   1.00
N136   N     0.24685   0.88266   0.19462   0.00000  Uiso   1.00
N137   N     0.86340   0.93228   0.11846   0.00000  Uiso   1.00
N138   N     0.82611   0.20834   0.51146   0.00000  Uiso   1.00
C139   C     0.19560   0.59438   0.23274   0.00000  Uiso   1.00
C140   C     0.17356   0.53708   0.19221   0.00000  Uiso   1.00
C141   C     0.15566   0.53821   0.14153   0.00000  Uiso   1.00
C142   C     0.13701   0.48072   0.11051   0.00000  Uiso   1.00
C143   C     0.10294   0.40034   0.04466   0.00000  Uiso   1.00
C144   C     0.27018   0.55759   0.22282   0.00000  Uiso   1.00
C145   C     0.33350   0.57596   0.19790   0.00000  Uiso   1.00
C146   C     0.39618   0.53574   0.19267   0.00000  Uiso   1.00
C147   C     0.51209   0.48722   0.17440   0.00000  Uiso   1.00
C148   C     0.14218   0.61713   0.30718   0.00000  Uiso   1.00
C149   C     0.09789   0.68557   0.35319   0.00000  Uiso   1.00
C150   C     0.05280   0.69549   0.41898   0.00000  Uiso   1.00
C151   C     0.96997   0.73943   0.53168   0.00000  Uiso   1.00
C152   C     0.19431   0.49030   0.26777   0.00000  Uiso   1.00
C153   C     0.17287   0.48055   0.21123   0.00000  Uiso   1.00
C154   C     0.15423   0.42305   0.18028   0.00000  Uiso   1.00
C155   C     0.13630   0.42409   0.12957   0.00000  Uiso   1.00
C156   C     0.26948   0.50105   0.24185   0.00000  Uiso   1.00
C157   C     0.33208   0.46080   0.23666   0.00000  Uiso   1.00
C158   C     0.39548   0.47910   0.21173   0.00000  Uiso   1.00
C159   C     0.14147   0.56060   0.32621   0.00000  Uiso   1.00
C160   C     0.09646   0.57041   0.39194   0.00000  Uiso   1.00
C161   C     0.05210   0.63885   0.43804   0.00000  Uiso   1.00
H162   H     0.19615   0.63839   0.21792   0.00000  Uiso   1.00
H163   H     0.15622   0.58196   0.12682   0.00000  Uiso   1.00
H164   H     0.33403   0.61971   0.18319   0.00000  Uiso   1.00
H165   H     0.09844   0.72930   0.33845   0.00000  Uiso   1.00
H166   H     0.11166   0.49446   0.03418   0.00000  Uiso   1.00
H167   H     0.48658   0.57407   0.15306   0.00000  Uiso   1.00
H168   H     0.98980   0.80518   0.48046   0.00000  Uiso   1.00
H169   H     0.19377   0.44628   0.28258   0.00000  Uiso   1.00
H170   H     0.15370   0.37931   0.19502   0.00000  Uiso   1.00
H171   H     0.33151   0.41706   0.25139   0.00000  Uiso   1.00
H172   H     0.09593   0.52666   0.40665   0.00000  Uiso   1.00
H173   H     0.10962   0.32998   0.08953   0.00000  Uiso   1.00
H174   H     0.48454   0.40959   0.20842   0.00000  Uiso   1.00
H175   H     0.98776   0.64069   0.53581   0.00000  Uiso   1.00
O176   O     0.08435   0.37162   0.00308   0.00000  Uiso   1.00
O177   O     0.57622   0.47608   0.15906   0.00000  Uiso   1.00
O178   O     0.92447   0.77928   0.58859   0.00000  Uiso   1.00
N179   N     0.11666   0.46495   0.05923   0.00000  Uiso   1.00
N180   N     0.46720   0.53937   0.17037   0.00000  Uiso   1.00
N181   N     0.00277   0.75544   0.47646   0.00000  Uiso   1.00
N182   N     0.11556   0.37644   0.08902   0.00000  Uiso   1.00
N183   N     0.46610   0.45087   0.20016   0.00000  Uiso   1.00
N184   N     0.00167   0.66693   0.50625   0.00000  Uiso   1.00
C185   C     0.69581   0.50343   0.03110   0.00000  Uiso   1.00
C186   C     0.75719   0.44052   0.01430   0.00000  Uiso   1.00
C187   C     0.75457   0.40326   0.05374   0.00000  Uiso   1.00
C188   C     0.81641   0.34736   0.02955   0.00000  Uiso   1.00
C189   C     0.90225   0.25239   0.01279   0.00000  Uiso   1.00
C190   C     0.67994   0.48350   0.97070   0.00000  Uiso   1.00
C191   C     0.61238   0.48239   0.97349   0.00000  Uiso   1.00
C192   C     0.60919   0.46268   0.91260   0.00000  Uiso   1.00
C193   C     0.57509   0.43449   0.82816   0.00000  Uiso   1.00
C194   C     0.72874   0.56363   0.03078   0.00000  Uiso   1.00
C195   C     0.70218   0.62990   0.08409   0.00000  Uiso   1.00
C196   C     0.74006   0.67766   0.07377   0.00000  Uiso   1.00
C197   C     0.78172   0.77388   0.08263   0.00000  Uiso   1.00
C198   C     0.81028   0.47042   0.91800   0.00000  Uiso   1.00
C199   C     0.81937   0.42259   0.95286   0.00000  Uiso   1.00
C200   C     0.88123   0.36674   0.92861   0.00000  Uiso   1.00
C201   C     0.87870   0.32940   0.96801   0.00000  Uiso   1.00
C202   C     0.74212   0.46557   0.90927   0.00000  Uiso   1.00
C203   C     0.73903   0.44587   0.84836   0.00000  Uiso   1.00
C204   C     0.67148   0.44472   0.85106   0.00000  Uiso   1.00
C205   C     0.79092   0.54570   0.96935   0.00000  Uiso   1.00
C206   C     0.82884   0.59337   0.95895   0.00000  Uiso   1.00
C207   C     0.80235   0.65970   0.01223   0.00000  Uiso   1.00
H208   H     0.64740   0.51738   0.07892   0.00000  Uiso   1.00
H209   H     0.70644   0.41715   0.10127   0.00000  Uiso   1.00
H210   H     0.56427   0.49627   0.02104   0.00000  Uiso   1.00
H211   H     0.65406   0.64375   0.13162   0.00000  Uiso   1.00
H212   H     0.79931   0.29809   0.09895   0.00000  Uiso   1.00
H213   H     0.49952   0.46496   0.92977   0.00000  Uiso   1.00
H214   H     0.68888   0.77595   0.16295   0.00000  Uiso   1.00
H215   H     0.85869   0.45646   0.87017   0.00000  Uiso   1.00
H216   H     0.92933   0.35288   0.88107   0.00000  Uiso   1.00
H217   H     0.78716   0.43200   0.80083   0.00000  Uiso   1.00
H218   H     0.87695   0.57948   0.91141   0.00000  Uiso   1.00
H219   H     0.98022   0.24593   0.92022   0.00000  Uiso   1.00
H220   H     0.68043   0.41279   0.75105   0.00000  Uiso   1.00
H221   H     0.86978   0.72378   0.98422   0.00000  Uiso   1.00
O222   O     0.93241   0.20496   0.02051   0.00000  Uiso   1.00
O223   O     0.53910   0.42389   0.79856   0.00000  Uiso   1.00
O224   O     0.78753   0.83190   0.10448   0.00000  Uiso   1.00
N225   N     0.83220   0.30004   0.05540   0.00000  Uiso   1.00
N226   N     0.55192   0.45604   0.89723   0.00000  Uiso   1.00
N227   N     0.72893   0.74680   0.11522   0.00000  Uiso   1.00
N228   N     0.92954   0.27197   0.95923   0.00000  Uiso   1.00
N229   N     0.64926   0.42797   0.80105   0.00000  Uiso   1.00
N230   N     0.82628   0.71872   0.01905   0.00000  Uiso   1.00
C231   C     0.42074   0.72184   0.83435   0.00000  Uiso   1.00
C232   C     0.47323   0.71466   0.76433   0.00000  Uiso   1.00
C233   C     0.54426   0.71800   0.74408   0.00000  Uiso   1.00
C234   C     0.58341   0.71018   0.67789   0.00000  Uiso   1.00
C235   C     0.66961   0.70063   0.57590   0.00000  Uiso   1.00
C236   C     0.39782   0.65497   0.82259   0.00000  Uiso   1.00
C237   C     0.40543   0.60813   0.85133   0.00000  Uiso   1.00
C238   C     0.38109   0.55006   0.83419   0.00000  Uiso   1.00
C239   C     0.35017   0.44787   0.82268   0.00000  Uiso   1.00
C240   C     0.35227   0.78231   0.86025   0.00000  Uiso   1.00
C241   C     0.32157   0.84253   0.92066   0.00000  Uiso   1.00
C242   C     0.25887   0.89167   0.93524   0.00000  Uiso   1.00
C243   C     0.15723   0.98719   0.98221   0.00000  Uiso   1.00
C244   C     0.36396   0.70202   0.75282   0.00000  Uiso   1.00
C245   C     0.44238   0.70389   0.72005   0.00000  Uiso   1.00
C246   C     0.48143   0.69607   0.65388   0.00000  Uiso   1.00
C247   C     0.55251   0.69940   0.63353   0.00000  Uiso   1.00
C248   C     0.36698   0.64420   0.77831   0.00000  Uiso   1.00
C249   C     0.34261   0.58620   0.76113   0.00000  Uiso   1.00
C250   C     0.35019   0.53928   0.78982   0.00000  Uiso   1.00
C251   C     0.32143   0.77154   0.81597   0.00000  Uiso   1.00
C252   C     0.25876   0.82060   0.83046   0.00000  Uiso   1.00
C253   C     0.22797   0.88088   0.89088   0.00000  Uiso   1.00
H254   H     0.44475   0.73022   0.86883   0.00000  Uiso   1.00
H255   H     0.56811   0.72632   0.77836   0.00000  Uiso   1.00
H256   H     0.42930   0.61647   0.88560   0.00000  Uiso   1.00
H257   H     0.34546   0.85084   0.95492   0.00000  Uiso   1.00
H258   H     0.69128   0.71723   0.65853   0.00000  Uiso   1.00
H259   H     0.39857   0.48562   0.88466   0.00000  Uiso   1.00
H260   H     0.22177   0.97982   0.03084   0.00000  Uiso   1.00
H261   H     0.33994   0.69364   0.71834   0.00000  Uiso   1.00
H262   H     0.45755   0.68774   0.61962   0.00000  Uiso   1.00
H263   H     0.31874   0.57789   0.72686   0.00000  Uiso   1.00
H264   H     0.23490   0.81225   0.79618   0.00000  Uiso   1.00
H265   H     0.60155   0.68591   0.52969   0.00000  Uiso   1.00
H266   H     0.30884   0.45430   0.75582   0.00000  Uiso   1.00
H267   H     0.13204   0.94850   0.90200   0.00000  Uiso   1.00
O268   O     0.72568   0.69832   0.53188   0.00000  Uiso   1.00
O269   O     0.34164   0.39447   0.82856   0.00000  Uiso   1.00
O270   O     0.10969   0.04285   0.02034   0.00000  Uiso   1.00
N271   N     0.65402   0.71068   0.64176   0.00000  Uiso   1.00
N272   N     0.38036   0.49414   0.85317   0.00000  Uiso   1.00
N273   N     0.21506   0.95617   0.98985   0.00000  Uiso   1.00
N274   N     0.60573   0.69383   0.57243   0.00000  Uiso   1.00
N275   N     0.33208   0.47728   0.78384   0.00000  Uiso   1.00
N276   N     0.16677   0.93931   0.92052   0.00000  Uiso   1.00
C277   C     0.25281   0.18068   0.96927   0.00000  Uiso   1.00
C278   C     0.28310   0.24282   0.98207   0.00000  Uiso   1.00
C279   C     0.30161   0.27912   0.94131   0.00000  Uiso   1.00
C280   C     0.32840   0.33443   0.96175   0.00000  Uiso   1.00
C281   C     0.37418   0.42816   0.97266   0.00000  Uiso   1.00
C282   C     0.18057   0.20202   0.03283   0.00000  Uiso   1.00
C283   C     0.11288   0.20402   0.03475   0.00000  Uiso   1.00
C284   C     0.05335   0.22498   0.09792   0.00000  Uiso   1.00
C285   C     0.93996   0.25532   0.18763   0.00000  Uiso   1.00
C286   C     0.30481   0.12027   0.96745   0.00000  Uiso   1.00
C287   C     0.34156   0.05352   0.91441   0.00000  Uiso   1.00
C288   C     0.38663   0.00565   0.92255   0.00000  Uiso   1.00
C289   C     0.46614   0.90906   0.91076   0.00000  Uiso   1.00
C290   C     0.26747   0.21435   0.07805   0.00000  Uiso   1.00
C291   C     0.29106   0.26110   0.04116   0.00000  Uiso   1.00
C292   C     0.31783   0.31637   0.06167   0.00000  Uiso   1.00
C293   C     0.33638   0.35275   0.02095   0.00000  Uiso   1.00
C294   C     0.18852   0.22031   0.09192   0.00000  Uiso   1.00
C295   C     0.12909   0.24127   0.15510   0.00000  Uiso   1.00
C296   C     0.06133   0.24330   0.15712   0.00000  Uiso   1.00
C297   C     0.31277   0.13856   0.02654   0.00000  Uiso   1.00
C298   C     0.35778   0.09078   0.03477   0.00000  Uiso   1.00
C299   C     0.39460   0.02397   0.98175   0.00000  Uiso   1.00
H300   H     0.24661   0.16644   0.92327   0.00000  Uiso   1.00
H301   H     0.29544   0.26496   0.89559   0.00000  Uiso   1.00
H302   H     0.10674   0.18986   0.98901   0.00000  Uiso   1.00
H303   H     0.33539   0.03939   0.86869   0.00000  Uiso   1.00
H304   H     0.35306   0.38226   0.89098   0.00000  Uiso   1.00
H305   H     0.95517   0.22389   0.08795   0.00000  Uiso   1.00
H306   H     0.43733   0.90659   0.83424   0.00000  Uiso   1.00
H307   H     0.27366   0.22859   0.12406   0.00000  Uiso   1.00
H308   H     0.32398   0.33051   0.10740   0.00000  Uiso   1.00
H309   H     0.13527   0.25542   0.20082   0.00000  Uiso   1.00
H310   H     0.36392   0.10495   0.08050   0.00000  Uiso   1.00
H311   H     0.37622   0.43547   0.06289   0.00000  Uiso   1.00
H312   H     0.97833   0.27710   0.25987   0.00000  Uiso   1.00
H313   H     0.46049   0.95980   0.00616   0.00000  Uiso   1.00
O314   O     0.39723   0.47481   0.96236   0.00000  Uiso   1.00
O315   O     0.87521   0.26702   0.22079   0.00000  Uiso   1.00
O316   O     0.50780   0.85074   0.88792   0.00000  Uiso   1.00
N317   N     0.35162   0.38079   0.93372   0.00000  Uiso   1.00
N318   N     0.97961   0.23273   0.11788   0.00000  Uiso   1.00
N319   N     0.43038   0.93608   0.88069   0.00000  Uiso   1.00
N320   N     0.36408   0.40942   0.02622   0.00000  Uiso   1.00
N321   N     0.99208   0.26136   0.21038   0.00000  Uiso   1.00
N322   N     0.44284   0.96471   0.97319   0.00000  Uiso   1.00
C323   C     0.62625   0.26691   0.45440   0.00000  Uiso   1.00
C324   C     0.60901   0.33361   0.51592   0.00000  Uiso   1.00
C325   C     0.66010   0.35870   0.53287   0.00000  Uiso   1.00
C326   C     0.63329   0.42067   0.59117   0.00000  Uiso   1.00
C327   C     0.61795   0.51885   0.68062   0.00000  Uiso   1.00
C328   C     0.59137   0.29038   0.41542   0.00000  Uiso   1.00
C329   C     0.62763   0.27911   0.34787   0.00000  Uiso   1.00
C330   C     0.58596   0.30467   0.32158   0.00000  Uiso   1.00
C331   C     0.54323   0.33568   0.25498   0.00000  Uiso   1.00
C332   C     0.58349   0.22160   0.48216   0.00000  Uiso   1.00
C333   C     0.61312   0.15249   0.47071   0.00000  Uiso   1.00
C334   C     0.56481   0.12014   0.50059   0.00000  Uiso   1.00
C335   C     0.50984   0.04436   0.53762   0.00000  Uiso   1.00
C336   C     0.48777   0.33235   0.52782   0.00000  Uiso   1.00
C337   C     0.53379   0.36916   0.55580   0.00000  Uiso   1.00
C338   C     0.50688   0.43110   0.61410   0.00000  Uiso   1.00
C339   C     0.55793   0.45628   0.63113   0.00000  Uiso   1.00
C340   C     0.51615   0.32592   0.45530   0.00000  Uiso   1.00
C341   C     0.47441   0.35151   0.42910   0.00000  Uiso   1.00
C342   C     0.51060   0.34028   0.36153   0.00000  Uiso   1.00
C343   C     0.50827   0.25714   0.52204   0.00000  Uiso   1.00
C344   C     0.45990   0.22489   0.55194   0.00000  Uiso   1.00
C345   C     0.48946   0.15575   0.54054   0.00000  Uiso   1.00
H346   H     0.68481   0.23924   0.42335   0.00000  Uiso   1.00
H347   H     0.71831   0.33118   0.50199   0.00000  Uiso   1.00
H348   H     0.68584   0.25159   0.31702   0.00000  Uiso   1.00
H349   H     0.67133   0.12500   0.43984   0.00000  Uiso   1.00
H350   H     0.72227   0.44881   0.60675   0.00000  Uiso   1.00
H351   H     0.65380   0.28097   0.21673   0.00000  Uiso   1.00
H352   H     0.62321   0.01401   0.47572   0.00000  Uiso   1.00
H353   H     0.42921   0.36003   0.55887   0.00000  Uiso   1.00
H354   H     0.44867   0.45860   0.64495   0.00000  Uiso   1.00
H355   H     0.41621   0.37901   0.45998   0.00000  Uiso   1.00
H356   H     0.40170   0.25241   0.58280   0.00000  Uiso   1.00
H357   H     0.50343   0.55222   0.72278   0.00000  Uiso   1.00
H358   H     0.43496   0.38438   0.33275   0.00000  Uiso   1.00
H359   H     0.40437   0.11743   0.59175   0.00000  Uiso   1.00
O360   O     0.63027   0.56319   0.71893   0.00000  Uiso   1.00
O361   O     0.54044   0.34298   0.20723   0.00000  Uiso   1.00
O362   O     0.50030   0.99274   0.54703   0.00000  Uiso   1.00
N363   N     0.66809   0.45961   0.62225   0.00000  Uiso   1.00
N364   N     0.60408   0.30270   0.25761   0.00000  Uiso   1.00
N365   N     0.57548   0.05311   0.49973   0.00000  Uiso   1.00
N366   N     0.55034   0.51526   0.68469   0.00000  Uiso   1.00
N367   N     0.48632   0.35834   0.32004   0.00000  Uiso   1.00
N368   N     0.45772   0.10876   0.56216   0.00000  Uiso   1.00
C369   C     0.71885   0.06863   0.67936   0.00000  Uiso   1.00
C370   C     0.67233   0.13070   0.67825   0.00000  Uiso   1.00
C371   C     0.60070   0.14093   0.68854   0.00000  Uiso   1.00
C372   C     0.56762   0.20106   0.68551   0.00000  Uiso   1.00
C373   C     0.48970   0.29014   0.68578   0.00000  Uiso   1.00
C374   C     0.74328   0.10085   0.73247   0.00000  Uiso   1.00
C375   C     0.73133   0.08596   0.78834   0.00000  Uiso   1.00
C376   C     0.75799   0.12096   0.83095   0.00000  Uiso   1.00
C377   C     0.79028   0.16365   0.91536   0.00000  Uiso   1.00
C378   C     0.78797   0.03506   0.61115   0.00000  Uiso   1.00
C379   C     0.81359   0.96485   0.56501   0.00000  Uiso   1.00
C380   C     0.87789   0.94446   0.50548   0.00000  Uiso   1.00
C381   C     0.97955   0.88500   0.40152   0.00000  Uiso   1.00
C382   C     0.78747   0.15724   0.65568   0.00000  Uiso   1.00
C383   C     0.70960   0.17883   0.66539   0.00000  Uiso   1.00
C384   C     0.67662   0.23896   0.66234   0.00000  Uiso   1.00
C385   C     0.60496   0.24927   0.67262   0.00000  Uiso   1.00
C386   C     0.78055   0.14898   0.71961   0.00000  Uiso   1.00
C387   C     0.80725   0.18400   0.76214   0.00000  Uiso   1.00
C388   C     0.79533   0.16918   0.81806   0.00000  Uiso   1.00
C389   C     0.82524   0.08319   0.59828   0.00000  Uiso   1.00
C390   C     0.88951   0.06289   0.53881   0.00000  Uiso   1.00
C391   C     0.91523   0.99267   0.49260   0.00000  Uiso   1.00
H392   H     0.68984   0.03116   0.68938   0.00000  Uiso   1.00
H393   H     0.57187   0.10367   0.69850   0.00000  Uiso   1.00
H394   H     0.70249   0.04871   0.79827   0.00000  Uiso   1.00
H395   H     0.78474   0.92763   0.57498   0.00000  Uiso   1.00
H396   H     0.45752   0.20530   0.70296   0.00000  Uiso   1.00
H397   H     0.73295   0.08940   0.91334   0.00000  Uiso   1.00
H398   H     0.90639   0.83406   0.44248   0.00000  Uiso   1.00
H399   H     0.81649   0.19471   0.64567   0.00000  Uiso   1.00
H400   H     0.70547   0.27620   0.65239   0.00000  Uiso   1.00
H401   H     0.83609   0.22124   0.75217   0.00000  Uiso   1.00
H402   H     0.91834   0.10015   0.52888   0.00000  Uiso   1.00
H403   H     0.56595   0.34534   0.66554   0.00000  Uiso   1.00
H404   H     0.84139   0.22943   0.87592   0.00000  Uiso   1.00
H405   H     0.01482   0.97409   0.40506   0.00000  Uiso   1.00
O406   O     0.43641   0.32599   0.68948   0.00000  Uiso   1.00
O407   O     0.79778   0.17391   0.96548   0.00000  Uiso   1.00
O408   O     0.02532   0.83892   0.34773   0.00000  Uiso   1.00
N409   N     0.49828   0.22707   0.69322   0.00000  Uiso   1.00
N410   N     0.75578   0.11871   0.88991   0.00000  Uiso   1.00
N411   N     0.91794   0.87999   0.44971   0.00000  Uiso   1.00
N412   N     0.55663   0.30242   0.67308   0.00000  Uiso   1.00
N413   N     0.81413   0.19406   0.86978   0.00000  Uiso   1.00
N414   N     0.97629   0.95534   0.42957   0.00000  Uiso   1.00
C415   C     0.91904   0.53607   0.68432   0.00000  Uiso   1.00
C416   C     0.96895   0.58224   0.68643   0.00000  Uiso   1.00
C417   C     0.02635   0.57156   0.70181   0.00000  Uiso   1.00
C418   C     0.06547   0.61971   0.70105   0.00000  Uiso   1.00
C419   C     0.14565   0.68278   0.70674   0.00000  Uiso   1.00
C420   C     0.84112   0.58535   0.73325   0.00000  Uiso   1.00
C421   C     0.79104   0.57727   0.78799   0.00000  Uiso   1.00
C422   C     0.72255   0.62805   0.82664   0.00000  Uiso   1.00
C423   C     0.60424   0.69592   0.90498   0.00000  Uiso   1.00
C424   C     0.92469   0.51225   0.61361   0.00000  Uiso   1.00
C425   C     0.94487   0.44271   0.56775   0.00000  Uiso   1.00
C426   C     0.94672   0.43194   0.50568   0.00000  Uiso   1.00
C427   C     0.95818   0.38632   0.39826   0.00000  Uiso   1.00
C428   C     0.88643   0.64059   0.65561   0.00000  Uiso   1.00
C429   C     0.95124   0.63901   0.67084   0.00000  Uiso   1.00
C430   C     0.99028   0.68719   0.67006   0.00000  Uiso   1.00
C431   C     0.04774   0.67658   0.68543   0.00000  Uiso   1.00
C432   C     0.82341   0.64212   0.71766   0.00000  Uiso   1.00
C433   C     0.75497   0.69291   0.75624   0.00000  Uiso   1.00
C434   C     0.70480   0.68492   0.81102   0.00000  Uiso   1.00
C435   C     0.90698   0.56902   0.59802   0.00000  Uiso   1.00
C436   C     0.90880   0.55835   0.53600   0.00000  Uiso   1.00
C437   C     0.92898   0.48881   0.49006   0.00000  Uiso   1.00
H438   H     0.93282   0.49187   0.69646   0.00000  Uiso   1.00
H439   H     0.04004   0.52762   0.71388   0.00000  Uiso   1.00
H440   H     0.80476   0.53333   0.80004   0.00000  Uiso   1.00
H441   H     0.95857   0.39880   0.57984   0.00000  Uiso   1.00
H442   H     0.15108   0.59230   0.72635   0.00000  Uiso   1.00
H443   H     0.65498   0.60433   0.90800   0.00000  Uiso   1.00
H444   H     0.97931   0.32063   0.44366   0.00000  Uiso   1.00
H445   H     0.87264   0.68479   0.64348   0.00000  Uiso   1.00
H446   H     0.97656   0.73112   0.65799   0.00000  Uiso   1.00
H447   H     0.74128   0.73683   0.74415   0.00000  Uiso   1.00
H448   H     0.89509   0.60230   0.52395   0.00000  Uiso   1.00
H449   H     0.09956   0.75747   0.68099   0.00000  Uiso   1.00
H450   H     0.60345   0.76950   0.86265   0.00000  Uiso   1.00
H451   H     0.92779   0.48581   0.39831   0.00000  Uiso   1.00
O452   O     0.19476   0.70190   0.71420   0.00000  Uiso   1.00
O453   O     0.54388   0.71768   0.95251   0.00000  Uiso   1.00
O454   O     0.96940   0.34547   0.34331   0.00000  Uiso   1.00
N455   N     0.12471   0.62481   0.71367   0.00000  Uiso   1.00
N456   N     0.66088   0.63606   0.88351   0.00000  Uiso   1.00
N457   N     0.96408   0.37083   0.44940   0.00000  Uiso   1.00
N458   N     0.09698   0.71368   0.68926   0.00000  Uiso   1.00
N459   N     0.63316   0.72494   0.85910   0.00000  Uiso   1.00
N460   N     0.93636   0.45971   0.42499   0.00000  Uiso   1.00
C461   C     0.15877   0.63352   0.93969   0.00000  Uiso   1.00
C462   C     0.11341   0.69173   0.93306   0.00000  Uiso   1.00
C463   C     0.13881   0.71626   0.88297   0.00000  Uiso   1.00
C464   C     0.08871   0.76985   0.88573   0.00000  Uiso   1.00
C465   C     0.02937   0.85600   0.86768   0.00000  Uiso   1.00
C466   C     0.15201   0.66610   0.01064   0.00000  Uiso   1.00
C467   C     0.20987   0.66906   0.02578   0.00000  Uiso   1.00
C468   C     0.19226   0.70106   0.09386   0.00000  Uiso   1.00
C469   C     0.19285   0.74737   0.19627   0.00000  Uiso   1.00
C470   C     0.11898   0.57807   0.93979   0.00000  Uiso   1.00
C471   C     0.14906   0.50702   0.89537   0.00000  Uiso   1.00
C472   C     0.10365   0.46491   0.90381   0.00000  Uiso   1.00
C473   C     0.05295   0.37454   0.89621   0.00000  Uiso   1.00
C474   C     0.02464   0.68507   0.03368   0.00000  Uiso   1.00
C475   C     0.04056   0.71973   0.98411   0.00000  Uiso   1.00
C476   C     0.99041   0.77329   0.98694   0.00000  Uiso   1.00
C477   C     0.01572   0.79790   0.93687   0.00000  Uiso   1.00
C478   C     0.07916   0.69409   0.06169   0.00000  Uiso   1.00
C479   C     0.06147   0.72609   0.12976   0.00000  Uiso   1.00
C480   C     0.11928   0.72911   0.14500   0.00000  Uiso   1.00
C481   C     0.04612   0.60607   0.99084   0.00000  Uiso   1.00
C482   C     0.00066   0.56405   0.99935   0.00000  Uiso   1.00
C483   C     0.03066   0.49295   0.95495   0.00000  Uiso   1.00
H484   H     0.21549   0.61173   0.89996   0.00000  Uiso   1.00
H485   H     0.19520   0.69459   0.84347   0.00000  Uiso   1.00
H486   H     0.26624   0.64739   0.98627   0.00000  Uiso   1.00
H487   H     0.20544   0.48537   0.85588   0.00000  Uiso   1.00
H488   H     0.14057   0.79882   0.80338   0.00000  Uiso   1.00
H489   H     0.29037   0.69927   0.10447   0.00000  Uiso   1.00
H490   H     0.16217   0.35763   0.82952   0.00000  Uiso   1.00
H491   H     0.96792   0.70686   0.07342   0.00000  Uiso   1.00
H492   H     0.93403   0.79495   0.02645   0.00000  Uiso   1.00
H493   H     0.00508   0.74775   0.16925   0.00000  Uiso   1.00
H494   H     0.94428   0.58574   0.03886   0.00000  Uiso   1.00
H495   H     0.92860   0.88028   0.95189   0.00000  Uiso   1.00
H496   H     0.07841   0.78073   0.25299   0.00000  Uiso   1.00
H497   H     0.95020   0.43909   0.97803   0.00000  Uiso   1.00
O498   O     0.01676   0.89579   0.84363   0.00000  Uiso   1.00
O499   O     0.21331   0.76518   0.23865   0.00000  Uiso   1.00
O500   O     0.04510   0.31696   0.87791   0.00000  Uiso   1.00
N501   N     0.09533   0.80589   0.84477   0.00000  Uiso   1.00
N502   N     0.23539   0.71283   0.12627   0.00000  Uiso   1.00
N503   N     0.11553   0.39343   0.86922   0.00000  Uiso   1.00
N504   N     0.98127   0.84972   0.92468   0.00000  Uiso   1.00
N505   N     0.12133   0.75666   0.20619   0.00000  Uiso   1.00
N506   N     0.00147   0.43726   0.94914   0.00000  Uiso   1.00
C507   C     0.32631   0.57107   0.44587   0.00000  Uiso   1.00
C508   C     0.29030   0.64897   0.49492   0.00000  Uiso   1.00
C509   C     0.24251   0.69839   0.49083   0.00000  Uiso   1.00
C510   C     0.21549   0.76699   0.54061   0.00000  Uiso   1.00
C511   C     0.15656   0.88515   0.60885   0.00000  Uiso   1.00
C512   C     0.40860   0.55789   0.41921   0.00000  Uiso   1.00
C513   C     0.46026   0.53072   0.35145   0.00000  Uiso   1.00
C514   C     0.53283   0.52264   0.33751   0.00000  Uiso   1.00
C515   C     0.65756   0.49935   0.28819   0.00000  Uiso   1.00
C516   C     0.30540   0.52961   0.48906   0.00000  Uiso   1.00
C517   C     0.27030   0.47866   0.48003   0.00000  Uiso   1.00
C518   C     0.25600   0.44676   0.52488   0.00000  Uiso   1.00
C519   C     0.22049   0.37956   0.58403   0.00000  Uiso   1.00
C520   C     0.36333   0.60501   0.54157   0.00000  Uiso   1.00
C521   C     0.31042   0.66740   0.54690   0.00000  Uiso   1.00
C522   C     0.28347   0.73594   0.59671   0.00000  Uiso   1.00
C523   C     0.23564   0.78545   0.59269   0.00000  Uiso   1.00
C524   C     0.42871   0.57632   0.47119   0.00000  Uiso   1.00
C525   C     0.50122   0.56827   0.45734   0.00000  Uiso   1.00
C526   C     0.55298   0.54111   0.38958   0.00000  Uiso   1.00
C527   C     0.32551   0.54805   0.54104   0.00000  Uiso   1.00
C528   C     0.31126   0.51621   0.58591   0.00000  Uiso   1.00
C529   C     0.27615   0.46522   0.57696   0.00000  Uiso   1.00
H530   H     0.31066   0.55672   0.40540   0.00000  Uiso   1.00
H531   H     0.22696   0.68411   0.45059   0.00000  Uiso   1.00
H532   H     0.44468   0.51646   0.31124   0.00000  Uiso   1.00
H533   H     0.25475   0.46441   0.43980   0.00000  Uiso   1.00
H534   H     0.14306   0.83347   0.52360   0.00000  Uiso   1.00
H535   H     0.60213   0.47996   0.22977   0.00000  Uiso   1.00
H536   H     0.20163   0.37019   0.50086   0.00000  Uiso   1.00
H537   H     0.37899   0.61936   0.58204   0.00000  Uiso   1.00
H538   H     0.29904   0.75019   0.63693   0.00000  Uiso   1.00
H539   H     0.51676   0.58254   0.49758   0.00000  Uiso   1.00
H540   H     0.32683   0.53049   0.62613   0.00000  Uiso   1.00
H541   H     0.20157   0.88711   0.67484   0.00000  Uiso   1.00
H542   H     0.66065   0.53359   0.38101   0.00000  Uiso   1.00
H543   H     0.26013   0.42383   0.65210   0.00000  Uiso   1.00
O544   O     0.11851   0.94523   0.63213   0.00000  Uiso   1.00
O545   O     0.72080   0.48142   0.24663   0.00000  Uiso   1.00
O546   O     0.19534   0.33741   0.60230   0.00000  Uiso   1.00
N547   N     0.16779   0.82814   0.55167   0.00000  Uiso   1.00
N548   N     0.59700   0.49764   0.27696   0.00000  Uiso   1.00
N549   N     0.22257   0.39500   0.53039   0.00000  Uiso   1.00
N550   N     0.19927   0.85700   0.63305   0.00000  Uiso   1.00
N551   N     0.62848   0.52650   0.35834   0.00000  Uiso   1.00
N552   N     0.25405   0.42386   0.61177   0.00000  Uiso   1.00
