data_job_03375
_audit_creation_date              2018-12-19
_audit_creation_method            'Materials Studio'
_symmetry_space_group_name_H-M    'P1'
_symmetry_Int_Tables_number       1
_symmetry_cell_setting            triclinic
loop_
_symmetry_equiv_pos_as_xyz
  x,y,z
_cell_length_a                    18.1187
_cell_length_b                    18.1187
_cell_length_c                    13.8973
_cell_angle_alpha                 90.0000
_cell_angle_beta                  90.0000
_cell_angle_gamma                 120.0000
loop_
_atom_site_label
_atom_site_type_symbol
_atom_site_fract_x
_atom_site_fract_y
_atom_site_fract_z
_atom_site_U_iso_or_equiv
_atom_site_adp_type
_atom_site_occupancy
C1     C     0.13003   0.76348   0.22216   0.00000  Uiso   1.00
C2     C     0.13605   0.78405   0.32926   0.00000  Uiso   1.00
C3     C     0.07503   0.79055   0.38308   0.00000  Uiso   1.00
C4     C     0.09250   0.80990   0.48003   0.00000  Uiso   1.00
C5     C     0.09035   0.83999   0.64000   0.00000  Uiso   1.00
C6     C     0.20917   0.83674   0.17605   0.00000  Uiso   1.00
C7     C     0.20962   0.88753   0.10104   0.00000  Uiso   1.00
C8     C     0.28865   0.95123   0.06901   0.00000  Uiso   1.00
C9     C     0.40001   0.06309   0.99106   0.00000  Uiso   1.00
C10    C     0.14049   0.68530   0.21358   0.00000  Uiso   1.00
C11    C     0.08320   0.60876   0.17011   0.00000  Uiso   1.00
C12    C     0.10440   0.54497   0.16966   0.00000  Uiso   1.00
C13    C     0.10912   0.42169   0.15000   0.00000  Uiso   1.00
C14    C     0.26957   0.78629   0.29864   0.00000  Uiso   1.00
C15    C     0.21185   0.79644   0.37080   0.00000  Uiso   1.00
C16    C     0.22941   0.81578   0.46770   0.00000  Uiso   1.00
C17    C     0.16843   0.82231   0.52165   0.00000  Uiso   1.00
C18    C     0.28496   0.84913   0.21759   0.00000  Uiso   1.00
C19    C     0.36400   0.91277   0.18566   0.00000  Uiso   1.00
C20    C     0.36457   0.96365   0.11062   0.00000  Uiso   1.00
C21    C     0.21628   0.69769   0.25513   0.00000  Uiso   1.00
C22    C     0.23758   0.63400   0.25474   0.00000  Uiso   1.00
C23    C     0.18033   0.55738   0.21128   0.00000  Uiso   1.00
H24    H     0.07103   0.75384   0.18981   0.00000  Uiso   1.00
H25    H     0.01639   0.78096   0.35090   0.00000  Uiso   1.00
H26    H     0.15096   0.87792   0.06890   0.00000  Uiso   1.00
H27    H     0.02455   0.59920   0.13797   0.00000  Uiso   1.00
H28    H     0.98925   0.81653   0.54781   0.00000  Uiso   1.00
H29    H     0.27300   0.02096   0.95317   0.00000  Uiso   1.00
H30    H     0.00645   0.43321   0.09881   0.00000  Uiso   1.00
H31    H     0.32858   0.79594   0.33098   0.00000  Uiso   1.00
H32    H     0.28807   0.82537   0.49983   0.00000  Uiso   1.00
H33    H     0.42264   0.92233   0.21782   0.00000  Uiso   1.00
H34    H     0.29623   0.64361   0.28689   0.00000  Uiso   1.00
H35    H     0.20976   0.85258   0.66868   0.00000  Uiso   1.00
H36    H     0.49351   0.05700   0.07403   0.00000  Uiso   1.00
H37    H     0.22696   0.46926   0.21968   0.00000  Uiso   1.00
O38    O     0.06823   0.85318   0.71676   0.00000  Uiso   1.00
O39    O     0.44050   0.12137   0.93660   0.00000  Uiso   1.00
O40    O     0.09078   0.35026   0.12769   0.00000  Uiso   1.00
N41    N     0.04670   0.82096   0.55309   0.00000  Uiso   1.00
N42    N     0.31199   0.01209   0.99715   0.00000  Uiso   1.00
N43    N     0.06280   0.46261   0.13329   0.00000  Uiso   1.00
N44    N     0.16536   0.84035   0.61813   0.00000  Uiso   1.00
N45    N     0.43064   0.03149   0.06219   0.00000  Uiso   1.00
N46    N     0.18145   0.48200   0.19833   0.00000  Uiso   1.00
C47    C     0.23652   0.36655   0.55549   0.00000  Uiso   1.00
C48    C     0.21595   0.35201   0.66259   0.00000  Uiso   1.00
C49    C     0.20945   0.28448   0.71641   0.00000  Uiso   1.00
C50    C     0.19010   0.28260   0.81336   0.00000  Uiso   1.00
C51    C     0.16001   0.25035   0.97333   0.00000  Uiso   1.00
C52    C     0.16326   0.37243   0.50938   0.00000  Uiso   1.00
C53    C     0.11247   0.32209   0.43437   0.00000  Uiso   1.00
C54    C     0.04877   0.33741   0.40234   0.00000  Uiso   1.00
C55    C     0.93691   0.33692   0.32440   0.00000  Uiso   1.00
C56    C     0.31470   0.45519   0.54692   0.00000  Uiso   1.00
C57    C     0.39124   0.47444   0.50344   0.00000  Uiso   1.00
C58    C     0.45503   0.55944   0.50300   0.00000  Uiso   1.00
C59    C     0.57831   0.68743   0.48333   0.00000  Uiso   1.00
C60    C     0.21371   0.48327   0.63198   0.00000  Uiso   1.00
C61    C     0.20356   0.41541   0.70413   0.00000  Uiso   1.00
C62    C     0.18422   0.41363   0.80103   0.00000  Uiso   1.00
C63    C     0.17769   0.34612   0.85498   0.00000  Uiso   1.00
C64    C     0.15087   0.43583   0.55092   0.00000  Uiso   1.00
C65    C     0.08723   0.45124   0.51899   0.00000  Uiso   1.00
C66    C     0.03635   0.40093   0.44396   0.00000  Uiso   1.00
C67    C     0.30231   0.51859   0.58846   0.00000  Uiso   1.00
C68    C     0.36600   0.60358   0.58807   0.00000  Uiso   1.00
C69    C     0.44262   0.62295   0.54461   0.00000  Uiso   1.00
H70    H     0.24616   0.31718   0.52315   0.00000  Uiso   1.00
H71    H     0.21904   0.23543   0.68423   0.00000  Uiso   1.00
H72    H     0.12208   0.27304   0.40223   0.00000  Uiso   1.00
H73    H     0.40080   0.42536   0.47130   0.00000  Uiso   1.00
H74    H     0.18347   0.17273   0.88114   0.00000  Uiso   1.00
H75    H     0.97904   0.25205   0.28650   0.00000  Uiso   1.00
H76    H     0.56679   0.57324   0.43215   0.00000  Uiso   1.00
H77    H     0.20406   0.53264   0.66432   0.00000  Uiso   1.00
H78    H     0.17463   0.46270   0.83316   0.00000  Uiso   1.00
H79    H     0.07767   0.50031   0.55115   0.00000  Uiso   1.00
H80    H     0.35639   0.65263   0.62022   0.00000  Uiso   1.00
H81    H     0.14742   0.35719   0.00201   0.00000  Uiso   1.00
H82    H     0.94300   0.43651   0.40737   0.00000  Uiso   1.00
H83    H     0.53074   0.75770   0.55302   0.00000  Uiso   1.00
O84    O     0.14682   0.21505   0.05009   0.00000  Uiso   1.00
O85    O     0.87863   0.31913   0.26993   0.00000  Uiso   1.00
O86    O     0.64974   0.74052   0.46102   0.00000  Uiso   1.00
N87    N     0.17904   0.22575   0.88642   0.00000  Uiso   1.00
N88    N     0.98791   0.29990   0.33048   0.00000  Uiso   1.00
N89    N     0.53739   0.60019   0.46662   0.00000  Uiso   1.00
N90    N     0.15965   0.32500   0.95146   0.00000  Uiso   1.00
N91    N     0.96851   0.39916   0.39552   0.00000  Uiso   1.00
N92    N     0.51800   0.69945   0.53166   0.00000  Uiso   1.00
C93    C     0.63345   0.86997   0.88883   0.00000  Uiso   1.00
C94    C     0.64799   0.86395   0.99593   0.00000  Uiso   1.00
C95    C     0.71552   0.92497   0.04974   0.00000  Uiso   1.00
C96    C     0.71740   0.90750   0.14670   0.00000  Uiso   1.00
C97    C     0.74965   0.90965   0.30667   0.00000  Uiso   1.00
C98    C     0.62757   0.79083   0.84271   0.00000  Uiso   1.00
C99    C     0.67791   0.79038   0.76770   0.00000  Uiso   1.00
C100   C     0.66259   0.71135   0.73568   0.00000  Uiso   1.00
C101   C     0.66308   0.59999   0.65773   0.00000  Uiso   1.00
C102   C     0.54481   0.85951   0.88025   0.00000  Uiso   1.00
C103   C     0.52556   0.91680   0.83678   0.00000  Uiso   1.00
C104   C     0.44056   0.89560   0.83633   0.00000  Uiso   1.00
C105   C     0.31257   0.89088   0.81667   0.00000  Uiso   1.00
C106   C     0.51673   0.73043   0.96531   0.00000  Uiso   1.00
C107   C     0.58459   0.78815   0.03747   0.00000  Uiso   1.00
C108   C     0.58637   0.77059   0.13436   0.00000  Uiso   1.00
C109   C     0.65388   0.83157   0.18832   0.00000  Uiso   1.00
C110   C     0.56417   0.71504   0.88425   0.00000  Uiso   1.00
C111   C     0.54876   0.63600   0.85232   0.00000  Uiso   1.00
C112   C     0.59907   0.63543   0.77729   0.00000  Uiso   1.00
C113   C     0.48141   0.78372   0.92179   0.00000  Uiso   1.00
C114   C     0.39642   0.76242   0.92140   0.00000  Uiso   1.00
C115   C     0.37705   0.81967   0.87794   0.00000  Uiso   1.00
H116   H     0.68282   0.92897   0.85648   0.00000  Uiso   1.00
H117   H     0.76457   0.98361   0.01757   0.00000  Uiso   1.00
H118   H     0.72696   0.84904   0.73556   0.00000  Uiso   1.00
H119   H     0.57464   0.97545   0.80464   0.00000  Uiso   1.00
H120   H     0.82727   0.01075   0.21447   0.00000  Uiso   1.00
H121   H     0.74795   0.72700   0.61984   0.00000  Uiso   1.00
H122   H     0.42676   0.99355   0.76548   0.00000  Uiso   1.00
H123   H     0.46736   0.67142   0.99765   0.00000  Uiso   1.00
H124   H     0.53730   0.71193   0.16649   0.00000  Uiso   1.00
H125   H     0.49969   0.57736   0.88449   0.00000  Uiso   1.00
H126   H     0.34737   0.70377   0.95356   0.00000  Uiso   1.00
H127   H     0.64281   0.79024   0.33535   0.00000  Uiso   1.00
H128   H     0.56349   0.50649   0.74070   0.00000  Uiso   1.00
H129   H     0.24230   0.77304   0.88635   0.00000  Uiso   1.00
O130   O     0.78495   0.93177   0.38342   0.00000  Uiso   1.00
O131   O     0.68087   0.55950   0.60327   0.00000  Uiso   1.00
O132   O     0.25948   0.90922   0.79436   0.00000  Uiso   1.00
N133   N     0.77425   0.95330   0.21975   0.00000  Uiso   1.00
N134   N     0.70010   0.68801   0.66381   0.00000  Uiso   1.00
N135   N     0.39981   0.93720   0.79996   0.00000  Uiso   1.00
N136   N     0.67500   0.83464   0.28480   0.00000  Uiso   1.00
N137   N     0.60084   0.56936   0.72885   0.00000  Uiso   1.00
N138   N     0.30055   0.81855   0.86500   0.00000  Uiso   1.00
C139   C     0.86997   0.23652   0.72216   0.00000  Uiso   1.00
C140   C     0.86395   0.21595   0.82926   0.00000  Uiso   1.00
C141   C     0.92497   0.20945   0.88308   0.00000  Uiso   1.00
C142   C     0.90750   0.19010   0.98003   0.00000  Uiso   1.00
C143   C     0.90965   0.16001   0.14000   0.00000  Uiso   1.00
C144   C     0.79083   0.16326   0.67605   0.00000  Uiso   1.00
C145   C     0.79038   0.11247   0.60104   0.00000  Uiso   1.00
C146   C     0.71135   0.04877   0.56901   0.00000  Uiso   1.00
C147   C     0.59999   0.93691   0.49106   0.00000  Uiso   1.00
C148   C     0.85951   0.31470   0.71358   0.00000  Uiso   1.00
C149   C     0.91680   0.39124   0.67011   0.00000  Uiso   1.00
C150   C     0.89560   0.45503   0.66966   0.00000  Uiso   1.00
C151   C     0.89088   0.57831   0.65000   0.00000  Uiso   1.00
C152   C     0.73043   0.21371   0.79864   0.00000  Uiso   1.00
C153   C     0.78815   0.20356   0.87080   0.00000  Uiso   1.00
C154   C     0.77059   0.18422   0.96770   0.00000  Uiso   1.00
C155   C     0.83157   0.17769   0.02165   0.00000  Uiso   1.00
C156   C     0.71504   0.15087   0.71759   0.00000  Uiso   1.00
C157   C     0.63600   0.08723   0.68566   0.00000  Uiso   1.00
C158   C     0.63543   0.03635   0.61062   0.00000  Uiso   1.00
C159   C     0.78372   0.30231   0.75513   0.00000  Uiso   1.00
C160   C     0.76242   0.36600   0.75474   0.00000  Uiso   1.00
C161   C     0.81967   0.44262   0.71128   0.00000  Uiso   1.00
H162   H     0.92897   0.24616   0.68981   0.00000  Uiso   1.00
H163   H     0.98361   0.21904   0.85090   0.00000  Uiso   1.00
H164   H     0.84904   0.12208   0.56890   0.00000  Uiso   1.00
H165   H     0.97545   0.40080   0.63797   0.00000  Uiso   1.00
H166   H     0.01075   0.18347   0.04781   0.00000  Uiso   1.00
H167   H     0.72700   0.97904   0.45317   0.00000  Uiso   1.00
H168   H     0.99355   0.56679   0.59881   0.00000  Uiso   1.00
H169   H     0.67142   0.20406   0.83098   0.00000  Uiso   1.00
H170   H     0.71193   0.17463   0.99983   0.00000  Uiso   1.00
H171   H     0.57736   0.07767   0.71782   0.00000  Uiso   1.00
H172   H     0.70377   0.35639   0.78689   0.00000  Uiso   1.00
H173   H     0.79024   0.14742   0.16868   0.00000  Uiso   1.00
H174   H     0.50649   0.94300   0.57403   0.00000  Uiso   1.00
H175   H     0.77304   0.53074   0.71968   0.00000  Uiso   1.00
O176   O     0.93177   0.14682   0.21676   0.00000  Uiso   1.00
O177   O     0.55950   0.87863   0.43660   0.00000  Uiso   1.00
O178   O     0.90922   0.64974   0.62769   0.00000  Uiso   1.00
N179   N     0.95330   0.17904   0.05309   0.00000  Uiso   1.00
N180   N     0.68801   0.98791   0.49715   0.00000  Uiso   1.00
N181   N     0.93720   0.53739   0.63329   0.00000  Uiso   1.00
N182   N     0.83464   0.15965   0.11813   0.00000  Uiso   1.00
N183   N     0.56936   0.96851   0.56219   0.00000  Uiso   1.00
N184   N     0.81855   0.51800   0.69833   0.00000  Uiso   1.00
C185   C     0.76348   0.63345   0.05549   0.00000  Uiso   1.00
C186   C     0.78405   0.64799   0.16259   0.00000  Uiso   1.00
C187   C     0.79055   0.71552   0.21641   0.00000  Uiso   1.00
C188   C     0.80990   0.71740   0.31336   0.00000  Uiso   1.00
C189   C     0.83999   0.74965   0.47333   0.00000  Uiso   1.00
C190   C     0.83674   0.62757   0.00938   0.00000  Uiso   1.00
C191   C     0.88753   0.67791   0.93437   0.00000  Uiso   1.00
C192   C     0.95123   0.66259   0.90234   0.00000  Uiso   1.00
C193   C     0.06309   0.66308   0.82440   0.00000  Uiso   1.00
C194   C     0.68530   0.54481   0.04692   0.00000  Uiso   1.00
C195   C     0.60876   0.52556   0.00344   0.00000  Uiso   1.00
C196   C     0.54497   0.44056   0.00300   0.00000  Uiso   1.00
C197   C     0.42169   0.31257   0.98333   0.00000  Uiso   1.00
C198   C     0.78629   0.51673   0.13198   0.00000  Uiso   1.00
C199   C     0.79644   0.58459   0.20413   0.00000  Uiso   1.00
C200   C     0.81578   0.58637   0.30103   0.00000  Uiso   1.00
C201   C     0.82231   0.65388   0.35498   0.00000  Uiso   1.00
C202   C     0.84913   0.56417   0.05092   0.00000  Uiso   1.00
C203   C     0.91277   0.54876   0.01899   0.00000  Uiso   1.00
C204   C     0.96365   0.59907   0.94396   0.00000  Uiso   1.00
C205   C     0.69769   0.48141   0.08846   0.00000  Uiso   1.00
C206   C     0.63400   0.39642   0.08807   0.00000  Uiso   1.00
C207   C     0.55738   0.37705   0.04461   0.00000  Uiso   1.00
H208   H     0.75384   0.68282   0.02315   0.00000  Uiso   1.00
H209   H     0.78096   0.76457   0.18423   0.00000  Uiso   1.00
H210   H     0.87792   0.72696   0.90223   0.00000  Uiso   1.00
H211   H     0.59920   0.57464   0.97130   0.00000  Uiso   1.00
H212   H     0.81653   0.82727   0.38114   0.00000  Uiso   1.00
H213   H     0.02096   0.74795   0.78650   0.00000  Uiso   1.00
H214   H     0.43321   0.42676   0.93215   0.00000  Uiso   1.00
H215   H     0.79594   0.46736   0.16432   0.00000  Uiso   1.00
H216   H     0.82537   0.53730   0.33316   0.00000  Uiso   1.00
H217   H     0.92233   0.49969   0.05115   0.00000  Uiso   1.00
H218   H     0.64361   0.34737   0.12022   0.00000  Uiso   1.00
H219   H     0.85258   0.64281   0.50201   0.00000  Uiso   1.00
H220   H     0.05700   0.56349   0.90737   0.00000  Uiso   1.00
H221   H     0.46926   0.24230   0.05302   0.00000  Uiso   1.00
O222   O     0.85318   0.78495   0.55009   0.00000  Uiso   1.00
O223   O     0.12137   0.68087   0.76993   0.00000  Uiso   1.00
O224   O     0.35026   0.25948   0.96102   0.00000  Uiso   1.00
N225   N     0.82096   0.77425   0.38642   0.00000  Uiso   1.00
N226   N     0.01209   0.70010   0.83048   0.00000  Uiso   1.00
N227   N     0.46261   0.39981   0.96662   0.00000  Uiso   1.00
N228   N     0.84035   0.67500   0.45146   0.00000  Uiso   1.00
N229   N     0.03149   0.60084   0.89552   0.00000  Uiso   1.00
N230   N     0.48200   0.30055   0.03166   0.00000  Uiso   1.00
C231   C     0.36655   0.13003   0.38883   0.00000  Uiso   1.00
C232   C     0.35201   0.13605   0.49593   0.00000  Uiso   1.00
C233   C     0.28448   0.07503   0.54974   0.00000  Uiso   1.00
C234   C     0.28260   0.09250   0.64670   0.00000  Uiso   1.00
C235   C     0.25035   0.09035   0.80667   0.00000  Uiso   1.00
C236   C     0.37243   0.20917   0.34271   0.00000  Uiso   1.00
C237   C     0.32209   0.20962   0.26770   0.00000  Uiso   1.00
C238   C     0.33741   0.28865   0.23568   0.00000  Uiso   1.00
C239   C     0.33692   0.40001   0.15773   0.00000  Uiso   1.00
C240   C     0.45519   0.14049   0.38025   0.00000  Uiso   1.00
C241   C     0.47444   0.08320   0.33678   0.00000  Uiso   1.00
C242   C     0.55944   0.10440   0.33633   0.00000  Uiso   1.00
C243   C     0.68743   0.10912   0.31667   0.00000  Uiso   1.00
C244   C     0.48327   0.26957   0.46531   0.00000  Uiso   1.00
C245   C     0.41541   0.21185   0.53747   0.00000  Uiso   1.00
C246   C     0.41363   0.22941   0.63436   0.00000  Uiso   1.00
C247   C     0.34612   0.16843   0.68832   0.00000  Uiso   1.00
C248   C     0.43583   0.28496   0.38425   0.00000  Uiso   1.00
C249   C     0.45124   0.36400   0.35232   0.00000  Uiso   1.00
C250   C     0.40093   0.36457   0.27729   0.00000  Uiso   1.00
C251   C     0.51859   0.21628   0.42179   0.00000  Uiso   1.00
C252   C     0.60358   0.23758   0.42140   0.00000  Uiso   1.00
C253   C     0.62295   0.18033   0.37794   0.00000  Uiso   1.00
H254   H     0.31718   0.07103   0.35648   0.00000  Uiso   1.00
H255   H     0.23543   0.01639   0.51757   0.00000  Uiso   1.00
H256   H     0.27304   0.15096   0.23556   0.00000  Uiso   1.00
H257   H     0.42536   0.02455   0.30464   0.00000  Uiso   1.00
H258   H     0.17273   0.98925   0.71447   0.00000  Uiso   1.00
H259   H     0.25205   0.27300   0.11984   0.00000  Uiso   1.00
H260   H     0.57324   0.00645   0.26548   0.00000  Uiso   1.00
H261   H     0.53264   0.32858   0.49765   0.00000  Uiso   1.00
H262   H     0.46270   0.28807   0.66649   0.00000  Uiso   1.00
H263   H     0.50031   0.42264   0.38449   0.00000  Uiso   1.00
H264   H     0.65263   0.29623   0.45356   0.00000  Uiso   1.00
H265   H     0.35719   0.20976   0.83535   0.00000  Uiso   1.00
H266   H     0.43651   0.49351   0.24070   0.00000  Uiso   1.00
H267   H     0.75770   0.22696   0.38635   0.00000  Uiso   1.00
O268   O     0.21505   0.06823   0.88342   0.00000  Uiso   1.00
O269   O     0.31913   0.44050   0.10327   0.00000  Uiso   1.00
O270   O     0.74052   0.09078   0.29436   0.00000  Uiso   1.00
N271   N     0.22575   0.04670   0.71975   0.00000  Uiso   1.00
N272   N     0.29990   0.31199   0.16381   0.00000  Uiso   1.00
N273   N     0.60019   0.06280   0.29996   0.00000  Uiso   1.00
N274   N     0.32500   0.16536   0.78480   0.00000  Uiso   1.00
N275   N     0.39916   0.43064   0.22885   0.00000  Uiso   1.00
N276   N     0.69945   0.18145   0.36500   0.00000  Uiso   1.00
