data_job_00260
_audit_creation_date              2018-12-19
_audit_creation_method            'Materials Studio'
_symmetry_space_group_name_H-M    'P1'
_symmetry_Int_Tables_number       1
_symmetry_cell_setting            triclinic
loop_
_symmetry_equiv_pos_as_xyz
  x,y,z
_cell_length_a                    7.0502
_cell_length_b                    23.8260
_cell_length_c                    42.6116
_cell_angle_alpha                 98.1809
_cell_angle_beta                  85.2784
_cell_angle_gamma                 89.9948
loop_
_atom_site_label
_atom_site_type_symbol
_atom_site_fract_x
_atom_site_fract_y
_atom_site_fract_z
_atom_site_U_iso_or_equiv
_atom_site_adp_type
_atom_site_occupancy
C1     C     0.54443   0.88209   0.09104   0.00000  Uiso   1.00
C2     C     0.49883   0.93130   0.07349   0.00000  Uiso   1.00
C3     C     0.62762   0.97104   0.06419   0.00000  Uiso   1.00
C4     C     0.55789   0.01278   0.04841   0.00000  Uiso   1.00
C5     C     0.51622   0.08891   0.02214   0.00000  Uiso   1.00
C6     C     0.40960   0.88880   0.12124   0.00000  Uiso   1.00
C7     C     0.46337   0.89280   0.15208   0.00000  Uiso   1.00
C8     C     0.31852   0.89876   0.17648   0.00000  Uiso   1.00
C9     C     0.13831   0.90887   0.22433   0.00000  Uiso   1.00
C10    C     0.48304   0.82854   0.07050   0.00000  Uiso   1.00
C11    C     0.59856   0.78187   0.05869   0.00000  Uiso   1.00
C12    C     0.51552   0.73709   0.04039   0.00000  Uiso   1.00
C13    C     0.44935   0.65365   0.00946   0.00000  Uiso   1.00
C14    C     0.19156   0.88554   0.07954   0.00000  Uiso   1.00
C15    C     0.30716   0.93317   0.06725   0.00000  Uiso   1.00
C16    C     0.23722   0.97486   0.05148   0.00000  Uiso   1.00
C17    C     0.36589   0.01465   0.04216   0.00000  Uiso   1.00
C18    C     0.21794   0.89067   0.11500   0.00000  Uiso   1.00
C19    C     0.07297   0.89662   0.13936   0.00000  Uiso   1.00
C20    C     0.12651   0.90063   0.17023   0.00000  Uiso   1.00
C21    C     0.29138   0.83042   0.06426   0.00000  Uiso   1.00
C22    C     0.20815   0.78570   0.04597   0.00000  Uiso   1.00
C23    C     0.32351   0.73897   0.03413   0.00000  Uiso   1.00
H24    H     0.69364   0.88063   0.09590   0.00000  Uiso   1.00
H25    H     0.77593   0.96958   0.06903   0.00000  Uiso   1.00
H26    H     0.61170   0.89134   0.15690   0.00000  Uiso   1.00
H27    H     0.74687   0.78044   0.06353   0.00000  Uiso   1.00
H28    H     0.78263   0.06903   0.03650   0.00000  Uiso   1.00
H29    H     0.43634   0.90405   0.22178   0.00000  Uiso   1.00
H30    H     0.72136   0.67018   0.02488   0.00000  Uiso   1.00
H31    H     0.04234   0.88700   0.07468   0.00000  Uiso   1.00
H32    H     0.08889   0.97630   0.04665   0.00000  Uiso   1.00
H33    H     0.92466   0.89806   0.13452   0.00000  Uiso   1.00
H34    H     0.05982   0.78716   0.04115   0.00000  Uiso   1.00
H35    H     0.22500   0.07448   0.01834   0.00000  Uiso   1.00
H36    H     0.87871   0.90950   0.20362   0.00000  Uiso   1.00
H37    H     0.16373   0.67564   0.00672   0.00000  Uiso   1.00
O38    O     0.54617   0.13039   0.00937   0.00000  Uiso   1.00
O39    O     0.09186   0.91394   0.25245   0.00000  Uiso   1.00
O40    O     0.46580   0.60712   0.99412   0.00000  Uiso   1.00
N41    N     0.64501   0.05805   0.03607   0.00000  Uiso   1.00
N42    N     0.32125   0.90382   0.20929   0.00000  Uiso   1.00
N43    N     0.58771   0.68516   0.02522   0.00000  Uiso   1.00
N44    N     0.34495   0.06099   0.02630   0.00000  Uiso   1.00
N45    N     0.02120   0.90675   0.19952   0.00000  Uiso   1.00
N46    N     0.28765   0.68810   0.01544   0.00000  Uiso   1.00
C47    C     0.86419   0.38234   0.09112   0.00000  Uiso   1.00
C48    C     0.94602   0.32875   0.07063   0.00000  Uiso   1.00
C49    C     0.84227   0.28207   0.05884   0.00000  Uiso   1.00
C50    C     0.94351   0.23725   0.04058   0.00000  Uiso   1.00
C51    C     0.04048   0.15373   0.00972   0.00000  Uiso   1.00
C52    C     0.96893   0.38912   0.12133   0.00000  Uiso   1.00
C53    C     0.88443   0.39322   0.15217   0.00000  Uiso   1.00
C54    C     0.00497   0.39923   0.17658   0.00000  Uiso   1.00
C55    C     0.13750   0.40950   0.22443   0.00000  Uiso   1.00
C56    C     0.92728   0.43148   0.07354   0.00000  Uiso   1.00
C57    C     0.80776   0.47121   0.06420   0.00000  Uiso   1.00
C58    C     0.89324   0.51290   0.04838   0.00000  Uiso   1.00
C59    C     0.96110   0.58894   0.02204   0.00000  Uiso   1.00
C60    C     0.22850   0.38575   0.07963   0.00000  Uiso   1.00
C61    C     0.14390   0.33060   0.06439   0.00000  Uiso   1.00
C62    C     0.24533   0.28584   0.04614   0.00000  Uiso   1.00
C63    C     0.14174   0.23910   0.03433   0.00000  Uiso   1.00
C64    C     0.16681   0.39098   0.11509   0.00000  Uiso   1.00
C65    C     0.28750   0.39699   0.13946   0.00000  Uiso   1.00
C66    C     0.20320   0.40109   0.17033   0.00000  Uiso   1.00
C67    C     0.12516   0.43334   0.06730   0.00000  Uiso   1.00
C68    C     0.21084   0.47498   0.05149   0.00000  Uiso   1.00
C69    C     0.09148   0.51475   0.04213   0.00000  Uiso   1.00
H70    H     0.71014   0.38090   0.09598   0.00000  Uiso   1.00
H71    H     0.68913   0.28065   0.06368   0.00000  Uiso   1.00
H72    H     0.73129   0.39179   0.15699   0.00000  Uiso   1.00
H73    H     0.65464   0.46976   0.06903   0.00000  Uiso   1.00
H74    H     0.75312   0.17031   0.02513   0.00000  Uiso   1.00
H75    H     0.84201   0.40467   0.22187   0.00000  Uiso   1.00
H76    H     0.68038   0.56910   0.03641   0.00000  Uiso   1.00
H77    H     0.38257   0.38719   0.07478   0.00000  Uiso   1.00
H78    H     0.39847   0.28728   0.04131   0.00000  Uiso   1.00
H79    H     0.44062   0.39842   0.13462   0.00000  Uiso   1.00
H80    H     0.36397   0.47640   0.04667   0.00000  Uiso   1.00
H81    H     0.32884   0.17569   0.00698   0.00000  Uiso   1.00
H82    H     0.41773   0.41006   0.20372   0.00000  Uiso   1.00
H83    H     0.25610   0.57448   0.01826   0.00000  Uiso   1.00
O84    O     0.03931   0.10716   0.99443   0.00000  Uiso   1.00
O85    O     0.15593   0.41464   0.25255   0.00000  Uiso   1.00
O86    O     0.94387   0.63036   0.00923   0.00000  Uiso   1.00
N87    N     0.88643   0.18529   0.02544   0.00000  Uiso   1.00
N88    N     0.96954   0.40440   0.20939   0.00000  Uiso   1.00
N89    N     0.81843   0.55813   0.03600   0.00000  Uiso   1.00
N90    N     0.19622   0.18819   0.01568   0.00000  Uiso   1.00
N91    N     0.27933   0.40730   0.19962   0.00000  Uiso   1.00
N92    N     0.12822   0.56103   0.02623   0.00000  Uiso   1.00
C93    C     0.90662   0.42315   0.40291   0.00000  Uiso   1.00
C94    C     0.83227   0.37312   0.41879   0.00000  Uiso   1.00
C95    C     0.94288   0.33030   0.42718   0.00000  Uiso   1.00
C96    C     0.84783   0.28831   0.44147   0.00000  Uiso   1.00
C97    C     0.76258   0.21048   0.46526   0.00000  Uiso   1.00
C98    C     0.80530   0.42107   0.37250   0.00000  Uiso   1.00
C99    C     0.89326   0.41859   0.34197   0.00000  Uiso   1.00
C100   C     0.77549   0.41697   0.31730   0.00000  Uiso   1.00
C101   C     0.64838   0.41363   0.26922   0.00000  Uiso   1.00
C102   C     0.83179   0.47633   0.42461   0.00000  Uiso   1.00
C103   C     0.94201   0.52032   0.43788   0.00000  Uiso   1.00
C104   C     0.84655   0.56524   0.45708   0.00000  Uiso   1.00
C105   C     0.76057   0.64771   0.48991   0.00000  Uiso   1.00
C106   C     0.54109   0.42471   0.41339   0.00000  Uiso   1.00
C107   C     0.63373   0.37397   0.42448   0.00000  Uiso   1.00
C108   C     0.53848   0.33203   0.43878   0.00000  Uiso   1.00
C109   C     0.64894   0.28916   0.44718   0.00000  Uiso   1.00
C110   C     0.60677   0.42192   0.37819   0.00000  Uiso   1.00
C111   C     0.48885   0.42031   0.35357   0.00000  Uiso   1.00
C112   C     0.57660   0.41782   0.32300   0.00000  Uiso   1.00
C113   C     0.63325   0.47718   0.43031   0.00000  Uiso   1.00
C114   C     0.53760   0.52205   0.44948   0.00000  Uiso   1.00
C115   C     0.64765   0.56610   0.46279   0.00000  Uiso   1.00
H116   H     0.06118   0.42249   0.39847   0.00000  Uiso   1.00
H117   H     0.09653   0.32966   0.42276   0.00000  Uiso   1.00
H118   H     0.04690   0.41793   0.33757   0.00000  Uiso   1.00
H119   H     0.09565   0.51965   0.43347   0.00000  Uiso   1.00
H120   H     0.04815   0.22710   0.45219   0.00000  Uiso   1.00
H121   H     0.94351   0.41325   0.27256   0.00000  Uiso   1.00
H122   H     0.04631   0.62775   0.47479   0.00000  Uiso   1.00
H123   H     0.38652   0.42538   0.41782   0.00000  Uiso   1.00
H124   H     0.38484   0.33270   0.44318   0.00000  Uiso   1.00
H125   H     0.33522   0.42098   0.35798   0.00000  Uiso   1.00
H126   H     0.38396   0.52269   0.45389   0.00000  Uiso   1.00
H127   H     0.47052   0.22957   0.46876   0.00000  Uiso   1.00
H128   H     0.36588   0.41572   0.28913   0.00000  Uiso   1.00
H129   H     0.46867   0.63021   0.49136   0.00000  Uiso   1.00
O130   O     0.77040   0.16731   0.47680   0.00000  Uiso   1.00
O131   O     0.63312   0.41154   0.24113   0.00000  Uiso   1.00
O132   O     0.76799   0.69295   0.50644   0.00000  Uiso   1.00
N133   N     0.91244   0.24040   0.45262   0.00000  Uiso   1.00
N134   N     0.81461   0.41444   0.28467   0.00000  Uiso   1.00
N135   N     0.91071   0.61498   0.47373   0.00000  Uiso   1.00
N136   N     0.60162   0.24173   0.46154   0.00000  Uiso   1.00
N137   N     0.50379   0.41577   0.29359   0.00000  Uiso   1.00
N138   N     0.59989   0.61631   0.48265   0.00000  Uiso   1.00
C139   C     0.19048   0.92292   0.40286   0.00000  Uiso   1.00
C140   C     0.24361   0.97615   0.42453   0.00000  Uiso   1.00
C141   C     0.12013   0.02015   0.43776   0.00000  Uiso   1.00
C142   C     0.19639   0.06511   0.45694   0.00000  Uiso   1.00
C143   C     0.24956   0.14764   0.48972   0.00000  Uiso   1.00
C144   C     0.32222   0.92076   0.37246   0.00000  Uiso   1.00
C145   C     0.26483   0.91820   0.34191   0.00000  Uiso   1.00
C146   C     0.40727   0.91652   0.31726   0.00000  Uiso   1.00
C147   C     0.58250   0.91303   0.26920   0.00000  Uiso   1.00
C148   C     0.24890   0.87293   0.41879   0.00000  Uiso   1.00
C149   C     0.12988   0.83014   0.42719   0.00000  Uiso   1.00
C150   C     0.21061   0.78819   0.44153   0.00000  Uiso   1.00
C151   C     0.27199   0.71043   0.46540   0.00000  Uiso   1.00
C152   C     0.54549   0.92450   0.41340   0.00000  Uiso   1.00
C153   C     0.43644   0.97700   0.43026   0.00000  Uiso   1.00
C154   C     0.51290   0.02190   0.44943   0.00000  Uiso   1.00
C155   C     0.38955   0.06597   0.46268   0.00000  Uiso   1.00
C156   C     0.51504   0.92162   0.37819   0.00000  Uiso   1.00
C157   C     0.65760   0.91994   0.35358   0.00000  Uiso   1.00
C158   C     0.60044   0.91738   0.32300   0.00000  Uiso   1.00
C159   C     0.44173   0.87379   0.42452   0.00000  Uiso   1.00
C160   C     0.52265   0.83189   0.43885   0.00000  Uiso   1.00
C161   C     0.40378   0.78905   0.44727   0.00000  Uiso   1.00
H162   H     0.04037   0.92225   0.39840   0.00000  Uiso   1.00
H163   H     0.97092   0.01948   0.43332   0.00000  Uiso   1.00
H164   H     0.11561   0.91753   0.33749   0.00000  Uiso   1.00
H165   H     0.98068   0.82949   0.42275   0.00000  Uiso   1.00
H166   H     0.97898   0.12766   0.47456   0.00000  Uiso   1.00
H167   H     0.28405   0.91268   0.27249   0.00000  Uiso   1.00
H168   H     0.99952   0.72703   0.45228   0.00000  Uiso   1.00
H169   H     0.69561   0.92516   0.41786   0.00000  Uiso   1.00
H170   H     0.66212   0.02255   0.45385   0.00000  Uiso   1.00
H171   H     0.80680   0.92060   0.35802   0.00000  Uiso   1.00
H172   H     0.67187   0.83257   0.44328   0.00000  Uiso   1.00
H173   H     0.53998   0.13015   0.49122   0.00000  Uiso   1.00
H174   H     0.84505   0.91517   0.28915   0.00000  Uiso   1.00
H175   H     0.56053   0.72953   0.46894   0.00000  Uiso   1.00
O176   O     0.22564   0.19293   0.50621   0.00000  Uiso   1.00
O177   O     0.62588   0.91087   0.24111   0.00000  Uiso   1.00
O178   O     0.25258   0.66731   0.47698   0.00000  Uiso   1.00
N179   N     0.11560   0.11487   0.47355   0.00000  Uiso   1.00
N180   N     0.40082   0.91389   0.28463   0.00000  Uiso   1.00
N181   N     0.13482   0.74032   0.45270   0.00000  Uiso   1.00
N182   N     0.41747   0.11622   0.48251   0.00000  Uiso   1.00
N183   N     0.70269   0.91523   0.29359   0.00000  Uiso   1.00
N184   N     0.43669   0.74166   0.46167   0.00000  Uiso   1.00
C185   C     0.45557   0.11791   0.90896   0.00000  Uiso   1.00
C186   C     0.50117   0.06870   0.92651   0.00000  Uiso   1.00
C187   C     0.37238   0.02896   0.93581   0.00000  Uiso   1.00
C188   C     0.44211   0.98722   0.95159   0.00000  Uiso   1.00
C189   C     0.48378   0.91109   0.97786   0.00000  Uiso   1.00
C190   C     0.59040   0.11120   0.87876   0.00000  Uiso   1.00
C191   C     0.53663   0.10720   0.84792   0.00000  Uiso   1.00
C192   C     0.68148   0.10124   0.82352   0.00000  Uiso   1.00
C193   C     0.86169   0.09113   0.77567   0.00000  Uiso   1.00
C194   C     0.51696   0.17146   0.92950   0.00000  Uiso   1.00
C195   C     0.40144   0.21813   0.94131   0.00000  Uiso   1.00
C196   C     0.48448   0.26291   0.95961   0.00000  Uiso   1.00
C197   C     0.55065   0.34635   0.99054   0.00000  Uiso   1.00
C198   C     0.80844   0.11446   0.92046   0.00000  Uiso   1.00
C199   C     0.69284   0.06683   0.93275   0.00000  Uiso   1.00
C200   C     0.76278   0.02514   0.94852   0.00000  Uiso   1.00
C201   C     0.63411   0.98535   0.95784   0.00000  Uiso   1.00
C202   C     0.78206   0.10933   0.88500   0.00000  Uiso   1.00
C203   C     0.92703   0.10338   0.86064   0.00000  Uiso   1.00
C204   C     0.87349   0.09937   0.82977   0.00000  Uiso   1.00
C205   C     0.70862   0.16958   0.93574   0.00000  Uiso   1.00
C206   C     0.79185   0.21430   0.95403   0.00000  Uiso   1.00
C207   C     0.67649   0.26103   0.96587   0.00000  Uiso   1.00
H208   H     0.30636   0.11937   0.90410   0.00000  Uiso   1.00
H209   H     0.22407   0.03042   0.93097   0.00000  Uiso   1.00
H210   H     0.38830   0.10866   0.84310   0.00000  Uiso   1.00
H211   H     0.25313   0.21956   0.93647   0.00000  Uiso   1.00
H212   H     0.21737   0.93097   0.96350   0.00000  Uiso   1.00
H213   H     0.56366   0.09595   0.77822   0.00000  Uiso   1.00
H214   H     0.27864   0.32982   0.97512   0.00000  Uiso   1.00
H215   H     0.95766   0.11300   0.92532   0.00000  Uiso   1.00
H216   H     0.91111   0.02370   0.95335   0.00000  Uiso   1.00
H217   H     0.07534   0.10194   0.86548   0.00000  Uiso   1.00
H218   H     0.94018   0.21284   0.95885   0.00000  Uiso   1.00
H219   H     0.77500   0.92552   0.98166   0.00000  Uiso   1.00
H220   H     0.12129   0.09050   0.79638   0.00000  Uiso   1.00
H221   H     0.83627   0.32436   0.99328   0.00000  Uiso   1.00
O222   O     0.45383   0.86961   0.99063   0.00000  Uiso   1.00
O223   O     0.90814   0.08606   0.74755   0.00000  Uiso   1.00
O224   O     0.53420   0.39288   0.00588   0.00000  Uiso   1.00
N225   N     0.35499   0.94195   0.96393   0.00000  Uiso   1.00
N226   N     0.67875   0.09618   0.79071   0.00000  Uiso   1.00
N227   N     0.41229   0.31484   0.97478   0.00000  Uiso   1.00
N228   N     0.65505   0.93901   0.97370   0.00000  Uiso   1.00
N229   N     0.97880   0.09325   0.80048   0.00000  Uiso   1.00
N230   N     0.71235   0.31190   0.98456   0.00000  Uiso   1.00
C231   C     0.13581   0.61766   0.90888   0.00000  Uiso   1.00
C232   C     0.05398   0.67125   0.92937   0.00000  Uiso   1.00
C233   C     0.15773   0.71793   0.94116   0.00000  Uiso   1.00
C234   C     0.05649   0.76275   0.95942   0.00000  Uiso   1.00
C235   C     0.95952   0.84627   0.99028   0.00000  Uiso   1.00
C236   C     0.03107   0.61088   0.87867   0.00000  Uiso   1.00
C237   C     0.11557   0.60678   0.84783   0.00000  Uiso   1.00
C238   C     0.99503   0.60077   0.82342   0.00000  Uiso   1.00
C239   C     0.86250   0.59050   0.77557   0.00000  Uiso   1.00
C240   C     0.07272   0.56852   0.92646   0.00000  Uiso   1.00
C241   C     0.19224   0.52879   0.93580   0.00000  Uiso   1.00
C242   C     0.10676   0.48710   0.95162   0.00000  Uiso   1.00
C243   C     0.03890   0.41106   0.97796   0.00000  Uiso   1.00
C244   C     0.77150   0.61425   0.92037   0.00000  Uiso   1.00
C245   C     0.85610   0.66940   0.93561   0.00000  Uiso   1.00
C246   C     0.75467   0.71416   0.95386   0.00000  Uiso   1.00
C247   C     0.85826   0.76090   0.96567   0.00000  Uiso   1.00
C248   C     0.83319   0.60902   0.88491   0.00000  Uiso   1.00
C249   C     0.71250   0.60301   0.86054   0.00000  Uiso   1.00
C250   C     0.79680   0.59891   0.82967   0.00000  Uiso   1.00
C251   C     0.87484   0.56666   0.93270   0.00000  Uiso   1.00
C252   C     0.78916   0.52502   0.94851   0.00000  Uiso   1.00
C253   C     0.90852   0.48525   0.95787   0.00000  Uiso   1.00
H254   H     0.28986   0.61910   0.90402   0.00000  Uiso   1.00
H255   H     0.31087   0.71935   0.93632   0.00000  Uiso   1.00
H256   H     0.26871   0.60821   0.84301   0.00000  Uiso   1.00
H257   H     0.34536   0.53024   0.93097   0.00000  Uiso   1.00
H258   H     0.24688   0.82969   0.97487   0.00000  Uiso   1.00
H259   H     0.15799   0.59533   0.77813   0.00000  Uiso   1.00
H260   H     0.31962   0.43090   0.96359   0.00000  Uiso   1.00
H261   H     0.61743   0.61281   0.92522   0.00000  Uiso   1.00
H262   H     0.60153   0.71272   0.95869   0.00000  Uiso   1.00
H263   H     0.55938   0.60158   0.86538   0.00000  Uiso   1.00
H264   H     0.63603   0.52360   0.95333   0.00000  Uiso   1.00
H265   H     0.67116   0.82431   0.99302   0.00000  Uiso   1.00
H266   H     0.58227   0.58994   0.79628   0.00000  Uiso   1.00
H267   H     0.74390   0.42552   0.98174   0.00000  Uiso   1.00
O268   O     0.96069   0.89284   0.00557   0.00000  Uiso   1.00
O269   O     0.84407   0.58536   0.74745   0.00000  Uiso   1.00
O270   O     0.05613   0.36964   0.99077   0.00000  Uiso   1.00
N271   N     0.11357   0.81471   0.97456   0.00000  Uiso   1.00
N272   N     0.03046   0.59560   0.79061   0.00000  Uiso   1.00
N273   N     0.18157   0.44187   0.96400   0.00000  Uiso   1.00
N274   N     0.80378   0.81181   0.98432   0.00000  Uiso   1.00
N275   N     0.72067   0.59270   0.80038   0.00000  Uiso   1.00
N276   N     0.87178   0.43897   0.97377   0.00000  Uiso   1.00
C277   C     0.09338   0.57685   0.59709   0.00000  Uiso   1.00
C278   C     0.16773   0.62688   0.58121   0.00000  Uiso   1.00
C279   C     0.05712   0.66970   0.57282   0.00000  Uiso   1.00
C280   C     0.15217   0.71169   0.55853   0.00000  Uiso   1.00
C281   C     0.23742   0.78952   0.53474   0.00000  Uiso   1.00
C282   C     0.19470   0.57893   0.62750   0.00000  Uiso   1.00
C283   C     0.10674   0.58141   0.65803   0.00000  Uiso   1.00
C284   C     0.22451   0.58303   0.68270   0.00000  Uiso   1.00
C285   C     0.35162   0.58637   0.73078   0.00000  Uiso   1.00
C286   C     0.16821   0.52367   0.57539   0.00000  Uiso   1.00
C287   C     0.05799   0.47968   0.56212   0.00000  Uiso   1.00
C288   C     0.15345   0.43476   0.54292   0.00000  Uiso   1.00
C289   C     0.23943   0.35229   0.51009   0.00000  Uiso   1.00
C290   C     0.45891   0.57529   0.58661   0.00000  Uiso   1.00
C291   C     0.36627   0.62603   0.57552   0.00000  Uiso   1.00
C292   C     0.46152   0.66797   0.56122   0.00000  Uiso   1.00
C293   C     0.35106   0.71084   0.55282   0.00000  Uiso   1.00
C294   C     0.39323   0.57808   0.62181   0.00000  Uiso   1.00
C295   C     0.51115   0.57969   0.64643   0.00000  Uiso   1.00
C296   C     0.42340   0.58218   0.67700   0.00000  Uiso   1.00
C297   C     0.36675   0.52282   0.56969   0.00000  Uiso   1.00
C298   C     0.46240   0.47795   0.55052   0.00000  Uiso   1.00
C299   C     0.35235   0.43390   0.53721   0.00000  Uiso   1.00
H300   H     0.93882   0.57751   0.60153   0.00000  Uiso   1.00
H301   H     0.90347   0.67034   0.57724   0.00000  Uiso   1.00
H302   H     0.95310   0.58207   0.66243   0.00000  Uiso   1.00
H303   H     0.90435   0.48035   0.56653   0.00000  Uiso   1.00
H304   H     0.95185   0.77290   0.54781   0.00000  Uiso   1.00
H305   H     0.05649   0.58675   0.72744   0.00000  Uiso   1.00
H306   H     0.95369   0.37225   0.52521   0.00000  Uiso   1.00
H307   H     0.61348   0.57462   0.58218   0.00000  Uiso   1.00
H308   H     0.61516   0.66730   0.55682   0.00000  Uiso   1.00
H309   H     0.66478   0.57902   0.64202   0.00000  Uiso   1.00
H310   H     0.61604   0.47731   0.54611   0.00000  Uiso   1.00
H311   H     0.52948   0.77043   0.53124   0.00000  Uiso   1.00
H312   H     0.63412   0.58428   0.71087   0.00000  Uiso   1.00
H313   H     0.53133   0.36979   0.50864   0.00000  Uiso   1.00
O314   O     0.22960   0.83269   0.52320   0.00000  Uiso   1.00
O315   O     0.36688   0.58846   0.75887   0.00000  Uiso   1.00
O316   O     0.23201   0.30705   0.49356   0.00000  Uiso   1.00
N317   N     0.08756   0.75960   0.54738   0.00000  Uiso   1.00
N318   N     0.18539   0.58556   0.71533   0.00000  Uiso   1.00
N319   N     0.08929   0.38502   0.52627   0.00000  Uiso   1.00
N320   N     0.39838   0.75827   0.53846   0.00000  Uiso   1.00
N321   N     0.49621   0.58423   0.70641   0.00000  Uiso   1.00
N322   N     0.40011   0.38369   0.51735   0.00000  Uiso   1.00
C323   C     0.80952   0.07708   0.59714   0.00000  Uiso   1.00
C324   C     0.75639   0.02385   0.57547   0.00000  Uiso   1.00
C325   C     0.87987   0.97985   0.56224   0.00000  Uiso   1.00
C326   C     0.80361   0.93489   0.54306   0.00000  Uiso   1.00
C327   C     0.75044   0.85236   0.51028   0.00000  Uiso   1.00
C328   C     0.67778   0.07924   0.62754   0.00000  Uiso   1.00
C329   C     0.73517   0.08180   0.65809   0.00000  Uiso   1.00
C330   C     0.59273   0.08348   0.68274   0.00000  Uiso   1.00
C331   C     0.41750   0.08697   0.73080   0.00000  Uiso   1.00
C332   C     0.75110   0.12707   0.58121   0.00000  Uiso   1.00
C333   C     0.87012   0.16986   0.57281   0.00000  Uiso   1.00
C334   C     0.78939   0.21181   0.55847   0.00000  Uiso   1.00
C335   C     0.72801   0.28957   0.53460   0.00000  Uiso   1.00
C336   C     0.45451   0.07550   0.58660   0.00000  Uiso   1.00
C337   C     0.56356   0.02300   0.56974   0.00000  Uiso   1.00
C338   C     0.48710   0.97810   0.55057   0.00000  Uiso   1.00
C339   C     0.61045   0.93403   0.53732   0.00000  Uiso   1.00
C340   C     0.48496   0.07838   0.62181   0.00000  Uiso   1.00
C341   C     0.34240   0.08006   0.64642   0.00000  Uiso   1.00
C342   C     0.39956   0.08262   0.67700   0.00000  Uiso   1.00
C343   C     0.55827   0.12621   0.57548   0.00000  Uiso   1.00
C344   C     0.47735   0.16811   0.56115   0.00000  Uiso   1.00
C345   C     0.59622   0.21095   0.55273   0.00000  Uiso   1.00
H346   H     0.95963   0.07775   0.60160   0.00000  Uiso   1.00
H347   H     0.02908   0.98052   0.56668   0.00000  Uiso   1.00
H348   H     0.88439   0.08247   0.66251   0.00000  Uiso   1.00
H349   H     0.01932   0.17051   0.57725   0.00000  Uiso   1.00
H350   H     0.02102   0.87234   0.52544   0.00000  Uiso   1.00
H351   H     0.71595   0.08732   0.72751   0.00000  Uiso   1.00
H352   H     0.00048   0.27297   0.54772   0.00000  Uiso   1.00
H353   H     0.30439   0.07484   0.58214   0.00000  Uiso   1.00
H354   H     0.33788   0.97745   0.54615   0.00000  Uiso   1.00
H355   H     0.19320   0.07940   0.64198   0.00000  Uiso   1.00
H356   H     0.32813   0.16743   0.55672   0.00000  Uiso   1.00
H357   H     0.46002   0.86985   0.50878   0.00000  Uiso   1.00
H358   H     0.15495   0.08483   0.71085   0.00000  Uiso   1.00
H359   H     0.43947   0.27047   0.53106   0.00000  Uiso   1.00
O360   O     0.77436   0.80707   0.49379   0.00000  Uiso   1.00
O361   O     0.37412   0.08913   0.75889   0.00000  Uiso   1.00
O362   O     0.74742   0.33269   0.52302   0.00000  Uiso   1.00
N363   N     0.88440   0.88513   0.52645   0.00000  Uiso   1.00
N364   N     0.59918   0.08611   0.71537   0.00000  Uiso   1.00
N365   N     0.86518   0.25968   0.54730   0.00000  Uiso   1.00
N366   N     0.58253   0.88378   0.51749   0.00000  Uiso   1.00
N367   N     0.29731   0.08477   0.70641   0.00000  Uiso   1.00
N368   N     0.56331   0.25834   0.53833   0.00000  Uiso   1.00
