data_job_01111
_audit_creation_date              2018-12-19
_audit_creation_method            'Materials Studio'
_symmetry_space_group_name_H-M    'P1'
_symmetry_Int_Tables_number       1
_symmetry_cell_setting            triclinic
loop_
_symmetry_equiv_pos_as_xyz
  x,y,z
_cell_length_a                    44.1963
_cell_length_b                    7.2564
_cell_length_c                    33.9786
_cell_angle_alpha                 90.0000
_cell_angle_beta                  152.9235
_cell_angle_gamma                 90.0000
loop_
_atom_site_label
_atom_site_type_symbol
_atom_site_fract_x
_atom_site_fract_y
_atom_site_fract_z
_atom_site_U_iso_or_equiv
_atom_site_adp_type
_atom_site_occupancy
C1     C     0.33315   0.42754   0.88571   0.00000  Uiso   1.00
C2     C     0.36820   0.34628   0.96212   0.00000  Uiso   1.00
C3     C     0.39769   0.44625   0.02639   0.00000  Uiso   1.00
C4     C     0.42721   0.34629   0.09071   0.00000  Uiso   1.00
C5     C     0.48166   0.24946   0.20938   0.00000  Uiso   1.00
C6     C     0.36802   0.34644   0.89020   0.00000  Uiso   1.00
C7     C     0.39734   0.44657   0.89400   0.00000  Uiso   1.00
C8     C     0.42670   0.34674   0.89778   0.00000  Uiso   1.00
C9     C     0.48082   0.25018   0.90473   0.00000  Uiso   1.00
C10    C     0.26323   0.34641   0.80478   0.00000  Uiso   1.00
C11    C     0.20445   0.44649   0.73674   0.00000  Uiso   1.00
C12    C     0.14557   0.34662   0.66859   0.00000  Uiso   1.00
C13    C     0.03700   0.25000   0.54292   0.00000  Uiso   1.00
C14    C     0.33313   0.07222   0.88565   0.00000  Uiso   1.00
C15    C     0.36819   0.15328   0.96208   0.00000  Uiso   1.00
C16    C     0.39767   0.05314   0.02632   0.00000  Uiso   1.00
C17    C     0.42719   0.15295   0.09068   0.00000  Uiso   1.00
C18    C     0.36801   0.15346   0.89017   0.00000  Uiso   1.00
C19    C     0.39732   0.05345   0.89393   0.00000  Uiso   1.00
C20    C     0.42669   0.15340   0.89774   0.00000  Uiso   1.00
C21    C     0.26322   0.15341   0.80475   0.00000  Uiso   1.00
C22    C     0.20443   0.05337   0.73668   0.00000  Uiso   1.00
C23    C     0.14556   0.15328   0.66856   0.00000  Uiso   1.00
H24    H     0.33316   0.57779   0.88574   0.00000  Uiso   1.00
H25    H     0.39769   0.59561   0.02640   0.00000  Uiso   1.00
H26    H     0.39734   0.59592   0.89402   0.00000  Uiso   1.00
H27    H     0.20447   0.59584   0.73679   0.00000  Uiso   1.00
H28    H     0.46925   0.53025   0.18235   0.00000  Uiso   1.00
H29    H     0.46848   0.53090   0.90319   0.00000  Uiso   1.00
H30    H     0.06179   0.53074   0.57165   0.00000  Uiso   1.00
H31    H     0.33313   0.92196   0.88562   0.00000  Uiso   1.00
H32    H     0.39765   0.90379   0.02628   0.00000  Uiso   1.00
H33    H     0.39730   0.90410   0.89390   0.00000  Uiso   1.00
H34    H     0.20444   0.90402   0.73668   0.00000  Uiso   1.00
H35    H     0.46922   0.96874   0.18225   0.00000  Uiso   1.00
H36    H     0.46845   0.96940   0.90309   0.00000  Uiso   1.00
H37    H     0.06176   0.96923   0.57155   0.00000  Uiso   1.00
O38    O     0.51171   0.24937   0.27484   0.00000  Uiso   1.00
O39    O     0.51068   0.25024   0.90858   0.00000  Uiso   1.00
O40    O     0.97712   0.25002   0.47361   0.00000  Uiso   1.00
N41    N     0.46038   0.40059   0.16301   0.00000  Uiso   1.00
N42    N     0.45967   0.40121   0.90203   0.00000  Uiso   1.00
N43    N     0.07944   0.40105   0.59205   0.00000  Uiso   1.00
N44    N     0.46036   0.09845   0.16296   0.00000  Uiso   1.00
N45    N     0.45965   0.09907   0.90198   0.00000  Uiso   1.00
N46    N     0.07943   0.09891   0.59200   0.00000  Uiso   1.00
C47    C     0.66685   0.92754   0.61429   0.00000  Uiso   1.00
C48    C     0.63180   0.84628   0.53788   0.00000  Uiso   1.00
C49    C     0.60231   0.94625   0.47361   0.00000  Uiso   1.00
C50    C     0.57279   0.84629   0.40929   0.00000  Uiso   1.00
C51    C     0.51834   0.74946   0.29062   0.00000  Uiso   1.00
C52    C     0.63198   0.84644   0.60980   0.00000  Uiso   1.00
C53    C     0.60266   0.94657   0.60600   0.00000  Uiso   1.00
C54    C     0.57330   0.84674   0.60222   0.00000  Uiso   1.00
C55    C     0.51918   0.75018   0.59527   0.00000  Uiso   1.00
C56    C     0.73677   0.84641   0.69522   0.00000  Uiso   1.00
C57    C     0.79555   0.94649   0.76326   0.00000  Uiso   1.00
C58    C     0.85443   0.84662   0.83141   0.00000  Uiso   1.00
C59    C     0.96300   0.75000   0.95708   0.00000  Uiso   1.00
C60    C     0.66687   0.57222   0.61435   0.00000  Uiso   1.00
C61    C     0.63181   0.65328   0.53792   0.00000  Uiso   1.00
C62    C     0.60233   0.55314   0.47368   0.00000  Uiso   1.00
C63    C     0.57281   0.65295   0.40932   0.00000  Uiso   1.00
C64    C     0.63199   0.65346   0.60983   0.00000  Uiso   1.00
C65    C     0.60268   0.55345   0.60607   0.00000  Uiso   1.00
C66    C     0.57331   0.65340   0.60226   0.00000  Uiso   1.00
C67    C     0.73678   0.65341   0.69525   0.00000  Uiso   1.00
C68    C     0.79557   0.55337   0.76332   0.00000  Uiso   1.00
C69    C     0.85444   0.65328   0.83144   0.00000  Uiso   1.00
H70    H     0.66684   0.07779   0.61426   0.00000  Uiso   1.00
H71    H     0.60231   0.09561   0.47360   0.00000  Uiso   1.00
H72    H     0.60266   0.09592   0.60598   0.00000  Uiso   1.00
H73    H     0.79553   0.09584   0.76321   0.00000  Uiso   1.00
H74    H     0.53075   0.03025   0.31765   0.00000  Uiso   1.00
H75    H     0.53152   0.03090   0.59681   0.00000  Uiso   1.00
H76    H     0.93821   0.03074   0.92835   0.00000  Uiso   1.00
H77    H     0.66687   0.42196   0.61438   0.00000  Uiso   1.00
H78    H     0.60235   0.40379   0.47372   0.00000  Uiso   1.00
H79    H     0.60270   0.40410   0.60610   0.00000  Uiso   1.00
H80    H     0.79556   0.40402   0.76332   0.00000  Uiso   1.00
H81    H     0.53078   0.46874   0.31775   0.00000  Uiso   1.00
H82    H     0.53155   0.46940   0.59691   0.00000  Uiso   1.00
H83    H     0.93824   0.46923   0.92845   0.00000  Uiso   1.00
O84    O     0.48829   0.74937   0.22516   0.00000  Uiso   1.00
O85    O     0.48932   0.75024   0.59142   0.00000  Uiso   1.00
O86    O     0.02288   0.75002   0.02639   0.00000  Uiso   1.00
N87    N     0.53962   0.90059   0.33699   0.00000  Uiso   1.00
N88    N     0.54033   0.90121   0.59797   0.00000  Uiso   1.00
N89    N     0.92056   0.90105   0.90795   0.00000  Uiso   1.00
N90    N     0.53964   0.59845   0.33704   0.00000  Uiso   1.00
N91    N     0.54035   0.59907   0.59802   0.00000  Uiso   1.00
N92    N     0.92057   0.59891   0.90800   0.00000  Uiso   1.00
C93    C     0.66685   0.57246   0.11429   0.00000  Uiso   1.00
C94    C     0.63180   0.65372   0.03788   0.00000  Uiso   1.00
C95    C     0.60231   0.55375   0.97361   0.00000  Uiso   1.00
C96    C     0.57279   0.65371   0.90929   0.00000  Uiso   1.00
C97    C     0.51834   0.75054   0.79062   0.00000  Uiso   1.00
C98    C     0.63198   0.65356   0.10980   0.00000  Uiso   1.00
C99    C     0.60266   0.55343   0.10600   0.00000  Uiso   1.00
C100   C     0.57330   0.65326   0.10222   0.00000  Uiso   1.00
C101   C     0.51918   0.74982   0.09527   0.00000  Uiso   1.00
C102   C     0.73677   0.65359   0.19522   0.00000  Uiso   1.00
C103   C     0.79555   0.55351   0.26326   0.00000  Uiso   1.00
C104   C     0.85443   0.65338   0.33141   0.00000  Uiso   1.00
C105   C     0.96300   0.75000   0.45708   0.00000  Uiso   1.00
C106   C     0.66687   0.92778   0.11435   0.00000  Uiso   1.00
C107   C     0.63181   0.84672   0.03792   0.00000  Uiso   1.00
C108   C     0.60233   0.94686   0.97368   0.00000  Uiso   1.00
C109   C     0.57281   0.84705   0.90932   0.00000  Uiso   1.00
C110   C     0.63199   0.84654   0.10983   0.00000  Uiso   1.00
C111   C     0.60268   0.94655   0.10607   0.00000  Uiso   1.00
C112   C     0.57331   0.84660   0.10226   0.00000  Uiso   1.00
C113   C     0.73678   0.84659   0.19525   0.00000  Uiso   1.00
C114   C     0.79557   0.94663   0.26332   0.00000  Uiso   1.00
C115   C     0.85444   0.84672   0.33144   0.00000  Uiso   1.00
H116   H     0.66684   0.42221   0.11426   0.00000  Uiso   1.00
H117   H     0.60231   0.40439   0.97360   0.00000  Uiso   1.00
H118   H     0.60266   0.40408   0.10598   0.00000  Uiso   1.00
H119   H     0.79553   0.40416   0.26321   0.00000  Uiso   1.00
H120   H     0.53075   0.46975   0.81765   0.00000  Uiso   1.00
H121   H     0.53152   0.46910   0.09681   0.00000  Uiso   1.00
H122   H     0.93821   0.46926   0.42835   0.00000  Uiso   1.00
H123   H     0.66687   0.07804   0.11438   0.00000  Uiso   1.00
H124   H     0.60235   0.09621   0.97372   0.00000  Uiso   1.00
H125   H     0.60270   0.09590   0.10610   0.00000  Uiso   1.00
H126   H     0.79556   0.09598   0.26332   0.00000  Uiso   1.00
H127   H     0.53078   0.03126   0.81775   0.00000  Uiso   1.00
H128   H     0.53155   0.03060   0.09691   0.00000  Uiso   1.00
H129   H     0.93824   0.03077   0.42845   0.00000  Uiso   1.00
O130   O     0.48829   0.75063   0.72516   0.00000  Uiso   1.00
O131   O     0.48932   0.74976   0.09142   0.00000  Uiso   1.00
O132   O     0.02288   0.74998   0.52639   0.00000  Uiso   1.00
N133   N     0.53962   0.59941   0.83699   0.00000  Uiso   1.00
N134   N     0.54033   0.59879   0.09797   0.00000  Uiso   1.00
N135   N     0.92056   0.59895   0.40795   0.00000  Uiso   1.00
N136   N     0.53964   0.90155   0.83704   0.00000  Uiso   1.00
N137   N     0.54035   0.90093   0.09802   0.00000  Uiso   1.00
N138   N     0.92057   0.90109   0.40800   0.00000  Uiso   1.00
C139   C     0.33315   0.07246   0.38571   0.00000  Uiso   1.00
C140   C     0.36820   0.15372   0.46212   0.00000  Uiso   1.00
C141   C     0.39769   0.05375   0.52639   0.00000  Uiso   1.00
C142   C     0.42721   0.15371   0.59071   0.00000  Uiso   1.00
C143   C     0.48166   0.25054   0.70938   0.00000  Uiso   1.00
C144   C     0.36802   0.15356   0.39020   0.00000  Uiso   1.00
C145   C     0.39734   0.05343   0.39400   0.00000  Uiso   1.00
C146   C     0.42670   0.15326   0.39778   0.00000  Uiso   1.00
C147   C     0.48082   0.24982   0.40473   0.00000  Uiso   1.00
C148   C     0.26323   0.15359   0.30478   0.00000  Uiso   1.00
C149   C     0.20445   0.05351   0.23674   0.00000  Uiso   1.00
C150   C     0.14557   0.15338   0.16859   0.00000  Uiso   1.00
C151   C     0.03700   0.25000   0.04292   0.00000  Uiso   1.00
C152   C     0.33313   0.42778   0.38565   0.00000  Uiso   1.00
C153   C     0.36819   0.34672   0.46208   0.00000  Uiso   1.00
C154   C     0.39767   0.44686   0.52632   0.00000  Uiso   1.00
C155   C     0.42719   0.34705   0.59068   0.00000  Uiso   1.00
C156   C     0.36801   0.34654   0.39017   0.00000  Uiso   1.00
C157   C     0.39732   0.44655   0.39393   0.00000  Uiso   1.00
C158   C     0.42669   0.34660   0.39774   0.00000  Uiso   1.00
C159   C     0.26322   0.34659   0.30475   0.00000  Uiso   1.00
C160   C     0.20443   0.44663   0.23668   0.00000  Uiso   1.00
C161   C     0.14556   0.34672   0.16856   0.00000  Uiso   1.00
H162   H     0.33316   0.92221   0.38574   0.00000  Uiso   1.00
H163   H     0.39769   0.90439   0.52640   0.00000  Uiso   1.00
H164   H     0.39734   0.90408   0.39402   0.00000  Uiso   1.00
H165   H     0.20447   0.90416   0.23679   0.00000  Uiso   1.00
H166   H     0.46925   0.96975   0.68235   0.00000  Uiso   1.00
H167   H     0.46848   0.96910   0.40319   0.00000  Uiso   1.00
H168   H     0.06179   0.96926   0.07165   0.00000  Uiso   1.00
H169   H     0.33313   0.57804   0.38562   0.00000  Uiso   1.00
H170   H     0.39765   0.59621   0.52628   0.00000  Uiso   1.00
H171   H     0.39730   0.59590   0.39390   0.00000  Uiso   1.00
H172   H     0.20444   0.59598   0.23668   0.00000  Uiso   1.00
H173   H     0.46922   0.53126   0.68225   0.00000  Uiso   1.00
H174   H     0.46845   0.53060   0.40309   0.00000  Uiso   1.00
H175   H     0.06176   0.53077   0.07155   0.00000  Uiso   1.00
O176   O     0.51171   0.25063   0.77484   0.00000  Uiso   1.00
O177   O     0.51068   0.24976   0.40858   0.00000  Uiso   1.00
O178   O     0.97712   0.24998   0.97361   0.00000  Uiso   1.00
N179   N     0.46038   0.09941   0.66301   0.00000  Uiso   1.00
N180   N     0.45967   0.09879   0.40203   0.00000  Uiso   1.00
N181   N     0.07944   0.09895   0.09205   0.00000  Uiso   1.00
N182   N     0.46036   0.40155   0.66296   0.00000  Uiso   1.00
N183   N     0.45965   0.40093   0.40198   0.00000  Uiso   1.00
N184   N     0.07943   0.40109   0.09200   0.00000  Uiso   1.00
