data_job_00951
_audit_creation_date              2018-12-19
_audit_creation_method            'Materials Studio'
_symmetry_space_group_name_H-M    'P1'
_symmetry_Int_Tables_number       1
_symmetry_cell_setting            triclinic
loop_
_symmetry_equiv_pos_as_xyz
  x,y,z
_cell_length_a                    12.4732
_cell_length_b                    25.6202
_cell_length_c                    21.1058
_cell_angle_alpha                 90.0000
_cell_angle_beta                  126.0719
_cell_angle_gamma                 90.0000
loop_
_atom_site_label
_atom_site_type_symbol
_atom_site_fract_x
_atom_site_fract_y
_atom_site_fract_z
_atom_site_U_iso_or_equiv
_atom_site_adp_type
_atom_site_occupancy
C1     C     0.55553   0.60360   0.16472   0.00000  Uiso   1.00
C2     C     0.47969   0.59672   0.20028   0.00000  Uiso   1.00
C3     C     0.40317   0.55377   0.19004   0.00000  Uiso   1.00
C4     C     0.34169   0.55495   0.22749   0.00000  Uiso   1.00
C5     C     0.22165   0.53780   0.27568   0.00000  Uiso   1.00
C6     C     0.50573   0.65453   0.11853   0.00000  Uiso   1.00
C7     C     0.45111   0.66017   0.03956   0.00000  Uiso   1.00
C8     C     0.41157   0.71002   0.00820   0.00000  Uiso   1.00
C9     C     0.33205   0.78261   0.92948   0.00000  Uiso   1.00
C10    C     0.69960   0.61334   0.23340   0.00000  Uiso   1.00
C11    C     0.80801   0.58436   0.25100   0.00000  Uiso   1.00
C12    C     0.93170   0.59954   0.31635   0.00000  Uiso   1.00
C13    C     0.15319   0.60818   0.41598   0.00000  Uiso   1.00
C14    C     0.58243   0.68209   0.24945   0.00000  Uiso   1.00
C15    C     0.49430   0.63936   0.24630   0.00000  Uiso   1.00
C16    C     0.43293   0.64061   0.28379   0.00000  Uiso   1.00
C17    C     0.35633   0.59766   0.27360   0.00000  Uiso   1.00
C18    C     0.52034   0.69716   0.16455   0.00000  Uiso   1.00
C19    C     0.48088   0.74701   0.13331   0.00000  Uiso   1.00
C20    C     0.42621   0.75273   0.05430   0.00000  Uiso   1.00
C21    C     0.71421   0.65597   0.27943   0.00000  Uiso   1.00
C22    C     0.83776   0.67120   0.34475   0.00000  Uiso   1.00
C23    C     0.94634   0.64225   0.36245   0.00000  Uiso   1.00
H24    H     0.54415   0.57041   0.12888   0.00000  Uiso   1.00
H25    H     0.39187   0.52079   0.15441   0.00000  Uiso   1.00
H26    H     0.43983   0.62718   0.00396   0.00000  Uiso   1.00
H27    H     0.79666   0.55138   0.21537   0.00000  Uiso   1.00
H28    H     0.22945   0.48458   0.20298   0.00000  Uiso   1.00
H29    H     0.33061   0.70890   0.88575   0.00000  Uiso   1.00
H30    H     0.08306   0.54906   0.33156   0.00000  Uiso   1.00
H31    H     0.59381   0.71528   0.28528   0.00000  Uiso   1.00
H32    H     0.44425   0.67360   0.31940   0.00000  Uiso   1.00
H33    H     0.49220   0.77999   0.16894   0.00000  Uiso   1.00
H34    H     0.84904   0.70419   0.38035   0.00000  Uiso   1.00
H35    H     0.27195   0.60861   0.33689   0.00000  Uiso   1.00
H36    H     0.37312   0.83293   0.01966   0.00000  Uiso   1.00
H37    H     0.12557   0.67309   0.46547   0.00000  Uiso   1.00
O38    O     0.15139   0.51657   0.28953   0.00000  Uiso   1.00
O39    O     0.28413   0.81088   0.87334   0.00000  Uiso   1.00
O40    O     0.27132   0.60117   0.45823   0.00000  Uiso   1.00
N41    N     0.26000   0.51948   0.22983   0.00000  Uiso   1.00
N42    N     0.35455   0.72921   0.93324   0.00000  Uiso   1.00
N43    N     0.05804   0.57979   0.35002   0.00000  Uiso   1.00
N44    N     0.28287   0.58622   0.30189   0.00000  Uiso   1.00
N45    N     0.37743   0.79595   0.00529   0.00000  Uiso   1.00
N46    N     0.08091   0.64652   0.42207   0.00000  Uiso   1.00
C47    C     0.02715   0.10446   0.49890   0.00000  Uiso   1.00
C48    C     0.95104   0.09780   0.53433   0.00000  Uiso   1.00
C49    C     0.87406   0.05498   0.52397   0.00000  Uiso   1.00
C50    C     0.81239   0.05635   0.56131   0.00000  Uiso   1.00
C51    C     0.69189   0.03952   0.60928   0.00000  Uiso   1.00
C52    C     0.97792   0.15542   0.45276   0.00000  Uiso   1.00
C53    C     0.92357   0.16104   0.37382   0.00000  Uiso   1.00
C54    C     0.88455   0.21092   0.34250   0.00000  Uiso   1.00
C55    C     0.80588   0.28355   0.26385   0.00000  Uiso   1.00
C56    C     0.17125   0.11402   0.56768   0.00000  Uiso   1.00
C57    C     0.27945   0.08485   0.58536   0.00000  Uiso   1.00
C58    C     0.40321   0.09988   0.65079   0.00000  Uiso   1.00
C59    C     0.62470   0.10824   0.75058   0.00000  Uiso   1.00
C60    C     0.05454   0.18303   0.58364   0.00000  Uiso   1.00
C61    C     0.96592   0.14047   0.58036   0.00000  Uiso   1.00
C62    C     0.90436   0.14191   0.61772   0.00000  Uiso   1.00
C63    C     0.82730   0.09910   0.60742   0.00000  Uiso   1.00
C64    C     0.99280   0.19809   0.49878   0.00000  Uiso   1.00
C65    C     0.95387   0.24797   0.46757   0.00000  Uiso   1.00
C66    C     0.89946   0.25367   0.38861   0.00000  Uiso   1.00
C67    C     0.18613   0.15669   0.61371   0.00000  Uiso   1.00
C68    C     0.30975   0.17178   0.67912   0.00000  Uiso   1.00
C69    C     0.41811   0.14264   0.69690   0.00000  Uiso   1.00
H70    H     0.01557   0.07124   0.46307   0.00000  Uiso   1.00
H71    H     0.86256   0.02196   0.48834   0.00000  Uiso   1.00
H72    H     0.91208   0.12801   0.33822   0.00000  Uiso   1.00
H73    H     0.26790   0.05183   0.54973   0.00000  Uiso   1.00
H74    H     0.69944   0.98616   0.53663   0.00000  Uiso   1.00
H75    H     0.80389   0.20977   0.22010   0.00000  Uiso   1.00
H76    H     0.55422   0.04913   0.66612   0.00000  Uiso   1.00
H77    H     0.06613   0.21626   0.61948   0.00000  Uiso   1.00
H78    H     0.91589   0.17493   0.65334   0.00000  Uiso   1.00
H79    H     0.96540   0.28098   0.50321   0.00000  Uiso   1.00
H80    H     0.32123   0.20480   0.71473   0.00000  Uiso   1.00
H81    H     0.74272   0.11032   0.67055   0.00000  Uiso   1.00
H82    H     0.84718   0.33393   0.35401   0.00000  Uiso   1.00
H83    H     0.59750   0.17329   0.80003   0.00000  Uiso   1.00
O84    O     0.62130   0.01845   0.62302   0.00000  Uiso   1.00
O85    O     0.75837   0.31182   0.20775   0.00000  Uiso   1.00
O86    O     0.74276   0.10106   0.79291   0.00000  Uiso   1.00
N87    N     0.73027   0.02105   0.56352   0.00000  Uiso   1.00
N88    N     0.82790   0.23011   0.26757   0.00000  Uiso   1.00
N89    N     0.52940   0.07993   0.68455   0.00000  Uiso   1.00
N90    N     0.75356   0.08785   0.63558   0.00000  Uiso   1.00
N91    N     0.85119   0.29692   0.33963   0.00000  Uiso   1.00
N92    N     0.55269   0.14674   0.75661   0.00000  Uiso   1.00
C93    C     0.44447   0.10360   0.33528   0.00000  Uiso   1.00
C94    C     0.52031   0.09672   0.29972   0.00000  Uiso   1.00
C95    C     0.59683   0.05377   0.30996   0.00000  Uiso   1.00
C96    C     0.65831   0.05495   0.27251   0.00000  Uiso   1.00
C97    C     0.77835   0.03780   0.22432   0.00000  Uiso   1.00
C98    C     0.49427   0.15453   0.38147   0.00000  Uiso   1.00
C99    C     0.54889   0.16017   0.46044   0.00000  Uiso   1.00
C100   C     0.58843   0.21002   0.49180   0.00000  Uiso   1.00
C101   C     0.66795   0.28261   0.57052   0.00000  Uiso   1.00
C102   C     0.30040   0.11334   0.26660   0.00000  Uiso   1.00
C103   C     0.19199   0.08436   0.24900   0.00000  Uiso   1.00
C104   C     0.06830   0.09954   0.18365   0.00000  Uiso   1.00
C105   C     0.84681   0.10818   0.08402   0.00000  Uiso   1.00
C106   C     0.41757   0.18209   0.25055   0.00000  Uiso   1.00
C107   C     0.50570   0.13936   0.25370   0.00000  Uiso   1.00
C108   C     0.56707   0.14061   0.21621   0.00000  Uiso   1.00
C109   C     0.64367   0.09766   0.22640   0.00000  Uiso   1.00
C110   C     0.47966   0.19716   0.33545   0.00000  Uiso   1.00
C111   C     0.51912   0.24701   0.36669   0.00000  Uiso   1.00
C112   C     0.57379   0.25273   0.44570   0.00000  Uiso   1.00
C113   C     0.28579   0.15597   0.22057   0.00000  Uiso   1.00
C114   C     0.16224   0.17120   0.15525   0.00000  Uiso   1.00
C115   C     0.05366   0.14225   0.13755   0.00000  Uiso   1.00
H116   H     0.45585   0.07041   0.37112   0.00000  Uiso   1.00
H117   H     0.60813   0.02079   0.34559   0.00000  Uiso   1.00
H118   H     0.56017   0.12718   0.49604   0.00000  Uiso   1.00
H119   H     0.20334   0.05138   0.28463   0.00000  Uiso   1.00
H120   H     0.77055   0.98458   0.29702   0.00000  Uiso   1.00
H121   H     0.66939   0.20890   0.61425   0.00000  Uiso   1.00
H122   H     0.91694   0.04906   0.16844   0.00000  Uiso   1.00
H123   H     0.40619   0.21528   0.21472   0.00000  Uiso   1.00
H124   H     0.55575   0.17360   0.18060   0.00000  Uiso   1.00
H125   H     0.50780   0.27999   0.33106   0.00000  Uiso   1.00
H126   H     0.15096   0.20419   0.11965   0.00000  Uiso   1.00
H127   H     0.72805   0.10861   0.16311   0.00000  Uiso   1.00
H128   H     0.62688   0.33293   0.48034   0.00000  Uiso   1.00
H129   H     0.87443   0.17309   0.03453   0.00000  Uiso   1.00
O130   O     0.84861   0.01657   0.21047   0.00000  Uiso   1.00
O131   O     0.71587   0.31088   0.62666   0.00000  Uiso   1.00
O132   O     0.72868   0.10117   0.04177   0.00000  Uiso   1.00
N133   N     0.74000   0.01948   0.27017   0.00000  Uiso   1.00
N134   N     0.64545   0.22921   0.56676   0.00000  Uiso   1.00
N135   N     0.94196   0.07979   0.14998   0.00000  Uiso   1.00
N136   N     0.71713   0.08622   0.19811   0.00000  Uiso   1.00
N137   N     0.62257   0.29595   0.49471   0.00000  Uiso   1.00
N138   N     0.91909   0.14652   0.07793   0.00000  Uiso   1.00
C139   C     0.97285   0.60446   0.00110   0.00000  Uiso   1.00
C140   C     0.04896   0.59780   0.96567   0.00000  Uiso   1.00
C141   C     0.12594   0.55498   0.97603   0.00000  Uiso   1.00
C142   C     0.18761   0.55635   0.93869   0.00000  Uiso   1.00
C143   C     0.30811   0.53952   0.89072   0.00000  Uiso   1.00
C144   C     0.02208   0.65542   0.04724   0.00000  Uiso   1.00
C145   C     0.07643   0.66104   0.12618   0.00000  Uiso   1.00
C146   C     0.11545   0.71092   0.15750   0.00000  Uiso   1.00
C147   C     0.19412   0.78355   0.23615   0.00000  Uiso   1.00
C148   C     0.82875   0.61402   0.93232   0.00000  Uiso   1.00
C149   C     0.72055   0.58485   0.91464   0.00000  Uiso   1.00
C150   C     0.59679   0.59988   0.84921   0.00000  Uiso   1.00
C151   C     0.37530   0.60824   0.74942   0.00000  Uiso   1.00
C152   C     0.94546   0.68303   0.91636   0.00000  Uiso   1.00
C153   C     0.03408   0.64047   0.91964   0.00000  Uiso   1.00
C154   C     0.09564   0.64191   0.88228   0.00000  Uiso   1.00
C155   C     0.17270   0.59910   0.89258   0.00000  Uiso   1.00
C156   C     0.00720   0.69809   0.00122   0.00000  Uiso   1.00
C157   C     0.04613   0.74797   0.03243   0.00000  Uiso   1.00
C158   C     0.10054   0.75367   0.11139   0.00000  Uiso   1.00
C159   C     0.81387   0.65669   0.88629   0.00000  Uiso   1.00
C160   C     0.69025   0.67178   0.82088   0.00000  Uiso   1.00
C161   C     0.58189   0.64264   0.80310   0.00000  Uiso   1.00
H162   H     0.98443   0.57124   0.03693   0.00000  Uiso   1.00
H163   H     0.13744   0.52196   0.01166   0.00000  Uiso   1.00
H164   H     0.08792   0.62801   0.16178   0.00000  Uiso   1.00
H165   H     0.73210   0.55183   0.95027   0.00000  Uiso   1.00
H166   H     0.30056   0.48616   0.96337   0.00000  Uiso   1.00
H167   H     0.19611   0.70977   0.27990   0.00000  Uiso   1.00
H168   H     0.44578   0.54913   0.83388   0.00000  Uiso   1.00
H169   H     0.93387   0.71626   0.88052   0.00000  Uiso   1.00
H170   H     0.08411   0.67493   0.84666   0.00000  Uiso   1.00
H171   H     0.03460   0.78098   0.99679   0.00000  Uiso   1.00
H172   H     0.67877   0.70480   0.78527   0.00000  Uiso   1.00
H173   H     0.25728   0.61032   0.82945   0.00000  Uiso   1.00
H174   H     0.15282   0.83393   0.14599   0.00000  Uiso   1.00
H175   H     0.40250   0.67329   0.69997   0.00000  Uiso   1.00
O176   O     0.37870   0.51845   0.87698   0.00000  Uiso   1.00
O177   O     0.24163   0.81182   0.29225   0.00000  Uiso   1.00
O178   O     0.25724   0.60106   0.70709   0.00000  Uiso   1.00
N179   N     0.26973   0.52105   0.93648   0.00000  Uiso   1.00
N180   N     0.17210   0.73011   0.23243   0.00000  Uiso   1.00
N181   N     0.47060   0.57993   0.81545   0.00000  Uiso   1.00
N182   N     0.24644   0.58785   0.86442   0.00000  Uiso   1.00
N183   N     0.14881   0.79692   0.16037   0.00000  Uiso   1.00
N184   N     0.44731   0.64674   0.74339   0.00000  Uiso   1.00
C185   C     0.44447   0.39640   0.83528   0.00000  Uiso   1.00
C186   C     0.52031   0.40328   0.79972   0.00000  Uiso   1.00
C187   C     0.59683   0.44623   0.80996   0.00000  Uiso   1.00
C188   C     0.65831   0.44505   0.77251   0.00000  Uiso   1.00
C189   C     0.77835   0.46220   0.72432   0.00000  Uiso   1.00
C190   C     0.49427   0.34547   0.88147   0.00000  Uiso   1.00
C191   C     0.54889   0.33983   0.96044   0.00000  Uiso   1.00
C192   C     0.58843   0.28998   0.99180   0.00000  Uiso   1.00
C193   C     0.66795   0.21739   0.07052   0.00000  Uiso   1.00
C194   C     0.30040   0.38666   0.76660   0.00000  Uiso   1.00
C195   C     0.19199   0.41564   0.74900   0.00000  Uiso   1.00
C196   C     0.06830   0.40046   0.68365   0.00000  Uiso   1.00
C197   C     0.84681   0.39182   0.58402   0.00000  Uiso   1.00
C198   C     0.41757   0.31791   0.75055   0.00000  Uiso   1.00
C199   C     0.50570   0.36064   0.75370   0.00000  Uiso   1.00
C200   C     0.56707   0.35939   0.71621   0.00000  Uiso   1.00
C201   C     0.64367   0.40234   0.72640   0.00000  Uiso   1.00
C202   C     0.47966   0.30284   0.83545   0.00000  Uiso   1.00
C203   C     0.51912   0.25299   0.86669   0.00000  Uiso   1.00
C204   C     0.57379   0.24727   0.94570   0.00000  Uiso   1.00
C205   C     0.28579   0.34403   0.72057   0.00000  Uiso   1.00
C206   C     0.16224   0.32880   0.65525   0.00000  Uiso   1.00
C207   C     0.05366   0.35775   0.63755   0.00000  Uiso   1.00
H208   H     0.45585   0.42959   0.87112   0.00000  Uiso   1.00
H209   H     0.60813   0.47921   0.84559   0.00000  Uiso   1.00
H210   H     0.56017   0.37282   0.99604   0.00000  Uiso   1.00
H211   H     0.20334   0.44862   0.78463   0.00000  Uiso   1.00
H212   H     0.77055   0.51542   0.79702   0.00000  Uiso   1.00
H213   H     0.66939   0.29110   0.11425   0.00000  Uiso   1.00
H214   H     0.91694   0.45094   0.66844   0.00000  Uiso   1.00
H215   H     0.40619   0.28472   0.71472   0.00000  Uiso   1.00
H216   H     0.55575   0.32640   0.68060   0.00000  Uiso   1.00
H217   H     0.50780   0.22001   0.83106   0.00000  Uiso   1.00
H218   H     0.15096   0.29581   0.61965   0.00000  Uiso   1.00
H219   H     0.72805   0.39139   0.66311   0.00000  Uiso   1.00
H220   H     0.62688   0.16707   0.98034   0.00000  Uiso   1.00
H221   H     0.87443   0.32691   0.53453   0.00000  Uiso   1.00
O222   O     0.84861   0.48343   0.71047   0.00000  Uiso   1.00
O223   O     0.71587   0.18912   0.12666   0.00000  Uiso   1.00
O224   O     0.72868   0.39883   0.54177   0.00000  Uiso   1.00
N225   N     0.74000   0.48052   0.77017   0.00000  Uiso   1.00
N226   N     0.64545   0.27079   0.06676   0.00000  Uiso   1.00
N227   N     0.94196   0.42021   0.64998   0.00000  Uiso   1.00
N228   N     0.71713   0.41378   0.69811   0.00000  Uiso   1.00
N229   N     0.62257   0.20405   0.99471   0.00000  Uiso   1.00
N230   N     0.91909   0.35348   0.57793   0.00000  Uiso   1.00
C231   C     0.97285   0.89554   0.50110   0.00000  Uiso   1.00
C232   C     0.04896   0.90220   0.46567   0.00000  Uiso   1.00
C233   C     0.12594   0.94502   0.47603   0.00000  Uiso   1.00
C234   C     0.18761   0.94365   0.43869   0.00000  Uiso   1.00
C235   C     0.30811   0.96048   0.39072   0.00000  Uiso   1.00
C236   C     0.02208   0.84458   0.54724   0.00000  Uiso   1.00
C237   C     0.07643   0.83896   0.62618   0.00000  Uiso   1.00
C238   C     0.11545   0.78908   0.65750   0.00000  Uiso   1.00
C239   C     0.19412   0.71645   0.73615   0.00000  Uiso   1.00
C240   C     0.82875   0.88598   0.43232   0.00000  Uiso   1.00
C241   C     0.72055   0.91515   0.41464   0.00000  Uiso   1.00
C242   C     0.59679   0.90012   0.34921   0.00000  Uiso   1.00
C243   C     0.37530   0.89176   0.24942   0.00000  Uiso   1.00
C244   C     0.94546   0.81697   0.41636   0.00000  Uiso   1.00
C245   C     0.03408   0.85953   0.41964   0.00000  Uiso   1.00
C246   C     0.09564   0.85809   0.38228   0.00000  Uiso   1.00
C247   C     0.17270   0.90090   0.39258   0.00000  Uiso   1.00
C248   C     0.00720   0.80191   0.50122   0.00000  Uiso   1.00
C249   C     0.04613   0.75203   0.53243   0.00000  Uiso   1.00
C250   C     0.10054   0.74633   0.61139   0.00000  Uiso   1.00
C251   C     0.81387   0.84331   0.38629   0.00000  Uiso   1.00
C252   C     0.69025   0.82822   0.32088   0.00000  Uiso   1.00
C253   C     0.58189   0.85736   0.30310   0.00000  Uiso   1.00
H254   H     0.98443   0.92876   0.53693   0.00000  Uiso   1.00
H255   H     0.13744   0.97804   0.51166   0.00000  Uiso   1.00
H256   H     0.08792   0.87199   0.66178   0.00000  Uiso   1.00
H257   H     0.73210   0.94817   0.45027   0.00000  Uiso   1.00
H258   H     0.30056   0.01384   0.46337   0.00000  Uiso   1.00
H259   H     0.19611   0.79023   0.77990   0.00000  Uiso   1.00
H260   H     0.44578   0.95087   0.33388   0.00000  Uiso   1.00
H261   H     0.93387   0.78374   0.38052   0.00000  Uiso   1.00
H262   H     0.08411   0.82507   0.34666   0.00000  Uiso   1.00
H263   H     0.03460   0.71902   0.49679   0.00000  Uiso   1.00
H264   H     0.67877   0.79520   0.28527   0.00000  Uiso   1.00
H265   H     0.25728   0.88968   0.32945   0.00000  Uiso   1.00
H266   H     0.15282   0.66607   0.64599   0.00000  Uiso   1.00
H267   H     0.40250   0.82671   0.19997   0.00000  Uiso   1.00
O268   O     0.37870   0.98155   0.37698   0.00000  Uiso   1.00
O269   O     0.24163   0.68818   0.79225   0.00000  Uiso   1.00
O270   O     0.25724   0.89894   0.20709   0.00000  Uiso   1.00
N271   N     0.26973   0.97895   0.43648   0.00000  Uiso   1.00
N272   N     0.17210   0.76989   0.73243   0.00000  Uiso   1.00
N273   N     0.47060   0.92007   0.31545   0.00000  Uiso   1.00
N274   N     0.24644   0.91215   0.36442   0.00000  Uiso   1.00
N275   N     0.14881   0.70308   0.66037   0.00000  Uiso   1.00
N276   N     0.44731   0.85326   0.24339   0.00000  Uiso   1.00
C277   C     0.55553   0.89640   0.66472   0.00000  Uiso   1.00
C278   C     0.47969   0.90328   0.70028   0.00000  Uiso   1.00
C279   C     0.40317   0.94623   0.69004   0.00000  Uiso   1.00
C280   C     0.34169   0.94505   0.72749   0.00000  Uiso   1.00
C281   C     0.22165   0.96220   0.77568   0.00000  Uiso   1.00
C282   C     0.50573   0.84547   0.61853   0.00000  Uiso   1.00
C283   C     0.45111   0.83983   0.53956   0.00000  Uiso   1.00
C284   C     0.41157   0.78998   0.50820   0.00000  Uiso   1.00
C285   C     0.33205   0.71739   0.42948   0.00000  Uiso   1.00
C286   C     0.69960   0.88666   0.73340   0.00000  Uiso   1.00
C287   C     0.80801   0.91564   0.75100   0.00000  Uiso   1.00
C288   C     0.93170   0.90046   0.81635   0.00000  Uiso   1.00
C289   C     0.15319   0.89182   0.91598   0.00000  Uiso   1.00
C290   C     0.58243   0.81791   0.74945   0.00000  Uiso   1.00
C291   C     0.49430   0.86064   0.74630   0.00000  Uiso   1.00
C292   C     0.43293   0.85939   0.78379   0.00000  Uiso   1.00
C293   C     0.35633   0.90234   0.77360   0.00000  Uiso   1.00
C294   C     0.52034   0.80284   0.66455   0.00000  Uiso   1.00
C295   C     0.48088   0.75299   0.63331   0.00000  Uiso   1.00
C296   C     0.42621   0.74727   0.55430   0.00000  Uiso   1.00
C297   C     0.71421   0.84403   0.77943   0.00000  Uiso   1.00
C298   C     0.83776   0.82880   0.84475   0.00000  Uiso   1.00
C299   C     0.94634   0.85775   0.86245   0.00000  Uiso   1.00
H300   H     0.54415   0.92959   0.62888   0.00000  Uiso   1.00
H301   H     0.39187   0.97921   0.65441   0.00000  Uiso   1.00
H302   H     0.43983   0.87282   0.50396   0.00000  Uiso   1.00
H303   H     0.79666   0.94862   0.71537   0.00000  Uiso   1.00
H304   H     0.22945   0.01542   0.70298   0.00000  Uiso   1.00
H305   H     0.33061   0.79110   0.38575   0.00000  Uiso   1.00
H306   H     0.08306   0.95094   0.83156   0.00000  Uiso   1.00
H307   H     0.59381   0.78472   0.78528   0.00000  Uiso   1.00
H308   H     0.44425   0.82640   0.81940   0.00000  Uiso   1.00
H309   H     0.49220   0.72001   0.66894   0.00000  Uiso   1.00
H310   H     0.84904   0.79581   0.88035   0.00000  Uiso   1.00
H311   H     0.27195   0.89139   0.83689   0.00000  Uiso   1.00
H312   H     0.37312   0.66707   0.51966   0.00000  Uiso   1.00
H313   H     0.12557   0.82691   0.96547   0.00000  Uiso   1.00
O314   O     0.15139   0.98343   0.78953   0.00000  Uiso   1.00
O315   O     0.28413   0.68912   0.37334   0.00000  Uiso   1.00
O316   O     0.27132   0.89883   0.95823   0.00000  Uiso   1.00
N317   N     0.26000   0.98052   0.72983   0.00000  Uiso   1.00
N318   N     0.35455   0.77079   0.43324   0.00000  Uiso   1.00
N319   N     0.05804   0.92021   0.85002   0.00000  Uiso   1.00
N320   N     0.28287   0.91378   0.80189   0.00000  Uiso   1.00
N321   N     0.37743   0.70405   0.50529   0.00000  Uiso   1.00
N322   N     0.08091   0.85348   0.92207   0.00000  Uiso   1.00
C323   C     0.02715   0.39554   0.99890   0.00000  Uiso   1.00
C324   C     0.95104   0.40220   0.03433   0.00000  Uiso   1.00
C325   C     0.87406   0.44502   0.02397   0.00000  Uiso   1.00
C326   C     0.81239   0.44365   0.06131   0.00000  Uiso   1.00
C327   C     0.69189   0.46048   0.10928   0.00000  Uiso   1.00
C328   C     0.97792   0.34458   0.95276   0.00000  Uiso   1.00
C329   C     0.92357   0.33896   0.87382   0.00000  Uiso   1.00
C330   C     0.88455   0.28908   0.84250   0.00000  Uiso   1.00
C331   C     0.80588   0.21645   0.76385   0.00000  Uiso   1.00
C332   C     0.17125   0.38598   0.06768   0.00000  Uiso   1.00
C333   C     0.27945   0.41515   0.08536   0.00000  Uiso   1.00
C334   C     0.40321   0.40012   0.15079   0.00000  Uiso   1.00
C335   C     0.62470   0.39176   0.25058   0.00000  Uiso   1.00
C336   C     0.05454   0.31697   0.08364   0.00000  Uiso   1.00
C337   C     0.96592   0.35953   0.08036   0.00000  Uiso   1.00
C338   C     0.90436   0.35809   0.11772   0.00000  Uiso   1.00
C339   C     0.82730   0.40090   0.10742   0.00000  Uiso   1.00
C340   C     0.99280   0.30191   0.99878   0.00000  Uiso   1.00
C341   C     0.95387   0.25203   0.96757   0.00000  Uiso   1.00
C342   C     0.89946   0.24633   0.88861   0.00000  Uiso   1.00
C343   C     0.18613   0.34331   0.11371   0.00000  Uiso   1.00
C344   C     0.30975   0.32822   0.17912   0.00000  Uiso   1.00
C345   C     0.41811   0.35736   0.19690   0.00000  Uiso   1.00
H346   H     0.01557   0.42876   0.96307   0.00000  Uiso   1.00
H347   H     0.86256   0.47804   0.98834   0.00000  Uiso   1.00
H348   H     0.91208   0.37199   0.83822   0.00000  Uiso   1.00
H349   H     0.26790   0.44817   0.04973   0.00000  Uiso   1.00
H350   H     0.69944   0.51384   0.03663   0.00000  Uiso   1.00
H351   H     0.80389   0.29023   0.72010   0.00000  Uiso   1.00
H352   H     0.55422   0.45087   0.16612   0.00000  Uiso   1.00
H353   H     0.06613   0.28374   0.11948   0.00000  Uiso   1.00
H354   H     0.91589   0.32507   0.15334   0.00000  Uiso   1.00
H355   H     0.96540   0.21902   0.00321   0.00000  Uiso   1.00
H356   H     0.32123   0.29520   0.21473   0.00000  Uiso   1.00
H357   H     0.74272   0.38968   0.17055   0.00000  Uiso   1.00
H358   H     0.84718   0.16607   0.85401   0.00000  Uiso   1.00
H359   H     0.59750   0.32671   0.30003   0.00000  Uiso   1.00
O360   O     0.62130   0.48155   0.12302   0.00000  Uiso   1.00
O361   O     0.75837   0.18818   0.70775   0.00000  Uiso   1.00
O362   O     0.74276   0.39894   0.29291   0.00000  Uiso   1.00
N363   N     0.73027   0.47895   0.06352   0.00000  Uiso   1.00
N364   N     0.82790   0.26989   0.76757   0.00000  Uiso   1.00
N365   N     0.52940   0.42007   0.18455   0.00000  Uiso   1.00
N366   N     0.75356   0.41215   0.13558   0.00000  Uiso   1.00
N367   N     0.85119   0.20308   0.83963   0.00000  Uiso   1.00
N368   N     0.55269   0.35326   0.25661   0.00000  Uiso   1.00
