data_job_00445
_audit_creation_date              2018-12-19
_audit_creation_method            'Materials Studio'
_symmetry_space_group_name_H-M    'P1'
_symmetry_Int_Tables_number       1
_symmetry_cell_setting            triclinic
loop_
_symmetry_equiv_pos_as_xyz
  x,y,z
_cell_length_a                    20.6488
_cell_length_b                    20.6488
_cell_length_c                    12.5233
_cell_angle_alpha                 90.0000
_cell_angle_beta                  90.0000
_cell_angle_gamma                 90.0000
loop_
_atom_site_label
_atom_site_type_symbol
_atom_site_fract_x
_atom_site_fract_y
_atom_site_fract_z
_atom_site_U_iso_or_equiv
_atom_site_adp_type
_atom_site_occupancy
C1     C     0.19374   0.79368   0.94987   0.00000  Uiso   1.00
C2     C     0.18780   0.83321   0.84749   0.00000  Uiso   1.00
C3     C     0.23901   0.85704   0.78744   0.00000  Uiso   1.00
C4     C     0.22347   0.89210   0.69638   0.00000  Uiso   1.00
C5     C     0.22405   0.95188   0.54198   0.00000  Uiso   1.00
C6     C     0.15548   0.83047   0.03453   0.00000  Uiso   1.00
C7     C     0.17952   0.85197   0.13176   0.00000  Uiso   1.00
C8     C     0.13677   0.88471   0.19815   0.00000  Uiso   1.00
C9     C     0.08716   0.94017   0.33417   0.00000  Uiso   1.00
C10    C     0.15661   0.73100   0.92993   0.00000  Uiso   1.00
C11    C     0.18160   0.66886   0.93924   0.00000  Uiso   1.00
C12    C     0.13980   0.61785   0.91760   0.00000  Uiso   1.00
C13    C     0.09196   0.51887   0.89121   0.00000  Uiso   1.00
C14    C     0.07506   0.81358   0.89492   0.00000  Uiso   1.00
C15    C     0.12333   0.84403   0.81764   0.00000  Uiso   1.00
C16    C     0.10771   0.87906   0.72665   0.00000  Uiso   1.00
C17    C     0.15890   0.90293   0.66648   0.00000  Uiso   1.00
C18    C     0.09102   0.84128   0.00469   0.00000  Uiso   1.00
C19    C     0.04822   0.87399   0.07096   0.00000  Uiso   1.00
C20    C     0.07219   0.89554   0.16825   0.00000  Uiso   1.00
C21    C     0.09215   0.74180   0.90008   0.00000  Uiso   1.00
C22    C     0.05030   0.69088   0.87844   0.00000  Uiso   1.00
C23    C     0.07522   0.62868   0.88770   0.00000  Uiso   1.00
H24    H     0.24392   0.78526   0.97311   0.00000  Uiso   1.00
H25    H     0.28889   0.84867   0.81057   0.00000  Uiso   1.00
H26    H     0.22940   0.84359   0.15483   0.00000  Uiso   1.00
H27    H     0.23149   0.66051   0.96234   0.00000  Uiso   1.00
H28    H     0.31032   0.92375   0.61723   0.00000  Uiso   1.00
H29    H     0.18488   0.91303   0.34314   0.00000  Uiso   1.00
H30    H     0.18928   0.52697   0.93723   0.00000  Uiso   1.00
H31    H     0.02487   0.82200   0.87168   0.00000  Uiso   1.00
H32    H     0.05782   0.88742   0.70357   0.00000  Uiso   1.00
H33    H     0.99834   0.88234   0.04784   0.00000  Uiso   1.00
H34    H     0.00042   0.69926   0.85534   0.00000  Uiso   1.00
H35    H     0.12278   0.95520   0.53039   0.00000  Uiso   1.00
H36    H     0.99734   0.94448   0.25630   0.00000  Uiso   1.00
H37    H     0.00173   0.55842   0.85039   0.00000  Uiso   1.00
O38    O     0.24218   0.98187   0.46507   0.00000  Uiso   1.00
O39    O     0.07761   0.96779   0.41744   0.00000  Uiso   1.00
O40    O     0.08337   0.46129   0.88489   0.00000  Uiso   1.00
N41    N     0.26166   0.92216   0.61985   0.00000  Uiso   1.00
N42    N     0.14439   0.91215   0.29853   0.00000  Uiso   1.00
N43    N     0.14849   0.55122   0.91906   0.00000  Uiso   1.00
N44    N     0.16075   0.93909   0.57312   0.00000  Uiso   1.00
N45    N     0.04347   0.92907   0.25180   0.00000  Uiso   1.00
N46    N     0.04758   0.56814   0.87233   0.00000  Uiso   1.00
C47    C     0.80626   0.20632   0.94987   0.00000  Uiso   1.00
C48    C     0.81220   0.16679   0.84749   0.00000  Uiso   1.00
C49    C     0.76099   0.14296   0.78744   0.00000  Uiso   1.00
C50    C     0.77653   0.10790   0.69638   0.00000  Uiso   1.00
C51    C     0.77595   0.04812   0.54198   0.00000  Uiso   1.00
C52    C     0.84452   0.16953   0.03453   0.00000  Uiso   1.00
C53    C     0.82048   0.14803   0.13176   0.00000  Uiso   1.00
C54    C     0.86323   0.11529   0.19815   0.00000  Uiso   1.00
C55    C     0.91284   0.05983   0.33417   0.00000  Uiso   1.00
C56    C     0.84339   0.26900   0.92993   0.00000  Uiso   1.00
C57    C     0.81840   0.33114   0.93924   0.00000  Uiso   1.00
C58    C     0.86020   0.38215   0.91760   0.00000  Uiso   1.00
C59    C     0.90804   0.48113   0.89121   0.00000  Uiso   1.00
C60    C     0.92494   0.18642   0.89492   0.00000  Uiso   1.00
C61    C     0.87667   0.15597   0.81764   0.00000  Uiso   1.00
C62    C     0.89229   0.12094   0.72665   0.00000  Uiso   1.00
C63    C     0.84110   0.09707   0.66648   0.00000  Uiso   1.00
C64    C     0.90898   0.15872   0.00469   0.00000  Uiso   1.00
C65    C     0.95178   0.12601   0.07096   0.00000  Uiso   1.00
C66    C     0.92781   0.10446   0.16825   0.00000  Uiso   1.00
C67    C     0.90785   0.25820   0.90008   0.00000  Uiso   1.00
C68    C     0.94970   0.30912   0.87844   0.00000  Uiso   1.00
C69    C     0.92478   0.37132   0.88770   0.00000  Uiso   1.00
H70    H     0.75608   0.21474   0.97311   0.00000  Uiso   1.00
H71    H     0.71111   0.15133   0.81057   0.00000  Uiso   1.00
H72    H     0.77060   0.15641   0.15483   0.00000  Uiso   1.00
H73    H     0.76851   0.33949   0.96234   0.00000  Uiso   1.00
H74    H     0.68968   0.07625   0.61723   0.00000  Uiso   1.00
H75    H     0.81512   0.08697   0.34314   0.00000  Uiso   1.00
H76    H     0.81072   0.47303   0.93723   0.00000  Uiso   1.00
H77    H     0.97513   0.17800   0.87168   0.00000  Uiso   1.00
H78    H     0.94218   0.11258   0.70357   0.00000  Uiso   1.00
H79    H     0.00166   0.11766   0.04784   0.00000  Uiso   1.00
H80    H     0.99958   0.30074   0.85534   0.00000  Uiso   1.00
H81    H     0.87722   0.04480   0.53039   0.00000  Uiso   1.00
H82    H     0.00266   0.05552   0.25630   0.00000  Uiso   1.00
H83    H     0.99827   0.44158   0.85039   0.00000  Uiso   1.00
O84    O     0.75782   0.01813   0.46507   0.00000  Uiso   1.00
O85    O     0.92239   0.03221   0.41744   0.00000  Uiso   1.00
O86    O     0.91663   0.53871   0.88489   0.00000  Uiso   1.00
N87    N     0.73834   0.07784   0.61985   0.00000  Uiso   1.00
N88    N     0.85561   0.08785   0.29853   0.00000  Uiso   1.00
N89    N     0.85151   0.44878   0.91906   0.00000  Uiso   1.00
N90    N     0.83925   0.06091   0.57312   0.00000  Uiso   1.00
N91    N     0.95653   0.07093   0.25180   0.00000  Uiso   1.00
N92    N     0.95242   0.43186   0.87233   0.00000  Uiso   1.00
C93    C     0.79368   0.80626   0.05013   0.00000  Uiso   1.00
C94    C     0.83321   0.81220   0.15251   0.00000  Uiso   1.00
C95    C     0.85704   0.76099   0.21256   0.00000  Uiso   1.00
C96    C     0.89210   0.77653   0.30362   0.00000  Uiso   1.00
C97    C     0.95188   0.77595   0.45802   0.00000  Uiso   1.00
C98    C     0.83047   0.84452   0.96547   0.00000  Uiso   1.00
C99    C     0.85197   0.82048   0.86824   0.00000  Uiso   1.00
C100   C     0.88471   0.86323   0.80185   0.00000  Uiso   1.00
C101   C     0.94017   0.91284   0.66583   0.00000  Uiso   1.00
C102   C     0.73100   0.84339   0.07007   0.00000  Uiso   1.00
C103   C     0.66886   0.81840   0.06076   0.00000  Uiso   1.00
C104   C     0.61785   0.86020   0.08240   0.00000  Uiso   1.00
C105   C     0.51887   0.90804   0.10879   0.00000  Uiso   1.00
C106   C     0.81358   0.92494   0.10508   0.00000  Uiso   1.00
C107   C     0.84403   0.87667   0.18236   0.00000  Uiso   1.00
C108   C     0.87906   0.89229   0.27335   0.00000  Uiso   1.00
C109   C     0.90293   0.84110   0.33352   0.00000  Uiso   1.00
C110   C     0.84128   0.90898   0.99531   0.00000  Uiso   1.00
C111   C     0.87399   0.95178   0.92904   0.00000  Uiso   1.00
C112   C     0.89554   0.92781   0.83175   0.00000  Uiso   1.00
C113   C     0.74180   0.90785   0.09992   0.00000  Uiso   1.00
C114   C     0.69088   0.94970   0.12156   0.00000  Uiso   1.00
C115   C     0.62868   0.92478   0.11230   0.00000  Uiso   1.00
H116   H     0.78526   0.75608   0.02689   0.00000  Uiso   1.00
H117   H     0.84867   0.71111   0.18943   0.00000  Uiso   1.00
H118   H     0.84359   0.77060   0.84517   0.00000  Uiso   1.00
H119   H     0.66051   0.76851   0.03766   0.00000  Uiso   1.00
H120   H     0.92375   0.68968   0.38277   0.00000  Uiso   1.00
H121   H     0.91303   0.81512   0.65686   0.00000  Uiso   1.00
H122   H     0.52697   0.81072   0.06277   0.00000  Uiso   1.00
H123   H     0.82200   0.97513   0.12832   0.00000  Uiso   1.00
H124   H     0.88742   0.94218   0.29643   0.00000  Uiso   1.00
H125   H     0.88234   0.00166   0.95216   0.00000  Uiso   1.00
H126   H     0.69926   0.99958   0.14466   0.00000  Uiso   1.00
H127   H     0.95520   0.87722   0.46961   0.00000  Uiso   1.00
H128   H     0.94448   0.00266   0.74370   0.00000  Uiso   1.00
H129   H     0.55842   0.99827   0.14961   0.00000  Uiso   1.00
O130   O     0.98187   0.75782   0.53493   0.00000  Uiso   1.00
O131   O     0.96779   0.92239   0.58256   0.00000  Uiso   1.00
O132   O     0.46129   0.91663   0.11511   0.00000  Uiso   1.00
N133   N     0.92216   0.73834   0.38015   0.00000  Uiso   1.00
N134   N     0.91215   0.85561   0.70147   0.00000  Uiso   1.00
N135   N     0.55122   0.85151   0.08094   0.00000  Uiso   1.00
N136   N     0.93909   0.83925   0.42688   0.00000  Uiso   1.00
N137   N     0.92907   0.95653   0.74820   0.00000  Uiso   1.00
N138   N     0.56814   0.95242   0.12767   0.00000  Uiso   1.00
C139   C     0.20632   0.19374   0.05013   0.00000  Uiso   1.00
C140   C     0.16679   0.18780   0.15251   0.00000  Uiso   1.00
C141   C     0.14296   0.23901   0.21256   0.00000  Uiso   1.00
C142   C     0.10790   0.22347   0.30362   0.00000  Uiso   1.00
C143   C     0.04812   0.22405   0.45802   0.00000  Uiso   1.00
C144   C     0.16953   0.15548   0.96547   0.00000  Uiso   1.00
C145   C     0.14803   0.17952   0.86824   0.00000  Uiso   1.00
C146   C     0.11529   0.13677   0.80185   0.00000  Uiso   1.00
C147   C     0.05983   0.08716   0.66583   0.00000  Uiso   1.00
C148   C     0.26900   0.15661   0.07007   0.00000  Uiso   1.00
C149   C     0.33114   0.18160   0.06076   0.00000  Uiso   1.00
C150   C     0.38215   0.13980   0.08240   0.00000  Uiso   1.00
C151   C     0.48113   0.09196   0.10879   0.00000  Uiso   1.00
C152   C     0.18642   0.07506   0.10508   0.00000  Uiso   1.00
C153   C     0.15597   0.12333   0.18236   0.00000  Uiso   1.00
C154   C     0.12094   0.10771   0.27335   0.00000  Uiso   1.00
C155   C     0.09707   0.15890   0.33352   0.00000  Uiso   1.00
C156   C     0.15872   0.09102   0.99531   0.00000  Uiso   1.00
C157   C     0.12601   0.04822   0.92904   0.00000  Uiso   1.00
C158   C     0.10446   0.07219   0.83175   0.00000  Uiso   1.00
C159   C     0.25820   0.09215   0.09992   0.00000  Uiso   1.00
C160   C     0.30912   0.05030   0.12156   0.00000  Uiso   1.00
C161   C     0.37132   0.07522   0.11230   0.00000  Uiso   1.00
H162   H     0.21474   0.24392   0.02689   0.00000  Uiso   1.00
H163   H     0.15133   0.28889   0.18943   0.00000  Uiso   1.00
H164   H     0.15641   0.22940   0.84517   0.00000  Uiso   1.00
H165   H     0.33949   0.23149   0.03766   0.00000  Uiso   1.00
H166   H     0.07625   0.31032   0.38277   0.00000  Uiso   1.00
H167   H     0.08697   0.18488   0.65686   0.00000  Uiso   1.00
H168   H     0.47303   0.18928   0.06277   0.00000  Uiso   1.00
H169   H     0.17800   0.02487   0.12832   0.00000  Uiso   1.00
H170   H     0.11258   0.05782   0.29643   0.00000  Uiso   1.00
H171   H     0.11766   0.99834   0.95216   0.00000  Uiso   1.00
H172   H     0.30074   0.00042   0.14466   0.00000  Uiso   1.00
H173   H     0.04480   0.12278   0.46961   0.00000  Uiso   1.00
H174   H     0.05552   0.99734   0.74370   0.00000  Uiso   1.00
H175   H     0.44158   0.00173   0.14961   0.00000  Uiso   1.00
O176   O     0.01813   0.24218   0.53493   0.00000  Uiso   1.00
O177   O     0.03221   0.07761   0.58256   0.00000  Uiso   1.00
O178   O     0.53871   0.08337   0.11511   0.00000  Uiso   1.00
N179   N     0.07784   0.26166   0.38015   0.00000  Uiso   1.00
N180   N     0.08785   0.14439   0.70147   0.00000  Uiso   1.00
N181   N     0.44878   0.14849   0.08094   0.00000  Uiso   1.00
N182   N     0.06091   0.16075   0.42688   0.00000  Uiso   1.00
N183   N     0.07093   0.04347   0.74820   0.00000  Uiso   1.00
N184   N     0.43186   0.04758   0.12767   0.00000  Uiso   1.00
C185   C     0.69374   0.70632   0.44987   0.00000  Uiso   1.00
C186   C     0.68780   0.66679   0.34749   0.00000  Uiso   1.00
C187   C     0.73901   0.64296   0.28744   0.00000  Uiso   1.00
C188   C     0.72347   0.60790   0.19638   0.00000  Uiso   1.00
C189   C     0.72405   0.54812   0.04198   0.00000  Uiso   1.00
C190   C     0.65548   0.66953   0.53453   0.00000  Uiso   1.00
C191   C     0.67952   0.64803   0.63176   0.00000  Uiso   1.00
C192   C     0.63677   0.61529   0.69815   0.00000  Uiso   1.00
C193   C     0.58716   0.55983   0.83417   0.00000  Uiso   1.00
C194   C     0.65661   0.76900   0.42993   0.00000  Uiso   1.00
C195   C     0.68160   0.83114   0.43924   0.00000  Uiso   1.00
C196   C     0.63980   0.88215   0.41760   0.00000  Uiso   1.00
C197   C     0.59196   0.98113   0.39121   0.00000  Uiso   1.00
C198   C     0.57506   0.68642   0.39492   0.00000  Uiso   1.00
C199   C     0.62333   0.65597   0.31764   0.00000  Uiso   1.00
C200   C     0.60771   0.62094   0.22665   0.00000  Uiso   1.00
C201   C     0.65890   0.59707   0.16648   0.00000  Uiso   1.00
C202   C     0.59102   0.65872   0.50469   0.00000  Uiso   1.00
C203   C     0.54822   0.62601   0.57096   0.00000  Uiso   1.00
C204   C     0.57219   0.60446   0.66825   0.00000  Uiso   1.00
C205   C     0.59215   0.75820   0.40008   0.00000  Uiso   1.00
C206   C     0.55030   0.80912   0.37844   0.00000  Uiso   1.00
C207   C     0.57522   0.87132   0.38770   0.00000  Uiso   1.00
H208   H     0.74392   0.71474   0.47311   0.00000  Uiso   1.00
H209   H     0.78889   0.65133   0.31057   0.00000  Uiso   1.00
H210   H     0.72940   0.65641   0.65483   0.00000  Uiso   1.00
H211   H     0.73149   0.83949   0.46234   0.00000  Uiso   1.00
H212   H     0.81032   0.57625   0.11723   0.00000  Uiso   1.00
H213   H     0.68488   0.58697   0.84314   0.00000  Uiso   1.00
H214   H     0.68928   0.97303   0.43723   0.00000  Uiso   1.00
H215   H     0.52487   0.67800   0.37168   0.00000  Uiso   1.00
H216   H     0.55782   0.61258   0.20357   0.00000  Uiso   1.00
H217   H     0.49834   0.61766   0.54784   0.00000  Uiso   1.00
H218   H     0.50042   0.80074   0.35534   0.00000  Uiso   1.00
H219   H     0.62278   0.54480   0.03039   0.00000  Uiso   1.00
H220   H     0.49734   0.55552   0.75630   0.00000  Uiso   1.00
H221   H     0.50173   0.94158   0.35039   0.00000  Uiso   1.00
O222   O     0.74218   0.51813   0.96507   0.00000  Uiso   1.00
O223   O     0.57761   0.53221   0.91744   0.00000  Uiso   1.00
O224   O     0.58337   0.03871   0.38489   0.00000  Uiso   1.00
N225   N     0.76166   0.57784   0.11985   0.00000  Uiso   1.00
N226   N     0.64439   0.58785   0.79853   0.00000  Uiso   1.00
N227   N     0.64849   0.94878   0.41906   0.00000  Uiso   1.00
N228   N     0.66075   0.56091   0.07312   0.00000  Uiso   1.00
N229   N     0.54347   0.57093   0.75180   0.00000  Uiso   1.00
N230   N     0.54758   0.93186   0.37233   0.00000  Uiso   1.00
C231   C     0.30626   0.29368   0.44987   0.00000  Uiso   1.00
C232   C     0.31220   0.33321   0.34749   0.00000  Uiso   1.00
C233   C     0.26099   0.35704   0.28744   0.00000  Uiso   1.00
C234   C     0.27653   0.39210   0.19638   0.00000  Uiso   1.00
C235   C     0.27595   0.45188   0.04198   0.00000  Uiso   1.00
C236   C     0.34452   0.33047   0.53453   0.00000  Uiso   1.00
C237   C     0.32048   0.35197   0.63176   0.00000  Uiso   1.00
C238   C     0.36323   0.38471   0.69815   0.00000  Uiso   1.00
C239   C     0.41284   0.44017   0.83417   0.00000  Uiso   1.00
C240   C     0.34339   0.23100   0.42993   0.00000  Uiso   1.00
C241   C     0.31840   0.16886   0.43924   0.00000  Uiso   1.00
C242   C     0.36020   0.11785   0.41760   0.00000  Uiso   1.00
C243   C     0.40804   0.01887   0.39121   0.00000  Uiso   1.00
C244   C     0.42494   0.31358   0.39492   0.00000  Uiso   1.00
C245   C     0.37667   0.34403   0.31764   0.00000  Uiso   1.00
C246   C     0.39229   0.37906   0.22665   0.00000  Uiso   1.00
C247   C     0.34110   0.40293   0.16648   0.00000  Uiso   1.00
C248   C     0.40898   0.34128   0.50469   0.00000  Uiso   1.00
C249   C     0.45178   0.37399   0.57096   0.00000  Uiso   1.00
C250   C     0.42781   0.39554   0.66825   0.00000  Uiso   1.00
C251   C     0.40785   0.24180   0.40008   0.00000  Uiso   1.00
C252   C     0.44970   0.19088   0.37844   0.00000  Uiso   1.00
C253   C     0.42478   0.12868   0.38770   0.00000  Uiso   1.00
H254   H     0.25608   0.28526   0.47311   0.00000  Uiso   1.00
H255   H     0.21111   0.34867   0.31057   0.00000  Uiso   1.00
H256   H     0.27060   0.34359   0.65483   0.00000  Uiso   1.00
H257   H     0.26851   0.16051   0.46234   0.00000  Uiso   1.00
H258   H     0.18968   0.42375   0.11723   0.00000  Uiso   1.00
H259   H     0.31512   0.41303   0.84314   0.00000  Uiso   1.00
H260   H     0.31072   0.02697   0.43723   0.00000  Uiso   1.00
H261   H     0.47513   0.32200   0.37168   0.00000  Uiso   1.00
H262   H     0.44218   0.38742   0.20357   0.00000  Uiso   1.00
H263   H     0.50166   0.38234   0.54784   0.00000  Uiso   1.00
H264   H     0.49958   0.19926   0.35534   0.00000  Uiso   1.00
H265   H     0.37722   0.45520   0.03039   0.00000  Uiso   1.00
H266   H     0.50266   0.44448   0.75630   0.00000  Uiso   1.00
H267   H     0.49827   0.05842   0.35039   0.00000  Uiso   1.00
O268   O     0.25782   0.48187   0.96507   0.00000  Uiso   1.00
O269   O     0.42239   0.46779   0.91744   0.00000  Uiso   1.00
O270   O     0.41663   0.96129   0.38489   0.00000  Uiso   1.00
N271   N     0.23834   0.42216   0.11985   0.00000  Uiso   1.00
N272   N     0.35561   0.41215   0.79853   0.00000  Uiso   1.00
N273   N     0.35151   0.05122   0.41906   0.00000  Uiso   1.00
N274   N     0.33925   0.43909   0.07312   0.00000  Uiso   1.00
N275   N     0.45653   0.42907   0.75180   0.00000  Uiso   1.00
N276   N     0.45242   0.06814   0.37233   0.00000  Uiso   1.00
C277   C     0.29368   0.69374   0.55013   0.00000  Uiso   1.00
C278   C     0.33321   0.68780   0.65251   0.00000  Uiso   1.00
C279   C     0.35704   0.73901   0.71256   0.00000  Uiso   1.00
C280   C     0.39210   0.72347   0.80362   0.00000  Uiso   1.00
C281   C     0.45188   0.72405   0.95802   0.00000  Uiso   1.00
C282   C     0.33047   0.65548   0.46547   0.00000  Uiso   1.00
C283   C     0.35197   0.67952   0.36824   0.00000  Uiso   1.00
C284   C     0.38471   0.63677   0.30185   0.00000  Uiso   1.00
C285   C     0.44017   0.58716   0.16583   0.00000  Uiso   1.00
C286   C     0.23100   0.65661   0.57007   0.00000  Uiso   1.00
C287   C     0.16886   0.68160   0.56076   0.00000  Uiso   1.00
C288   C     0.11785   0.63980   0.58240   0.00000  Uiso   1.00
C289   C     0.01887   0.59196   0.60879   0.00000  Uiso   1.00
C290   C     0.31358   0.57506   0.60508   0.00000  Uiso   1.00
C291   C     0.34403   0.62333   0.68236   0.00000  Uiso   1.00
C292   C     0.37906   0.60771   0.77335   0.00000  Uiso   1.00
C293   C     0.40293   0.65890   0.83352   0.00000  Uiso   1.00
C294   C     0.34128   0.59102   0.49531   0.00000  Uiso   1.00
C295   C     0.37399   0.54822   0.42904   0.00000  Uiso   1.00
C296   C     0.39554   0.57219   0.33175   0.00000  Uiso   1.00
C297   C     0.24180   0.59215   0.59992   0.00000  Uiso   1.00
C298   C     0.19088   0.55030   0.62156   0.00000  Uiso   1.00
C299   C     0.12868   0.57522   0.61230   0.00000  Uiso   1.00
H300   H     0.28526   0.74392   0.52689   0.00000  Uiso   1.00
H301   H     0.34867   0.78889   0.68943   0.00000  Uiso   1.00
H302   H     0.34359   0.72940   0.34517   0.00000  Uiso   1.00
H303   H     0.16051   0.73149   0.53766   0.00000  Uiso   1.00
H304   H     0.42375   0.81032   0.88277   0.00000  Uiso   1.00
H305   H     0.41303   0.68488   0.15686   0.00000  Uiso   1.00
H306   H     0.02697   0.68928   0.56277   0.00000  Uiso   1.00
H307   H     0.32200   0.52487   0.62832   0.00000  Uiso   1.00
H308   H     0.38742   0.55782   0.79643   0.00000  Uiso   1.00
H309   H     0.38234   0.49834   0.45216   0.00000  Uiso   1.00
H310   H     0.19926   0.50042   0.64466   0.00000  Uiso   1.00
H311   H     0.45520   0.62278   0.96961   0.00000  Uiso   1.00
H312   H     0.44448   0.49734   0.24370   0.00000  Uiso   1.00
H313   H     0.05842   0.50173   0.64961   0.00000  Uiso   1.00
O314   O     0.48187   0.74218   0.03493   0.00000  Uiso   1.00
O315   O     0.46779   0.57761   0.08256   0.00000  Uiso   1.00
O316   O     0.96129   0.58337   0.61511   0.00000  Uiso   1.00
N317   N     0.42216   0.76166   0.88015   0.00000  Uiso   1.00
N318   N     0.41215   0.64439   0.20147   0.00000  Uiso   1.00
N319   N     0.05122   0.64849   0.58094   0.00000  Uiso   1.00
N320   N     0.43909   0.66075   0.92688   0.00000  Uiso   1.00
N321   N     0.42907   0.54347   0.24820   0.00000  Uiso   1.00
N322   N     0.06814   0.54758   0.62767   0.00000  Uiso   1.00
C323   C     0.70632   0.30626   0.55013   0.00000  Uiso   1.00
C324   C     0.66679   0.31220   0.65251   0.00000  Uiso   1.00
C325   C     0.64296   0.26099   0.71256   0.00000  Uiso   1.00
C326   C     0.60790   0.27653   0.80362   0.00000  Uiso   1.00
C327   C     0.54812   0.27595   0.95802   0.00000  Uiso   1.00
C328   C     0.66953   0.34452   0.46547   0.00000  Uiso   1.00
C329   C     0.64803   0.32048   0.36824   0.00000  Uiso   1.00
C330   C     0.61529   0.36323   0.30185   0.00000  Uiso   1.00
C331   C     0.55983   0.41284   0.16583   0.00000  Uiso   1.00
C332   C     0.76900   0.34339   0.57007   0.00000  Uiso   1.00
C333   C     0.83114   0.31840   0.56076   0.00000  Uiso   1.00
C334   C     0.88215   0.36020   0.58240   0.00000  Uiso   1.00
C335   C     0.98113   0.40804   0.60879   0.00000  Uiso   1.00
C336   C     0.68642   0.42494   0.60508   0.00000  Uiso   1.00
C337   C     0.65597   0.37667   0.68236   0.00000  Uiso   1.00
C338   C     0.62094   0.39229   0.77335   0.00000  Uiso   1.00
C339   C     0.59707   0.34110   0.83352   0.00000  Uiso   1.00
C340   C     0.65872   0.40898   0.49531   0.00000  Uiso   1.00
C341   C     0.62601   0.45178   0.42904   0.00000  Uiso   1.00
C342   C     0.60446   0.42781   0.33175   0.00000  Uiso   1.00
C343   C     0.75820   0.40785   0.59992   0.00000  Uiso   1.00
C344   C     0.80912   0.44970   0.62156   0.00000  Uiso   1.00
C345   C     0.87132   0.42478   0.61230   0.00000  Uiso   1.00
H346   H     0.71474   0.25608   0.52689   0.00000  Uiso   1.00
H347   H     0.65133   0.21111   0.68943   0.00000  Uiso   1.00
H348   H     0.65641   0.27060   0.34517   0.00000  Uiso   1.00
H349   H     0.83949   0.26851   0.53766   0.00000  Uiso   1.00
H350   H     0.57625   0.18968   0.88277   0.00000  Uiso   1.00
H351   H     0.58697   0.31512   0.15686   0.00000  Uiso   1.00
H352   H     0.97303   0.31072   0.56277   0.00000  Uiso   1.00
H353   H     0.67800   0.47513   0.62832   0.00000  Uiso   1.00
H354   H     0.61258   0.44218   0.79643   0.00000  Uiso   1.00
H355   H     0.61766   0.50166   0.45216   0.00000  Uiso   1.00
H356   H     0.80074   0.49958   0.64466   0.00000  Uiso   1.00
H357   H     0.54480   0.37722   0.96961   0.00000  Uiso   1.00
H358   H     0.55552   0.50266   0.24370   0.00000  Uiso   1.00
H359   H     0.94158   0.49827   0.64961   0.00000  Uiso   1.00
O360   O     0.51813   0.25782   0.03493   0.00000  Uiso   1.00
O361   O     0.53221   0.42239   0.08256   0.00000  Uiso   1.00
O362   O     0.03871   0.41663   0.61511   0.00000  Uiso   1.00
N363   N     0.57784   0.23834   0.88015   0.00000  Uiso   1.00
N364   N     0.58785   0.35561   0.20147   0.00000  Uiso   1.00
N365   N     0.94878   0.35151   0.58094   0.00000  Uiso   1.00
N366   N     0.56091   0.33925   0.92688   0.00000  Uiso   1.00
N367   N     0.57093   0.45653   0.24820   0.00000  Uiso   1.00
N368   N     0.93186   0.45242   0.62767   0.00000  Uiso   1.00
