data_job_00038
_audit_creation_date              2018-12-19
_audit_creation_method            'Materials Studio'
_symmetry_space_group_name_H-M    'P1'
_symmetry_Int_Tables_number       1
_symmetry_cell_setting            triclinic
loop_
_symmetry_equiv_pos_as_xyz
  x,y,z
_cell_length_a                    18.2817
_cell_length_b                    13.1157
_cell_length_c                    23.3048
_cell_angle_alpha                 90.0000
_cell_angle_beta                  90.0000
_cell_angle_gamma                 90.0000
loop_
_atom_site_label
_atom_site_type_symbol
_atom_site_fract_x
_atom_site_fract_y
_atom_site_fract_z
_atom_site_U_iso_or_equiv
_atom_site_adp_type
_atom_site_occupancy
C1     C     0.26189   0.09578   0.88306   0.00000  Uiso   1.00
C2     C     0.18857   0.15118   0.88220   0.00000  Uiso   1.00
C3     C     0.17896   0.25607   0.88005   0.00000  Uiso   1.00
C4     C     0.10747   0.29177   0.87961   0.00000  Uiso   1.00
C5     C     0.00268   0.38796   0.87805   0.00000  Uiso   1.00
C6     C     0.26125   0.02936   0.93677   0.00000  Uiso   1.00
C7     C     0.31276   0.03182   0.98049   0.00000  Uiso   1.00
C8     C     0.30246   0.96496   0.02597   0.00000  Uiso   1.00
C9     C     0.31055   0.87197   0.10910   0.00000  Uiso   1.00
C10    C     0.26057   0.02245   0.83230   0.00000  Uiso   1.00
C11    C     0.31152   0.01907   0.78820   0.00000  Uiso   1.00
C12    C     0.30065   0.94638   0.74573   0.00000  Uiso   1.00
C13    C     0.30769   0.84266   0.66667   0.00000  Uiso   1.00
C14    C     0.15201   0.97267   0.88609   0.00000  Uiso   1.00
C15    C     0.12888   0.08431   0.88385   0.00000  Uiso   1.00
C16    C     0.05739   0.11986   0.88340   0.00000  Uiso   1.00
C17    C     0.04768   0.22478   0.88125   0.00000  Uiso   1.00
C18    C     0.20157   0.96249   0.93841   0.00000  Uiso   1.00
C19    C     0.19119   0.89561   0.98383   0.00000  Uiso   1.00
C20    C     0.24267   0.89797   0.02761   0.00000  Uiso   1.00
C21    C     0.20089   0.95558   0.83394   0.00000  Uiso   1.00
C22    C     0.18994   0.88287   0.79154   0.00000  Uiso   1.00
C23    C     0.24086   0.87939   0.74738   0.00000  Uiso   1.00
H24    H     0.30836   0.14784   0.88179   0.00000  Uiso   1.00
H25    H     0.22516   0.30779   0.87879   0.00000  Uiso   1.00
H26    H     0.35894   0.08357   0.97920   0.00000  Uiso   1.00
H27    H     0.35770   0.07083   0.78694   0.00000  Uiso   1.00
H28    H     0.10660   0.45564   0.87621   0.00000  Uiso   1.00
H29    H     0.38870   0.98282   0.08793   0.00000  Uiso   1.00
H30    H     0.38608   0.95597   0.68251   0.00000  Uiso   1.00
H31    H     0.10555   0.92061   0.88736   0.00000  Uiso   1.00
H32    H     0.01121   0.06809   0.88467   0.00000  Uiso   1.00
H33    H     0.14500   0.84387   0.98509   0.00000  Uiso   1.00
H34    H     0.14375   0.83113   0.79282   0.00000  Uiso   1.00
H35    H     0.93295   0.26109   0.88098   0.00000  Uiso   1.00
H36    H     0.21506   0.78827   0.09270   0.00000  Uiso   1.00
H37    H     0.21243   0.76142   0.68728   0.00000  Uiso   1.00
O38    O     0.96138   0.45949   0.87674   0.00000  Uiso   1.00
O39    O     0.33149   0.83916   0.15450   0.00000  Uiso   1.00
O40    O     0.32805   0.80393   0.62260   0.00000  Uiso   1.00
N41    N     0.07867   0.38961   0.87769   0.00000  Uiso   1.00
N42    N     0.34242   0.94757   0.07564   0.00000  Uiso   1.00
N43    N     0.33998   0.92244   0.69661   0.00000  Uiso   1.00
N44    N     0.98524   0.28493   0.88026   0.00000  Uiso   1.00
N45    N     0.24898   0.84288   0.07821   0.00000  Uiso   1.00
N46    N     0.24654   0.81776   0.69918   0.00000  Uiso   1.00
C47    C     0.23811   0.40422   0.38306   0.00000  Uiso   1.00
C48    C     0.31143   0.34882   0.38220   0.00000  Uiso   1.00
C49    C     0.32104   0.24393   0.38005   0.00000  Uiso   1.00
C50    C     0.39253   0.20823   0.37961   0.00000  Uiso   1.00
C51    C     0.49732   0.11204   0.37805   0.00000  Uiso   1.00
C52    C     0.23875   0.47064   0.43677   0.00000  Uiso   1.00
C53    C     0.18724   0.46818   0.48049   0.00000  Uiso   1.00
C54    C     0.19754   0.53504   0.52597   0.00000  Uiso   1.00
C55    C     0.18945   0.62803   0.60910   0.00000  Uiso   1.00
C56    C     0.23943   0.47755   0.33230   0.00000  Uiso   1.00
C57    C     0.18848   0.48093   0.28820   0.00000  Uiso   1.00
C58    C     0.19935   0.55362   0.24573   0.00000  Uiso   1.00
C59    C     0.19231   0.65734   0.16667   0.00000  Uiso   1.00
C60    C     0.34799   0.52733   0.38609   0.00000  Uiso   1.00
C61    C     0.37112   0.41569   0.38385   0.00000  Uiso   1.00
C62    C     0.44261   0.38014   0.38340   0.00000  Uiso   1.00
C63    C     0.45232   0.27522   0.38125   0.00000  Uiso   1.00
C64    C     0.29843   0.53751   0.43841   0.00000  Uiso   1.00
C65    C     0.30881   0.60439   0.48383   0.00000  Uiso   1.00
C66    C     0.25733   0.60203   0.52761   0.00000  Uiso   1.00
C67    C     0.29911   0.54442   0.33394   0.00000  Uiso   1.00
C68    C     0.31006   0.61713   0.29154   0.00000  Uiso   1.00
C69    C     0.25914   0.62061   0.24738   0.00000  Uiso   1.00
H70    H     0.19164   0.35216   0.38179   0.00000  Uiso   1.00
H71    H     0.27484   0.19221   0.37879   0.00000  Uiso   1.00
H72    H     0.14106   0.41643   0.47920   0.00000  Uiso   1.00
H73    H     0.14230   0.42917   0.28694   0.00000  Uiso   1.00
H74    H     0.39340   0.04436   0.37621   0.00000  Uiso   1.00
H75    H     0.11130   0.51718   0.58793   0.00000  Uiso   1.00
H76    H     0.11392   0.54403   0.18251   0.00000  Uiso   1.00
H77    H     0.39445   0.57939   0.38736   0.00000  Uiso   1.00
H78    H     0.48879   0.43191   0.38467   0.00000  Uiso   1.00
H79    H     0.35500   0.65613   0.48509   0.00000  Uiso   1.00
H80    H     0.35625   0.66887   0.29282   0.00000  Uiso   1.00
H81    H     0.56705   0.23891   0.38098   0.00000  Uiso   1.00
H82    H     0.28494   0.71173   0.59270   0.00000  Uiso   1.00
H83    H     0.28757   0.73858   0.18728   0.00000  Uiso   1.00
O84    O     0.53862   0.04051   0.37674   0.00000  Uiso   1.00
O85    O     0.16851   0.66084   0.65450   0.00000  Uiso   1.00
O86    O     0.17195   0.69607   0.12260   0.00000  Uiso   1.00
N87    N     0.42133   0.11039   0.37769   0.00000  Uiso   1.00
N88    N     0.15758   0.55243   0.57564   0.00000  Uiso   1.00
N89    N     0.16002   0.57756   0.19661   0.00000  Uiso   1.00
N90    N     0.51476   0.21507   0.38026   0.00000  Uiso   1.00
N91    N     0.25102   0.65712   0.57821   0.00000  Uiso   1.00
N92    N     0.25346   0.68224   0.19918   0.00000  Uiso   1.00
C93    C     0.73811   0.09578   0.61694   0.00000  Uiso   1.00
C94    C     0.81143   0.15118   0.61780   0.00000  Uiso   1.00
C95    C     0.82104   0.25607   0.61995   0.00000  Uiso   1.00
C96    C     0.89253   0.29177   0.62039   0.00000  Uiso   1.00
C97    C     0.99732   0.38796   0.62195   0.00000  Uiso   1.00
C98    C     0.73875   0.02936   0.56323   0.00000  Uiso   1.00
C99    C     0.68724   0.03182   0.51951   0.00000  Uiso   1.00
C100   C     0.69754   0.96496   0.47403   0.00000  Uiso   1.00
C101   C     0.68945   0.87197   0.39090   0.00000  Uiso   1.00
C102   C     0.73943   0.02245   0.66770   0.00000  Uiso   1.00
C103   C     0.68848   0.01907   0.71180   0.00000  Uiso   1.00
C104   C     0.69935   0.94638   0.75427   0.00000  Uiso   1.00
C105   C     0.69231   0.84266   0.83333   0.00000  Uiso   1.00
C106   C     0.84799   0.97267   0.61391   0.00000  Uiso   1.00
C107   C     0.87112   0.08431   0.61615   0.00000  Uiso   1.00
C108   C     0.94261   0.11986   0.61660   0.00000  Uiso   1.00
C109   C     0.95232   0.22478   0.61875   0.00000  Uiso   1.00
C110   C     0.79843   0.96249   0.56159   0.00000  Uiso   1.00
C111   C     0.80881   0.89561   0.51617   0.00000  Uiso   1.00
C112   C     0.75733   0.89797   0.47239   0.00000  Uiso   1.00
C113   C     0.79911   0.95558   0.66606   0.00000  Uiso   1.00
C114   C     0.81006   0.88287   0.70846   0.00000  Uiso   1.00
C115   C     0.75914   0.87939   0.75262   0.00000  Uiso   1.00
H116   H     0.69164   0.14784   0.61821   0.00000  Uiso   1.00
H117   H     0.77484   0.30779   0.62121   0.00000  Uiso   1.00
H118   H     0.64106   0.08357   0.52080   0.00000  Uiso   1.00
H119   H     0.64230   0.07083   0.71306   0.00000  Uiso   1.00
H120   H     0.89340   0.45564   0.62379   0.00000  Uiso   1.00
H121   H     0.61130   0.98282   0.41207   0.00000  Uiso   1.00
H122   H     0.61392   0.95597   0.81749   0.00000  Uiso   1.00
H123   H     0.89445   0.92061   0.61264   0.00000  Uiso   1.00
H124   H     0.98879   0.06809   0.61533   0.00000  Uiso   1.00
H125   H     0.85500   0.84387   0.51491   0.00000  Uiso   1.00
H126   H     0.85625   0.83113   0.70718   0.00000  Uiso   1.00
H127   H     0.06705   0.26109   0.61902   0.00000  Uiso   1.00
H128   H     0.78494   0.78827   0.40730   0.00000  Uiso   1.00
H129   H     0.78757   0.76142   0.81272   0.00000  Uiso   1.00
O130   O     0.03862   0.45949   0.62326   0.00000  Uiso   1.00
O131   O     0.66851   0.83916   0.34550   0.00000  Uiso   1.00
O132   O     0.67195   0.80393   0.87740   0.00000  Uiso   1.00
N133   N     0.92133   0.38961   0.62231   0.00000  Uiso   1.00
N134   N     0.65758   0.94757   0.42436   0.00000  Uiso   1.00
N135   N     0.66002   0.92244   0.80339   0.00000  Uiso   1.00
N136   N     0.01476   0.28493   0.61974   0.00000  Uiso   1.00
N137   N     0.75102   0.84288   0.42179   0.00000  Uiso   1.00
N138   N     0.75346   0.81776   0.80082   0.00000  Uiso   1.00
C139   C     0.76189   0.40422   0.11694   0.00000  Uiso   1.00
C140   C     0.68857   0.34882   0.11780   0.00000  Uiso   1.00
C141   C     0.67896   0.24393   0.11995   0.00000  Uiso   1.00
C142   C     0.60747   0.20823   0.12039   0.00000  Uiso   1.00
C143   C     0.50268   0.11204   0.12195   0.00000  Uiso   1.00
C144   C     0.76125   0.47064   0.06323   0.00000  Uiso   1.00
C145   C     0.81276   0.46818   0.01951   0.00000  Uiso   1.00
C146   C     0.80246   0.53504   0.97403   0.00000  Uiso   1.00
C147   C     0.81055   0.62803   0.89090   0.00000  Uiso   1.00
C148   C     0.76057   0.47755   0.16770   0.00000  Uiso   1.00
C149   C     0.81152   0.48093   0.21180   0.00000  Uiso   1.00
C150   C     0.80065   0.55362   0.25427   0.00000  Uiso   1.00
C151   C     0.80769   0.65734   0.33333   0.00000  Uiso   1.00
C152   C     0.65201   0.52733   0.11391   0.00000  Uiso   1.00
C153   C     0.62888   0.41569   0.11615   0.00000  Uiso   1.00
C154   C     0.55739   0.38014   0.11660   0.00000  Uiso   1.00
C155   C     0.54768   0.27522   0.11875   0.00000  Uiso   1.00
C156   C     0.70157   0.53751   0.06159   0.00000  Uiso   1.00
C157   C     0.69119   0.60439   0.01617   0.00000  Uiso   1.00
C158   C     0.74267   0.60203   0.97239   0.00000  Uiso   1.00
C159   C     0.70089   0.54442   0.16606   0.00000  Uiso   1.00
C160   C     0.68994   0.61713   0.20846   0.00000  Uiso   1.00
C161   C     0.74086   0.62061   0.25262   0.00000  Uiso   1.00
H162   H     0.80836   0.35216   0.11821   0.00000  Uiso   1.00
H163   H     0.72516   0.19221   0.12121   0.00000  Uiso   1.00
H164   H     0.85894   0.41643   0.02080   0.00000  Uiso   1.00
H165   H     0.85770   0.42917   0.21306   0.00000  Uiso   1.00
H166   H     0.60660   0.04436   0.12379   0.00000  Uiso   1.00
H167   H     0.88870   0.51718   0.91207   0.00000  Uiso   1.00
H168   H     0.88608   0.54403   0.31749   0.00000  Uiso   1.00
H169   H     0.60555   0.57939   0.11264   0.00000  Uiso   1.00
H170   H     0.51121   0.43191   0.11533   0.00000  Uiso   1.00
H171   H     0.64500   0.65613   0.01491   0.00000  Uiso   1.00
H172   H     0.64375   0.66887   0.20718   0.00000  Uiso   1.00
H173   H     0.43295   0.23891   0.11902   0.00000  Uiso   1.00
H174   H     0.71506   0.71173   0.90730   0.00000  Uiso   1.00
H175   H     0.71243   0.73858   0.31272   0.00000  Uiso   1.00
O176   O     0.46138   0.04051   0.12326   0.00000  Uiso   1.00
O177   O     0.83149   0.66084   0.84550   0.00000  Uiso   1.00
O178   O     0.82805   0.69607   0.37740   0.00000  Uiso   1.00
N179   N     0.57867   0.11039   0.12231   0.00000  Uiso   1.00
N180   N     0.84242   0.55243   0.92436   0.00000  Uiso   1.00
N181   N     0.83998   0.57756   0.30339   0.00000  Uiso   1.00
N182   N     0.48524   0.21507   0.11974   0.00000  Uiso   1.00
N183   N     0.74898   0.65712   0.92179   0.00000  Uiso   1.00
N184   N     0.74654   0.68224   0.30082   0.00000  Uiso   1.00
C185   C     0.73811   0.90422   0.11694   0.00000  Uiso   1.00
C186   C     0.81143   0.84882   0.11780   0.00000  Uiso   1.00
C187   C     0.82104   0.74393   0.11995   0.00000  Uiso   1.00
C188   C     0.89253   0.70823   0.12039   0.00000  Uiso   1.00
C189   C     0.99732   0.61204   0.12195   0.00000  Uiso   1.00
C190   C     0.73875   0.97064   0.06323   0.00000  Uiso   1.00
C191   C     0.68724   0.96818   0.01951   0.00000  Uiso   1.00
C192   C     0.69754   0.03504   0.97403   0.00000  Uiso   1.00
C193   C     0.68945   0.12803   0.89090   0.00000  Uiso   1.00
C194   C     0.73943   0.97755   0.16770   0.00000  Uiso   1.00
C195   C     0.68848   0.98093   0.21180   0.00000  Uiso   1.00
C196   C     0.69935   0.05362   0.25427   0.00000  Uiso   1.00
C197   C     0.69231   0.15734   0.33333   0.00000  Uiso   1.00
C198   C     0.84799   0.02733   0.11391   0.00000  Uiso   1.00
C199   C     0.87112   0.91569   0.11615   0.00000  Uiso   1.00
C200   C     0.94261   0.88014   0.11660   0.00000  Uiso   1.00
C201   C     0.95232   0.77522   0.11875   0.00000  Uiso   1.00
C202   C     0.79843   0.03751   0.06159   0.00000  Uiso   1.00
C203   C     0.80881   0.10439   0.01617   0.00000  Uiso   1.00
C204   C     0.75733   0.10203   0.97239   0.00000  Uiso   1.00
C205   C     0.79911   0.04442   0.16606   0.00000  Uiso   1.00
C206   C     0.81006   0.11713   0.20846   0.00000  Uiso   1.00
C207   C     0.75914   0.12061   0.25262   0.00000  Uiso   1.00
H208   H     0.69164   0.85216   0.11821   0.00000  Uiso   1.00
H209   H     0.77484   0.69221   0.12121   0.00000  Uiso   1.00
H210   H     0.64106   0.91643   0.02080   0.00000  Uiso   1.00
H211   H     0.64230   0.92917   0.21306   0.00000  Uiso   1.00
H212   H     0.89340   0.54436   0.12379   0.00000  Uiso   1.00
H213   H     0.61130   0.01718   0.91207   0.00000  Uiso   1.00
H214   H     0.61392   0.04403   0.31749   0.00000  Uiso   1.00
H215   H     0.89445   0.07939   0.11264   0.00000  Uiso   1.00
H216   H     0.98879   0.93191   0.11533   0.00000  Uiso   1.00
H217   H     0.85500   0.15613   0.01491   0.00000  Uiso   1.00
H218   H     0.85625   0.16887   0.20718   0.00000  Uiso   1.00
H219   H     0.06705   0.73891   0.11902   0.00000  Uiso   1.00
H220   H     0.78494   0.21173   0.90730   0.00000  Uiso   1.00
H221   H     0.78757   0.23858   0.31272   0.00000  Uiso   1.00
O222   O     0.03862   0.54051   0.12326   0.00000  Uiso   1.00
O223   O     0.66851   0.16084   0.84550   0.00000  Uiso   1.00
O224   O     0.67195   0.19607   0.37740   0.00000  Uiso   1.00
N225   N     0.92133   0.61039   0.12231   0.00000  Uiso   1.00
N226   N     0.65758   0.05243   0.92436   0.00000  Uiso   1.00
N227   N     0.66002   0.07756   0.30339   0.00000  Uiso   1.00
N228   N     0.01476   0.71507   0.11974   0.00000  Uiso   1.00
N229   N     0.75102   0.15712   0.92179   0.00000  Uiso   1.00
N230   N     0.75346   0.18224   0.30082   0.00000  Uiso   1.00
C231   C     0.76189   0.59578   0.61694   0.00000  Uiso   1.00
C232   C     0.68857   0.65118   0.61780   0.00000  Uiso   1.00
C233   C     0.67896   0.75607   0.61995   0.00000  Uiso   1.00
C234   C     0.60747   0.79177   0.62039   0.00000  Uiso   1.00
C235   C     0.50268   0.88796   0.62195   0.00000  Uiso   1.00
C236   C     0.76125   0.52936   0.56323   0.00000  Uiso   1.00
C237   C     0.81276   0.53182   0.51951   0.00000  Uiso   1.00
C238   C     0.80246   0.46496   0.47403   0.00000  Uiso   1.00
C239   C     0.81055   0.37197   0.39090   0.00000  Uiso   1.00
C240   C     0.76057   0.52245   0.66770   0.00000  Uiso   1.00
C241   C     0.81152   0.51907   0.71180   0.00000  Uiso   1.00
C242   C     0.80065   0.44638   0.75427   0.00000  Uiso   1.00
C243   C     0.80769   0.34266   0.83333   0.00000  Uiso   1.00
C244   C     0.65201   0.47267   0.61391   0.00000  Uiso   1.00
C245   C     0.62888   0.58431   0.61615   0.00000  Uiso   1.00
C246   C     0.55739   0.61986   0.61660   0.00000  Uiso   1.00
C247   C     0.54768   0.72478   0.61875   0.00000  Uiso   1.00
C248   C     0.70157   0.46249   0.56159   0.00000  Uiso   1.00
C249   C     0.69119   0.39561   0.51617   0.00000  Uiso   1.00
C250   C     0.74267   0.39797   0.47239   0.00000  Uiso   1.00
C251   C     0.70089   0.45558   0.66606   0.00000  Uiso   1.00
C252   C     0.68994   0.38287   0.70846   0.00000  Uiso   1.00
C253   C     0.74086   0.37939   0.75262   0.00000  Uiso   1.00
H254   H     0.80836   0.64784   0.61821   0.00000  Uiso   1.00
H255   H     0.72516   0.80779   0.62121   0.00000  Uiso   1.00
H256   H     0.85894   0.58357   0.52080   0.00000  Uiso   1.00
H257   H     0.85770   0.57083   0.71306   0.00000  Uiso   1.00
H258   H     0.60660   0.95564   0.62379   0.00000  Uiso   1.00
H259   H     0.88870   0.48282   0.41207   0.00000  Uiso   1.00
H260   H     0.88608   0.45597   0.81749   0.00000  Uiso   1.00
H261   H     0.60555   0.42061   0.61264   0.00000  Uiso   1.00
H262   H     0.51121   0.56809   0.61533   0.00000  Uiso   1.00
H263   H     0.64500   0.34387   0.51491   0.00000  Uiso   1.00
H264   H     0.64375   0.33113   0.70718   0.00000  Uiso   1.00
H265   H     0.43295   0.76109   0.61902   0.00000  Uiso   1.00
H266   H     0.71506   0.28827   0.40730   0.00000  Uiso   1.00
H267   H     0.71243   0.26142   0.81272   0.00000  Uiso   1.00
O268   O     0.46138   0.95949   0.62326   0.00000  Uiso   1.00
O269   O     0.83149   0.33916   0.34550   0.00000  Uiso   1.00
O270   O     0.82805   0.30393   0.87740   0.00000  Uiso   1.00
N271   N     0.57867   0.88961   0.62231   0.00000  Uiso   1.00
N272   N     0.84242   0.44757   0.42436   0.00000  Uiso   1.00
N273   N     0.83998   0.42244   0.80339   0.00000  Uiso   1.00
N274   N     0.48524   0.78493   0.61974   0.00000  Uiso   1.00
N275   N     0.74898   0.34288   0.42179   0.00000  Uiso   1.00
N276   N     0.74654   0.31776   0.80082   0.00000  Uiso   1.00
C277   C     0.26189   0.90422   0.38306   0.00000  Uiso   1.00
C278   C     0.18857   0.84882   0.38220   0.00000  Uiso   1.00
C279   C     0.17896   0.74393   0.38005   0.00000  Uiso   1.00
C280   C     0.10747   0.70823   0.37961   0.00000  Uiso   1.00
C281   C     0.00268   0.61204   0.37805   0.00000  Uiso   1.00
C282   C     0.26125   0.97064   0.43677   0.00000  Uiso   1.00
C283   C     0.31276   0.96818   0.48049   0.00000  Uiso   1.00
C284   C     0.30246   0.03504   0.52597   0.00000  Uiso   1.00
C285   C     0.31055   0.12803   0.60910   0.00000  Uiso   1.00
C286   C     0.26057   0.97755   0.33230   0.00000  Uiso   1.00
C287   C     0.31152   0.98093   0.28820   0.00000  Uiso   1.00
C288   C     0.30065   0.05362   0.24573   0.00000  Uiso   1.00
C289   C     0.30769   0.15734   0.16667   0.00000  Uiso   1.00
C290   C     0.15201   0.02733   0.38609   0.00000  Uiso   1.00
C291   C     0.12888   0.91569   0.38385   0.00000  Uiso   1.00
C292   C     0.05739   0.88014   0.38340   0.00000  Uiso   1.00
C293   C     0.04768   0.77522   0.38125   0.00000  Uiso   1.00
C294   C     0.20157   0.03751   0.43841   0.00000  Uiso   1.00
C295   C     0.19119   0.10439   0.48383   0.00000  Uiso   1.00
C296   C     0.24267   0.10203   0.52761   0.00000  Uiso   1.00
C297   C     0.20089   0.04442   0.33394   0.00000  Uiso   1.00
C298   C     0.18994   0.11713   0.29154   0.00000  Uiso   1.00
C299   C     0.24086   0.12061   0.24738   0.00000  Uiso   1.00
H300   H     0.30836   0.85216   0.38179   0.00000  Uiso   1.00
H301   H     0.22516   0.69221   0.37879   0.00000  Uiso   1.00
H302   H     0.35894   0.91643   0.47920   0.00000  Uiso   1.00
H303   H     0.35770   0.92917   0.28694   0.00000  Uiso   1.00
H304   H     0.10660   0.54436   0.37621   0.00000  Uiso   1.00
H305   H     0.38870   0.01718   0.58793   0.00000  Uiso   1.00
H306   H     0.38608   0.04403   0.18251   0.00000  Uiso   1.00
H307   H     0.10555   0.07939   0.38736   0.00000  Uiso   1.00
H308   H     0.01121   0.93191   0.38467   0.00000  Uiso   1.00
H309   H     0.14500   0.15613   0.48509   0.00000  Uiso   1.00
H310   H     0.14375   0.16887   0.29282   0.00000  Uiso   1.00
H311   H     0.93295   0.73891   0.38098   0.00000  Uiso   1.00
H312   H     0.21506   0.21173   0.59270   0.00000  Uiso   1.00
H313   H     0.21243   0.23858   0.18728   0.00000  Uiso   1.00
O314   O     0.96138   0.54051   0.37674   0.00000  Uiso   1.00
O315   O     0.33149   0.16084   0.65450   0.00000  Uiso   1.00
O316   O     0.32805   0.19607   0.12260   0.00000  Uiso   1.00
N317   N     0.07867   0.61039   0.37769   0.00000  Uiso   1.00
N318   N     0.34242   0.05243   0.57564   0.00000  Uiso   1.00
N319   N     0.33998   0.07756   0.19661   0.00000  Uiso   1.00
N320   N     0.98524   0.71507   0.38026   0.00000  Uiso   1.00
N321   N     0.24898   0.15712   0.57821   0.00000  Uiso   1.00
N322   N     0.24654   0.18224   0.19918   0.00000  Uiso   1.00
C323   C     0.23811   0.59578   0.88306   0.00000  Uiso   1.00
C324   C     0.31143   0.65118   0.88220   0.00000  Uiso   1.00
C325   C     0.32104   0.75607   0.88005   0.00000  Uiso   1.00
C326   C     0.39253   0.79177   0.87961   0.00000  Uiso   1.00
C327   C     0.49732   0.88796   0.87805   0.00000  Uiso   1.00
C328   C     0.23875   0.52936   0.93677   0.00000  Uiso   1.00
C329   C     0.18724   0.53182   0.98049   0.00000  Uiso   1.00
C330   C     0.19754   0.46496   0.02597   0.00000  Uiso   1.00
C331   C     0.18945   0.37197   0.10910   0.00000  Uiso   1.00
C332   C     0.23943   0.52245   0.83230   0.00000  Uiso   1.00
C333   C     0.18848   0.51907   0.78820   0.00000  Uiso   1.00
C334   C     0.19935   0.44638   0.74573   0.00000  Uiso   1.00
C335   C     0.19231   0.34266   0.66667   0.00000  Uiso   1.00
C336   C     0.34799   0.47267   0.88609   0.00000  Uiso   1.00
C337   C     0.37112   0.58431   0.88385   0.00000  Uiso   1.00
C338   C     0.44261   0.61986   0.88340   0.00000  Uiso   1.00
C339   C     0.45232   0.72478   0.88125   0.00000  Uiso   1.00
C340   C     0.29843   0.46249   0.93841   0.00000  Uiso   1.00
C341   C     0.30881   0.39561   0.98383   0.00000  Uiso   1.00
C342   C     0.25733   0.39797   0.02761   0.00000  Uiso   1.00
C343   C     0.29911   0.45558   0.83394   0.00000  Uiso   1.00
C344   C     0.31006   0.38287   0.79154   0.00000  Uiso   1.00
C345   C     0.25914   0.37939   0.74738   0.00000  Uiso   1.00
H346   H     0.19164   0.64784   0.88179   0.00000  Uiso   1.00
H347   H     0.27484   0.80779   0.87879   0.00000  Uiso   1.00
H348   H     0.14106   0.58357   0.97920   0.00000  Uiso   1.00
H349   H     0.14230   0.57083   0.78694   0.00000  Uiso   1.00
H350   H     0.39340   0.95564   0.87621   0.00000  Uiso   1.00
H351   H     0.11130   0.48282   0.08793   0.00000  Uiso   1.00
H352   H     0.11392   0.45597   0.68251   0.00000  Uiso   1.00
H353   H     0.39445   0.42061   0.88736   0.00000  Uiso   1.00
H354   H     0.48879   0.56809   0.88467   0.00000  Uiso   1.00
H355   H     0.35500   0.34387   0.98509   0.00000  Uiso   1.00
H356   H     0.35625   0.33113   0.79282   0.00000  Uiso   1.00
H357   H     0.56705   0.76109   0.88098   0.00000  Uiso   1.00
H358   H     0.28494   0.28827   0.09270   0.00000  Uiso   1.00
H359   H     0.28757   0.26142   0.68728   0.00000  Uiso   1.00
O360   O     0.53862   0.95949   0.87674   0.00000  Uiso   1.00
O361   O     0.16851   0.33916   0.15450   0.00000  Uiso   1.00
O362   O     0.17195   0.30393   0.62260   0.00000  Uiso   1.00
N363   N     0.42133   0.88961   0.87769   0.00000  Uiso   1.00
N364   N     0.15758   0.44757   0.07564   0.00000  Uiso   1.00
N365   N     0.16002   0.42244   0.69661   0.00000  Uiso   1.00
N366   N     0.51476   0.78493   0.88026   0.00000  Uiso   1.00
N367   N     0.25102   0.34288   0.07821   0.00000  Uiso   1.00
N368   N     0.25346   0.31776   0.69918   0.00000  Uiso   1.00
