data_job_04041
_audit_creation_date              2018-12-19
_audit_creation_method            'Materials Studio'
_symmetry_space_group_name_H-M    'P1'
_symmetry_Int_Tables_number       1
_symmetry_cell_setting            triclinic
loop_
_symmetry_equiv_pos_as_xyz
  x,y,z
_cell_length_a                    22.9868
_cell_length_b                    22.9868
_cell_length_c                    9.6051
_cell_angle_alpha                 90.0000
_cell_angle_beta                  90.0000
_cell_angle_gamma                 90.0000
loop_
_atom_site_label
_atom_site_type_symbol
_atom_site_fract_x
_atom_site_fract_y
_atom_site_fract_z
_atom_site_U_iso_or_equiv
_atom_site_adp_type
_atom_site_occupancy
C1     C     0.04937   0.67597   0.96509   0.00000  Uiso   1.00
C2     C     0.06302   0.72557   0.86485   0.00000  Uiso   1.00
C3     C     0.06180   0.72217   0.72063   0.00000  Uiso   1.00
C4     C     0.07569   0.77238   0.64748   0.00000  Uiso   1.00
C5     C     0.09469   0.84152   0.48137   0.00000  Uiso   1.00
C6     C     0.10278   0.66955   0.05801   0.00000  Uiso   1.00
C7     C     0.13498   0.61905   0.07620   0.00000  Uiso   1.00
C8     C     0.18233   0.62210   0.16566   0.00000  Uiso   1.00
C9     C     0.26303   0.60426   0.29951   0.00000  Uiso   1.00
C10    C     0.00070   0.69803   0.05915   0.00000  Uiso   1.00
C11    C     0.94707   0.67147   0.07832   0.00000  Uiso   1.00
C12    C     0.90847   0.69850   0.16877   0.00000  Uiso   1.00
C13    C     0.83068   0.72488   0.30439   0.00000  Uiso   1.00
C14    C     0.07619   0.77118   0.09165   0.00000  Uiso   1.00
C15    C     0.07759   0.77728   0.93360   0.00000  Uiso   1.00
C16    C     0.09147   0.82751   0.86065   0.00000  Uiso   1.00
C17    C     0.09028   0.82419   0.71634   0.00000  Uiso   1.00
C18    C     0.11734   0.72126   0.12675   0.00000  Uiso   1.00
C19    C     0.16465   0.72439   0.21622   0.00000  Uiso   1.00
C20    C     0.19692   0.67391   0.23453   0.00000  Uiso   1.00
C21    C     0.01526   0.74975   0.12789   0.00000  Uiso   1.00
C22    C     0.97674   0.77682   0.21833   0.00000  Uiso   1.00
C23    C     0.92307   0.75031   0.23764   0.00000  Uiso   1.00
H24    H     0.03803   0.63570   0.91158   0.00000  Uiso   1.00
H25    H     0.05054   0.68214   0.66747   0.00000  Uiso   1.00
H26    H     0.12370   0.57903   0.02300   0.00000  Uiso   1.00
H27    H     0.93582   0.63145   0.02511   0.00000  Uiso   1.00
H28    H     0.07084   0.75642   0.42714   0.00000  Uiso   1.00
H29    H     0.22509   0.53901   0.17682   0.00000  Uiso   1.00
H30    H     0.82891   0.64955   0.18129   0.00000  Uiso   1.00
H31    H     0.08753   0.81144   0.14517   0.00000  Uiso   1.00
H32    H     0.10274   0.86753   0.91387   0.00000  Uiso   1.00
H33    H     0.17591   0.76442   0.26940   0.00000  Uiso   1.00
H34    H     0.98802   0.81684   0.27151   0.00000  Uiso   1.00
H35    H     0.11322   0.90689   0.62713   0.00000  Uiso   1.00
H36    H     0.26747   0.68947   0.37682   0.00000  Uiso   1.00
H37    H     0.87128   0.80001   0.38128   0.00000  Uiso   1.00
O38    O     0.10116   0.86537   0.37077   0.00000  Uiso   1.00
O39    O     0.30353   0.58013   0.35434   0.00000  Uiso   1.00
O40    O     0.78375   0.72515   0.36019   0.00000  Uiso   1.00
N41    N     0.07871   0.78414   0.50595   0.00000  Uiso   1.00
N42    N     0.22294   0.58087   0.20684   0.00000  Uiso   1.00
N43    N     0.85254   0.68421   0.21105   0.00000  Uiso   1.00
N44    N     0.10151   0.86511   0.61356   0.00000  Uiso   1.00
N45    N     0.24574   0.66184   0.31445   0.00000  Uiso   1.00
N46    N     0.87534   0.76517   0.31866   0.00000  Uiso   1.00
C47    C     0.54937   0.17597   0.46509   0.00000  Uiso   1.00
C48    C     0.56302   0.22557   0.36485   0.00000  Uiso   1.00
C49    C     0.56180   0.22217   0.22063   0.00000  Uiso   1.00
C50    C     0.57569   0.27238   0.14748   0.00000  Uiso   1.00
C51    C     0.59469   0.34152   0.98137   0.00000  Uiso   1.00
C52    C     0.60278   0.16955   0.55801   0.00000  Uiso   1.00
C53    C     0.63498   0.11905   0.57620   0.00000  Uiso   1.00
C54    C     0.68233   0.12210   0.66566   0.00000  Uiso   1.00
C55    C     0.76303   0.10426   0.79951   0.00000  Uiso   1.00
C56    C     0.50070   0.19803   0.55915   0.00000  Uiso   1.00
C57    C     0.44707   0.17147   0.57832   0.00000  Uiso   1.00
C58    C     0.40847   0.19850   0.66877   0.00000  Uiso   1.00
C59    C     0.33068   0.22488   0.80439   0.00000  Uiso   1.00
C60    C     0.57619   0.27118   0.59165   0.00000  Uiso   1.00
C61    C     0.57759   0.27728   0.43360   0.00000  Uiso   1.00
C62    C     0.59147   0.32751   0.36065   0.00000  Uiso   1.00
C63    C     0.59028   0.32419   0.21634   0.00000  Uiso   1.00
C64    C     0.61734   0.22126   0.62675   0.00000  Uiso   1.00
C65    C     0.66465   0.22439   0.71622   0.00000  Uiso   1.00
C66    C     0.69692   0.17391   0.73453   0.00000  Uiso   1.00
C67    C     0.51526   0.24975   0.62789   0.00000  Uiso   1.00
C68    C     0.47674   0.27682   0.71833   0.00000  Uiso   1.00
C69    C     0.42307   0.25031   0.73764   0.00000  Uiso   1.00
H70    H     0.53803   0.13570   0.41158   0.00000  Uiso   1.00
H71    H     0.55054   0.18214   0.16747   0.00000  Uiso   1.00
H72    H     0.62370   0.07903   0.52300   0.00000  Uiso   1.00
H73    H     0.43582   0.13145   0.52511   0.00000  Uiso   1.00
H74    H     0.57084   0.25642   0.92714   0.00000  Uiso   1.00
H75    H     0.72509   0.03901   0.67682   0.00000  Uiso   1.00
H76    H     0.32891   0.14955   0.68129   0.00000  Uiso   1.00
H77    H     0.58753   0.31144   0.64517   0.00000  Uiso   1.00
H78    H     0.60274   0.36753   0.41387   0.00000  Uiso   1.00
H79    H     0.67591   0.26442   0.76940   0.00000  Uiso   1.00
H80    H     0.48802   0.31684   0.77151   0.00000  Uiso   1.00
H81    H     0.61322   0.40689   0.12713   0.00000  Uiso   1.00
H82    H     0.76747   0.18947   0.87682   0.00000  Uiso   1.00
H83    H     0.37128   0.30001   0.88128   0.00000  Uiso   1.00
O84    O     0.60116   0.36537   0.87077   0.00000  Uiso   1.00
O85    O     0.80353   0.08013   0.85434   0.00000  Uiso   1.00
O86    O     0.28375   0.22515   0.86019   0.00000  Uiso   1.00
N87    N     0.57871   0.28414   0.00595   0.00000  Uiso   1.00
N88    N     0.72294   0.08087   0.70684   0.00000  Uiso   1.00
N89    N     0.35254   0.18421   0.71105   0.00000  Uiso   1.00
N90    N     0.60151   0.36511   0.11356   0.00000  Uiso   1.00
N91    N     0.74574   0.16184   0.81445   0.00000  Uiso   1.00
N92    N     0.37534   0.26517   0.81866   0.00000  Uiso   1.00
C93    C     0.95063   0.32403   0.96509   0.00000  Uiso   1.00
C94    C     0.93698   0.27443   0.86485   0.00000  Uiso   1.00
C95    C     0.93820   0.27783   0.72063   0.00000  Uiso   1.00
C96    C     0.92431   0.22762   0.64748   0.00000  Uiso   1.00
C97    C     0.90531   0.15848   0.48137   0.00000  Uiso   1.00
C98    C     0.89722   0.33045   0.05801   0.00000  Uiso   1.00
C99    C     0.86502   0.38095   0.07620   0.00000  Uiso   1.00
C100   C     0.81767   0.37790   0.16566   0.00000  Uiso   1.00
C101   C     0.73697   0.39574   0.29951   0.00000  Uiso   1.00
C102   C     0.99930   0.30197   0.05915   0.00000  Uiso   1.00
C103   C     0.05293   0.32853   0.07832   0.00000  Uiso   1.00
C104   C     0.09153   0.30150   0.16877   0.00000  Uiso   1.00
C105   C     0.16932   0.27512   0.30439   0.00000  Uiso   1.00
C106   C     0.92381   0.22882   0.09165   0.00000  Uiso   1.00
C107   C     0.92241   0.22272   0.93360   0.00000  Uiso   1.00
C108   C     0.90853   0.17249   0.86065   0.00000  Uiso   1.00
C109   C     0.90972   0.17581   0.71634   0.00000  Uiso   1.00
C110   C     0.88266   0.27874   0.12675   0.00000  Uiso   1.00
C111   C     0.83535   0.27561   0.21622   0.00000  Uiso   1.00
C112   C     0.80308   0.32609   0.23453   0.00000  Uiso   1.00
C113   C     0.98474   0.25025   0.12789   0.00000  Uiso   1.00
C114   C     0.02326   0.22318   0.21833   0.00000  Uiso   1.00
C115   C     0.07693   0.24969   0.23764   0.00000  Uiso   1.00
H116   H     0.96197   0.36430   0.91158   0.00000  Uiso   1.00
H117   H     0.94946   0.31786   0.66747   0.00000  Uiso   1.00
H118   H     0.87630   0.42097   0.02300   0.00000  Uiso   1.00
H119   H     0.06418   0.36855   0.02511   0.00000  Uiso   1.00
H120   H     0.92916   0.24358   0.42714   0.00000  Uiso   1.00
H121   H     0.77491   0.46099   0.17682   0.00000  Uiso   1.00
H122   H     0.17109   0.35045   0.18129   0.00000  Uiso   1.00
H123   H     0.91247   0.18856   0.14517   0.00000  Uiso   1.00
H124   H     0.89726   0.13247   0.91387   0.00000  Uiso   1.00
H125   H     0.82409   0.23558   0.26940   0.00000  Uiso   1.00
H126   H     0.01198   0.18316   0.27151   0.00000  Uiso   1.00
H127   H     0.88678   0.09311   0.62713   0.00000  Uiso   1.00
H128   H     0.73253   0.31053   0.37682   0.00000  Uiso   1.00
H129   H     0.12872   0.19999   0.38128   0.00000  Uiso   1.00
O130   O     0.89884   0.13463   0.37077   0.00000  Uiso   1.00
O131   O     0.69647   0.41987   0.35434   0.00000  Uiso   1.00
O132   O     0.21625   0.27485   0.36019   0.00000  Uiso   1.00
N133   N     0.92129   0.21586   0.50595   0.00000  Uiso   1.00
N134   N     0.77706   0.41913   0.20684   0.00000  Uiso   1.00
N135   N     0.14746   0.31579   0.21105   0.00000  Uiso   1.00
N136   N     0.89849   0.13489   0.61356   0.00000  Uiso   1.00
N137   N     0.75426   0.33816   0.31445   0.00000  Uiso   1.00
N138   N     0.12466   0.23483   0.31866   0.00000  Uiso   1.00
C139   C     0.45063   0.82403   0.46509   0.00000  Uiso   1.00
C140   C     0.43698   0.77443   0.36485   0.00000  Uiso   1.00
C141   C     0.43820   0.77783   0.22063   0.00000  Uiso   1.00
C142   C     0.42431   0.72762   0.14748   0.00000  Uiso   1.00
C143   C     0.40531   0.65848   0.98137   0.00000  Uiso   1.00
C144   C     0.39722   0.83045   0.55801   0.00000  Uiso   1.00
C145   C     0.36502   0.88095   0.57620   0.00000  Uiso   1.00
C146   C     0.31767   0.87790   0.66566   0.00000  Uiso   1.00
C147   C     0.23697   0.89574   0.79951   0.00000  Uiso   1.00
C148   C     0.49930   0.80197   0.55915   0.00000  Uiso   1.00
C149   C     0.55293   0.82853   0.57832   0.00000  Uiso   1.00
C150   C     0.59153   0.80150   0.66877   0.00000  Uiso   1.00
C151   C     0.66932   0.77512   0.80439   0.00000  Uiso   1.00
C152   C     0.42381   0.72882   0.59165   0.00000  Uiso   1.00
C153   C     0.42241   0.72272   0.43360   0.00000  Uiso   1.00
C154   C     0.40853   0.67249   0.36065   0.00000  Uiso   1.00
C155   C     0.40972   0.67581   0.21634   0.00000  Uiso   1.00
C156   C     0.38266   0.77874   0.62675   0.00000  Uiso   1.00
C157   C     0.33535   0.77561   0.71622   0.00000  Uiso   1.00
C158   C     0.30308   0.82609   0.73453   0.00000  Uiso   1.00
C159   C     0.48474   0.75025   0.62789   0.00000  Uiso   1.00
C160   C     0.52326   0.72318   0.71833   0.00000  Uiso   1.00
C161   C     0.57693   0.74969   0.73764   0.00000  Uiso   1.00
H162   H     0.46197   0.86430   0.41158   0.00000  Uiso   1.00
H163   H     0.44946   0.81786   0.16747   0.00000  Uiso   1.00
H164   H     0.37630   0.92097   0.52300   0.00000  Uiso   1.00
H165   H     0.56418   0.86855   0.52511   0.00000  Uiso   1.00
H166   H     0.42916   0.74358   0.92714   0.00000  Uiso   1.00
H167   H     0.27491   0.96099   0.67682   0.00000  Uiso   1.00
H168   H     0.67109   0.85045   0.68129   0.00000  Uiso   1.00
H169   H     0.41247   0.68856   0.64517   0.00000  Uiso   1.00
H170   H     0.39726   0.63247   0.41387   0.00000  Uiso   1.00
H171   H     0.32409   0.73558   0.76940   0.00000  Uiso   1.00
H172   H     0.51198   0.68316   0.77151   0.00000  Uiso   1.00
H173   H     0.38678   0.59311   0.12713   0.00000  Uiso   1.00
H174   H     0.23253   0.81053   0.87682   0.00000  Uiso   1.00
H175   H     0.62872   0.69999   0.88128   0.00000  Uiso   1.00
O176   O     0.39884   0.63463   0.87077   0.00000  Uiso   1.00
O177   O     0.19647   0.91987   0.85434   0.00000  Uiso   1.00
O178   O     0.71625   0.77485   0.86019   0.00000  Uiso   1.00
N179   N     0.42129   0.71586   0.00595   0.00000  Uiso   1.00
N180   N     0.27706   0.91913   0.70684   0.00000  Uiso   1.00
N181   N     0.64746   0.81579   0.71105   0.00000  Uiso   1.00
N182   N     0.39849   0.63489   0.11356   0.00000  Uiso   1.00
N183   N     0.25426   0.83816   0.81445   0.00000  Uiso   1.00
N184   N     0.62466   0.73483   0.81866   0.00000  Uiso   1.00
C185   C     0.32403   0.04937   0.96509   0.00000  Uiso   1.00
C186   C     0.27443   0.06302   0.86485   0.00000  Uiso   1.00
C187   C     0.27783   0.06180   0.72063   0.00000  Uiso   1.00
C188   C     0.22762   0.07569   0.64748   0.00000  Uiso   1.00
C189   C     0.15848   0.09469   0.48137   0.00000  Uiso   1.00
C190   C     0.33045   0.10278   0.05801   0.00000  Uiso   1.00
C191   C     0.38095   0.13498   0.07620   0.00000  Uiso   1.00
C192   C     0.37790   0.18233   0.16566   0.00000  Uiso   1.00
C193   C     0.39574   0.26303   0.29951   0.00000  Uiso   1.00
C194   C     0.30197   0.00070   0.05915   0.00000  Uiso   1.00
C195   C     0.32853   0.94707   0.07832   0.00000  Uiso   1.00
C196   C     0.30150   0.90847   0.16877   0.00000  Uiso   1.00
C197   C     0.27512   0.83068   0.30439   0.00000  Uiso   1.00
C198   C     0.22882   0.07619   0.09165   0.00000  Uiso   1.00
C199   C     0.22272   0.07759   0.93360   0.00000  Uiso   1.00
C200   C     0.17249   0.09147   0.86065   0.00000  Uiso   1.00
C201   C     0.17581   0.09028   0.71634   0.00000  Uiso   1.00
C202   C     0.27874   0.11734   0.12675   0.00000  Uiso   1.00
C203   C     0.27561   0.16465   0.21622   0.00000  Uiso   1.00
C204   C     0.32609   0.19692   0.23453   0.00000  Uiso   1.00
C205   C     0.25025   0.01526   0.12789   0.00000  Uiso   1.00
C206   C     0.22318   0.97674   0.21833   0.00000  Uiso   1.00
C207   C     0.24969   0.92307   0.23764   0.00000  Uiso   1.00
H208   H     0.36430   0.03803   0.91158   0.00000  Uiso   1.00
H209   H     0.31786   0.05054   0.66747   0.00000  Uiso   1.00
H210   H     0.42097   0.12370   0.02300   0.00000  Uiso   1.00
H211   H     0.36855   0.93582   0.02511   0.00000  Uiso   1.00
H212   H     0.24358   0.07084   0.42714   0.00000  Uiso   1.00
H213   H     0.46099   0.22509   0.17682   0.00000  Uiso   1.00
H214   H     0.35045   0.82891   0.18129   0.00000  Uiso   1.00
H215   H     0.18856   0.08753   0.14517   0.00000  Uiso   1.00
H216   H     0.13247   0.10274   0.91387   0.00000  Uiso   1.00
H217   H     0.23558   0.17591   0.26940   0.00000  Uiso   1.00
H218   H     0.18316   0.98802   0.27151   0.00000  Uiso   1.00
H219   H     0.09311   0.11322   0.62713   0.00000  Uiso   1.00
H220   H     0.31053   0.26747   0.37682   0.00000  Uiso   1.00
H221   H     0.19999   0.87128   0.38128   0.00000  Uiso   1.00
O222   O     0.13463   0.10116   0.37077   0.00000  Uiso   1.00
O223   O     0.41987   0.30353   0.35434   0.00000  Uiso   1.00
O224   O     0.27485   0.78375   0.36019   0.00000  Uiso   1.00
N225   N     0.21586   0.07871   0.50595   0.00000  Uiso   1.00
N226   N     0.41913   0.22294   0.20684   0.00000  Uiso   1.00
N227   N     0.31579   0.85254   0.21105   0.00000  Uiso   1.00
N228   N     0.13489   0.10151   0.61356   0.00000  Uiso   1.00
N229   N     0.33816   0.24574   0.31445   0.00000  Uiso   1.00
N230   N     0.23483   0.87534   0.31866   0.00000  Uiso   1.00
C231   C     0.82403   0.54937   0.46509   0.00000  Uiso   1.00
C232   C     0.77443   0.56302   0.36485   0.00000  Uiso   1.00
C233   C     0.77783   0.56180   0.22063   0.00000  Uiso   1.00
C234   C     0.72762   0.57569   0.14748   0.00000  Uiso   1.00
C235   C     0.65848   0.59469   0.98137   0.00000  Uiso   1.00
C236   C     0.83045   0.60278   0.55801   0.00000  Uiso   1.00
C237   C     0.88095   0.63498   0.57620   0.00000  Uiso   1.00
C238   C     0.87790   0.68233   0.66566   0.00000  Uiso   1.00
C239   C     0.89574   0.76303   0.79951   0.00000  Uiso   1.00
C240   C     0.80197   0.50070   0.55915   0.00000  Uiso   1.00
C241   C     0.82853   0.44707   0.57832   0.00000  Uiso   1.00
C242   C     0.80150   0.40847   0.66877   0.00000  Uiso   1.00
C243   C     0.77512   0.33068   0.80439   0.00000  Uiso   1.00
C244   C     0.72882   0.57619   0.59165   0.00000  Uiso   1.00
C245   C     0.72272   0.57759   0.43360   0.00000  Uiso   1.00
C246   C     0.67249   0.59147   0.36065   0.00000  Uiso   1.00
C247   C     0.67581   0.59028   0.21634   0.00000  Uiso   1.00
C248   C     0.77874   0.61734   0.62675   0.00000  Uiso   1.00
C249   C     0.77561   0.66465   0.71622   0.00000  Uiso   1.00
C250   C     0.82609   0.69692   0.73453   0.00000  Uiso   1.00
C251   C     0.75025   0.51526   0.62789   0.00000  Uiso   1.00
C252   C     0.72318   0.47674   0.71833   0.00000  Uiso   1.00
C253   C     0.74969   0.42307   0.73764   0.00000  Uiso   1.00
H254   H     0.86430   0.53803   0.41158   0.00000  Uiso   1.00
H255   H     0.81786   0.55054   0.16747   0.00000  Uiso   1.00
H256   H     0.92097   0.62370   0.52300   0.00000  Uiso   1.00
H257   H     0.86855   0.43582   0.52511   0.00000  Uiso   1.00
H258   H     0.74358   0.57084   0.92714   0.00000  Uiso   1.00
H259   H     0.96099   0.72509   0.67682   0.00000  Uiso   1.00
H260   H     0.85045   0.32891   0.68129   0.00000  Uiso   1.00
H261   H     0.68856   0.58753   0.64517   0.00000  Uiso   1.00
H262   H     0.63247   0.60274   0.41387   0.00000  Uiso   1.00
H263   H     0.73558   0.67591   0.76940   0.00000  Uiso   1.00
H264   H     0.68316   0.48802   0.77151   0.00000  Uiso   1.00
H265   H     0.59311   0.61322   0.12713   0.00000  Uiso   1.00
H266   H     0.81053   0.76747   0.87682   0.00000  Uiso   1.00
H267   H     0.69999   0.37128   0.88128   0.00000  Uiso   1.00
O268   O     0.63463   0.60116   0.87077   0.00000  Uiso   1.00
O269   O     0.91987   0.80353   0.85434   0.00000  Uiso   1.00
O270   O     0.77485   0.28375   0.86019   0.00000  Uiso   1.00
N271   N     0.71586   0.57871   0.00595   0.00000  Uiso   1.00
N272   N     0.91913   0.72294   0.70684   0.00000  Uiso   1.00
N273   N     0.81579   0.35254   0.71105   0.00000  Uiso   1.00
N274   N     0.63489   0.60151   0.11356   0.00000  Uiso   1.00
N275   N     0.83816   0.74574   0.81445   0.00000  Uiso   1.00
N276   N     0.73483   0.37534   0.81866   0.00000  Uiso   1.00
C277   C     0.67597   0.95063   0.96509   0.00000  Uiso   1.00
C278   C     0.72557   0.93698   0.86485   0.00000  Uiso   1.00
C279   C     0.72217   0.93820   0.72063   0.00000  Uiso   1.00
C280   C     0.77238   0.92431   0.64748   0.00000  Uiso   1.00
C281   C     0.84152   0.90531   0.48137   0.00000  Uiso   1.00
C282   C     0.66955   0.89722   0.05801   0.00000  Uiso   1.00
C283   C     0.61905   0.86502   0.07620   0.00000  Uiso   1.00
C284   C     0.62210   0.81767   0.16566   0.00000  Uiso   1.00
C285   C     0.60426   0.73697   0.29951   0.00000  Uiso   1.00
C286   C     0.69803   0.99930   0.05915   0.00000  Uiso   1.00
C287   C     0.67147   0.05293   0.07832   0.00000  Uiso   1.00
C288   C     0.69850   0.09153   0.16877   0.00000  Uiso   1.00
C289   C     0.72488   0.16932   0.30439   0.00000  Uiso   1.00
C290   C     0.77118   0.92381   0.09165   0.00000  Uiso   1.00
C291   C     0.77728   0.92241   0.93360   0.00000  Uiso   1.00
C292   C     0.82751   0.90853   0.86065   0.00000  Uiso   1.00
C293   C     0.82419   0.90972   0.71634   0.00000  Uiso   1.00
C294   C     0.72126   0.88266   0.12675   0.00000  Uiso   1.00
C295   C     0.72439   0.83535   0.21622   0.00000  Uiso   1.00
C296   C     0.67391   0.80308   0.23453   0.00000  Uiso   1.00
C297   C     0.74975   0.98474   0.12789   0.00000  Uiso   1.00
C298   C     0.77682   0.02326   0.21833   0.00000  Uiso   1.00
C299   C     0.75031   0.07693   0.23764   0.00000  Uiso   1.00
H300   H     0.63570   0.96197   0.91158   0.00000  Uiso   1.00
H301   H     0.68214   0.94946   0.66747   0.00000  Uiso   1.00
H302   H     0.57903   0.87630   0.02300   0.00000  Uiso   1.00
H303   H     0.63145   0.06418   0.02511   0.00000  Uiso   1.00
H304   H     0.75642   0.92916   0.42714   0.00000  Uiso   1.00
H305   H     0.53901   0.77491   0.17682   0.00000  Uiso   1.00
H306   H     0.64955   0.17109   0.18129   0.00000  Uiso   1.00
H307   H     0.81144   0.91247   0.14517   0.00000  Uiso   1.00
H308   H     0.86753   0.89726   0.91387   0.00000  Uiso   1.00
H309   H     0.76442   0.82409   0.26940   0.00000  Uiso   1.00
H310   H     0.81684   0.01198   0.27151   0.00000  Uiso   1.00
H311   H     0.90689   0.88678   0.62713   0.00000  Uiso   1.00
H312   H     0.68947   0.73253   0.37682   0.00000  Uiso   1.00
H313   H     0.80001   0.12872   0.38128   0.00000  Uiso   1.00
O314   O     0.86537   0.89884   0.37077   0.00000  Uiso   1.00
O315   O     0.58013   0.69647   0.35434   0.00000  Uiso   1.00
O316   O     0.72515   0.21625   0.36019   0.00000  Uiso   1.00
N317   N     0.78414   0.92129   0.50595   0.00000  Uiso   1.00
N318   N     0.58087   0.77706   0.20684   0.00000  Uiso   1.00
N319   N     0.68421   0.14746   0.21105   0.00000  Uiso   1.00
N320   N     0.86511   0.89849   0.61356   0.00000  Uiso   1.00
N321   N     0.66184   0.75426   0.31445   0.00000  Uiso   1.00
N322   N     0.76517   0.12466   0.31866   0.00000  Uiso   1.00
C323   C     0.17597   0.45063   0.46509   0.00000  Uiso   1.00
C324   C     0.22557   0.43698   0.36485   0.00000  Uiso   1.00
C325   C     0.22217   0.43820   0.22063   0.00000  Uiso   1.00
C326   C     0.27238   0.42431   0.14748   0.00000  Uiso   1.00
C327   C     0.34152   0.40531   0.98137   0.00000  Uiso   1.00
C328   C     0.16955   0.39722   0.55801   0.00000  Uiso   1.00
C329   C     0.11905   0.36502   0.57620   0.00000  Uiso   1.00
C330   C     0.12210   0.31767   0.66566   0.00000  Uiso   1.00
C331   C     0.10426   0.23697   0.79951   0.00000  Uiso   1.00
C332   C     0.19803   0.49930   0.55915   0.00000  Uiso   1.00
C333   C     0.17147   0.55293   0.57832   0.00000  Uiso   1.00
C334   C     0.19850   0.59153   0.66877   0.00000  Uiso   1.00
C335   C     0.22488   0.66932   0.80439   0.00000  Uiso   1.00
C336   C     0.27118   0.42381   0.59165   0.00000  Uiso   1.00
C337   C     0.27728   0.42241   0.43360   0.00000  Uiso   1.00
C338   C     0.32751   0.40853   0.36065   0.00000  Uiso   1.00
C339   C     0.32419   0.40972   0.21634   0.00000  Uiso   1.00
C340   C     0.22126   0.38266   0.62675   0.00000  Uiso   1.00
C341   C     0.22439   0.33535   0.71622   0.00000  Uiso   1.00
C342   C     0.17391   0.30308   0.73453   0.00000  Uiso   1.00
C343   C     0.24975   0.48474   0.62789   0.00000  Uiso   1.00
C344   C     0.27682   0.52326   0.71833   0.00000  Uiso   1.00
C345   C     0.25031   0.57693   0.73764   0.00000  Uiso   1.00
H346   H     0.13570   0.46197   0.41158   0.00000  Uiso   1.00
H347   H     0.18214   0.44946   0.16747   0.00000  Uiso   1.00
H348   H     0.07903   0.37630   0.52300   0.00000  Uiso   1.00
H349   H     0.13145   0.56418   0.52511   0.00000  Uiso   1.00
H350   H     0.25642   0.42916   0.92714   0.00000  Uiso   1.00
H351   H     0.03901   0.27491   0.67682   0.00000  Uiso   1.00
H352   H     0.14955   0.67109   0.68129   0.00000  Uiso   1.00
H353   H     0.31144   0.41247   0.64517   0.00000  Uiso   1.00
H354   H     0.36753   0.39726   0.41387   0.00000  Uiso   1.00
H355   H     0.26442   0.32409   0.76940   0.00000  Uiso   1.00
H356   H     0.31684   0.51198   0.77151   0.00000  Uiso   1.00
H357   H     0.40689   0.38678   0.12713   0.00000  Uiso   1.00
H358   H     0.18947   0.23253   0.87682   0.00000  Uiso   1.00
H359   H     0.30001   0.62872   0.88128   0.00000  Uiso   1.00
O360   O     0.36537   0.39884   0.87077   0.00000  Uiso   1.00
O361   O     0.08013   0.19647   0.85434   0.00000  Uiso   1.00
O362   O     0.22515   0.71625   0.86019   0.00000  Uiso   1.00
N363   N     0.28414   0.42129   0.00595   0.00000  Uiso   1.00
N364   N     0.08087   0.27706   0.70684   0.00000  Uiso   1.00
N365   N     0.18421   0.64746   0.71105   0.00000  Uiso   1.00
N366   N     0.36511   0.39849   0.11356   0.00000  Uiso   1.00
N367   N     0.16184   0.25426   0.81445   0.00000  Uiso   1.00
N368   N     0.26517   0.62466   0.81866   0.00000  Uiso   1.00
