data_job_05478
_audit_creation_date              2018-12-19
_audit_creation_method            'Materials Studio'
_symmetry_space_group_name_H-M    'P1'
_symmetry_Int_Tables_number       1
_symmetry_cell_setting            triclinic
loop_
_symmetry_equiv_pos_as_xyz
  x,y,z
_cell_length_a                    20.0547
_cell_length_b                    12.3526
_cell_length_c                    21.1166
_cell_angle_alpha                 90.0000
_cell_angle_beta                  90.0000
_cell_angle_gamma                 90.0000
loop_
_atom_site_label
_atom_site_type_symbol
_atom_site_fract_x
_atom_site_fract_y
_atom_site_fract_z
_atom_site_U_iso_or_equiv
_atom_site_adp_type
_atom_site_occupancy
C1     C     0.13903   0.38079   0.87006   0.00000  Uiso   1.00
C2     C     0.21050   0.37536   0.84561   0.00000  Uiso   1.00
C3     C     0.23096   0.39906   0.78438   0.00000  Uiso   1.00
C4     C     0.29855   0.38917   0.77142   0.00000  Uiso   1.00
C5     C     0.40261   0.38563   0.72636   0.00000  Uiso   1.00
C6     C     0.12355   0.26882   0.89668   0.00000  Uiso   1.00
C7     C     0.07090   0.20294   0.87839   0.00000  Uiso   1.00
C8     C     0.06531   0.10337   0.90843   0.00000  Uiso   1.00
C9     C     0.03435   0.93445   0.94268   0.00000  Uiso   1.00
C10    C     0.14037   0.45726   0.92673   0.00000  Uiso   1.00
C11    C     0.10184   0.54983   0.93372   0.00000  Uiso   1.00
C12    C     0.11039   0.60891   0.98906   0.00000  Uiso   1.00
C13    C     0.10555   0.73258   0.06997   0.00000  Uiso   1.00
C14    C     0.22270   0.32109   0.95593   0.00000  Uiso   1.00
C15    C     0.25594   0.34293   0.89226   0.00000  Uiso   1.00
C16    C     0.32353   0.33301   0.87939   0.00000  Uiso   1.00
C17    C     0.34408   0.35669   0.81815   0.00000  Uiso   1.00
C18    C     0.16900   0.23639   0.94332   0.00000  Uiso   1.00
C19    C     0.16348   0.13690   0.97340   0.00000  Uiso   1.00
C20    C     0.11083   0.07089   0.95516   0.00000  Uiso   1.00
C21    C     0.18582   0.42484   0.97337   0.00000  Uiso   1.00
C22    C     0.19442   0.48378   0.02872   0.00000  Uiso   1.00
C23    C     0.15592   0.57642   0.03579   0.00000  Uiso   1.00
H24    H     0.10364   0.40603   0.83375   0.00000  Uiso   1.00
H25    H     0.19577   0.42414   0.74830   0.00000  Uiso   1.00
H26    H     0.03574   0.22806   0.84230   0.00000  Uiso   1.00
H27    H     0.06668   0.57490   0.89761   0.00000  Uiso   1.00
H28    H     0.31795   0.42989   0.67412   0.00000  Uiso   1.00
H29    H     0.98050   0.01646   0.87235   0.00000  Uiso   1.00
H30    H     0.04574   0.74782   0.98899   0.00000  Uiso   1.00
H31    H     0.25808   0.29584   0.99225   0.00000  Uiso   1.00
H32    H     0.35869   0.30792   0.91549   0.00000  Uiso   1.00
H33    H     0.19865   0.11183   0.00949   0.00000  Uiso   1.00
H34    H     0.22959   0.45866   0.06481   0.00000  Uiso   1.00
H35    H     0.45018   0.33555   0.80982   0.00000  Uiso   1.00
H36    H     0.11272   0.92212   0.00805   0.00000  Uiso   1.00
H37    H     0.17797   0.65348   0.12469   0.00000  Uiso   1.00
O38    O     0.44745   0.39261   0.68861   0.00000  Uiso   1.00
O39    O     0.00473   0.85023   0.94869   0.00000  Uiso   1.00
O40    O     0.09033   0.80975   0.10171   0.00000  Uiso   1.00
N41    N     0.33526   0.40605   0.71659   0.00000  Uiso   1.00
N42    N     0.01977   0.01951   0.90192   0.00000  Uiso   1.00
N43    N     0.08076   0.70326   0.01097   0.00000  Uiso   1.00
N44    N     0.40641   0.35529   0.78961   0.00000  Uiso   1.00
N45    N     0.09093   0.96875   0.97494   0.00000  Uiso   1.00
N46    N     0.15191   0.65250   0.08399   0.00000  Uiso   1.00
C47    C     0.36097   0.11921   0.37006   0.00000  Uiso   1.00
C48    C     0.28950   0.12464   0.34561   0.00000  Uiso   1.00
C49    C     0.26904   0.10094   0.28438   0.00000  Uiso   1.00
C50    C     0.20145   0.11083   0.27142   0.00000  Uiso   1.00
C51    C     0.09739   0.11437   0.22636   0.00000  Uiso   1.00
C52    C     0.37645   0.23118   0.39668   0.00000  Uiso   1.00
C53    C     0.42910   0.29706   0.37839   0.00000  Uiso   1.00
C54    C     0.43469   0.39663   0.40843   0.00000  Uiso   1.00
C55    C     0.46565   0.56555   0.44268   0.00000  Uiso   1.00
C56    C     0.35963   0.04274   0.42673   0.00000  Uiso   1.00
C57    C     0.39816   0.95017   0.43372   0.00000  Uiso   1.00
C58    C     0.38961   0.89109   0.48906   0.00000  Uiso   1.00
C59    C     0.39445   0.76742   0.56997   0.00000  Uiso   1.00
C60    C     0.27730   0.17891   0.45593   0.00000  Uiso   1.00
C61    C     0.24406   0.15707   0.39226   0.00000  Uiso   1.00
C62    C     0.17647   0.16699   0.37939   0.00000  Uiso   1.00
C63    C     0.15592   0.14331   0.31815   0.00000  Uiso   1.00
C64    C     0.33100   0.26361   0.44332   0.00000  Uiso   1.00
C65    C     0.33652   0.36310   0.47340   0.00000  Uiso   1.00
C66    C     0.38917   0.42911   0.45516   0.00000  Uiso   1.00
C67    C     0.31418   0.07516   0.47337   0.00000  Uiso   1.00
C68    C     0.30558   0.01622   0.52872   0.00000  Uiso   1.00
C69    C     0.34408   0.92358   0.53579   0.00000  Uiso   1.00
H70    H     0.39636   0.09397   0.33375   0.00000  Uiso   1.00
H71    H     0.30423   0.07586   0.24830   0.00000  Uiso   1.00
H72    H     0.46426   0.27194   0.34230   0.00000  Uiso   1.00
H73    H     0.43332   0.92510   0.39761   0.00000  Uiso   1.00
H74    H     0.18205   0.07011   0.17412   0.00000  Uiso   1.00
H75    H     0.51950   0.48354   0.37235   0.00000  Uiso   1.00
H76    H     0.45426   0.75218   0.48899   0.00000  Uiso   1.00
H77    H     0.24192   0.20416   0.49225   0.00000  Uiso   1.00
H78    H     0.14131   0.19208   0.41549   0.00000  Uiso   1.00
H79    H     0.30135   0.38817   0.50949   0.00000  Uiso   1.00
H80    H     0.27041   0.04134   0.56481   0.00000  Uiso   1.00
H81    H     0.04982   0.16445   0.30982   0.00000  Uiso   1.00
H82    H     0.38728   0.57788   0.50805   0.00000  Uiso   1.00
H83    H     0.32203   0.84652   0.62469   0.00000  Uiso   1.00
O84    O     0.05255   0.10739   0.18861   0.00000  Uiso   1.00
O85    O     0.49527   0.64977   0.44869   0.00000  Uiso   1.00
O86    O     0.40967   0.69025   0.60171   0.00000  Uiso   1.00
N87    N     0.16474   0.09395   0.21659   0.00000  Uiso   1.00
N88    N     0.48023   0.48049   0.40192   0.00000  Uiso   1.00
N89    N     0.41924   0.79674   0.51097   0.00000  Uiso   1.00
N90    N     0.09359   0.14471   0.28961   0.00000  Uiso   1.00
N91    N     0.40907   0.53125   0.47494   0.00000  Uiso   1.00
N92    N     0.34809   0.84750   0.58399   0.00000  Uiso   1.00
C93    C     0.86097   0.38079   0.62994   0.00000  Uiso   1.00
C94    C     0.78950   0.37536   0.65439   0.00000  Uiso   1.00
C95    C     0.76904   0.39906   0.71562   0.00000  Uiso   1.00
C96    C     0.70145   0.38917   0.72858   0.00000  Uiso   1.00
C97    C     0.59739   0.38563   0.77364   0.00000  Uiso   1.00
C98    C     0.87645   0.26882   0.60332   0.00000  Uiso   1.00
C99    C     0.92910   0.20294   0.62161   0.00000  Uiso   1.00
C100   C     0.93469   0.10337   0.59157   0.00000  Uiso   1.00
C101   C     0.96565   0.93445   0.55732   0.00000  Uiso   1.00
C102   C     0.85963   0.45726   0.57327   0.00000  Uiso   1.00
C103   C     0.89816   0.54983   0.56628   0.00000  Uiso   1.00
C104   C     0.88961   0.60891   0.51094   0.00000  Uiso   1.00
C105   C     0.89445   0.73258   0.43003   0.00000  Uiso   1.00
C106   C     0.77730   0.32109   0.54407   0.00000  Uiso   1.00
C107   C     0.74406   0.34293   0.60774   0.00000  Uiso   1.00
C108   C     0.67647   0.33301   0.62061   0.00000  Uiso   1.00
C109   C     0.65592   0.35669   0.68185   0.00000  Uiso   1.00
C110   C     0.83100   0.23639   0.55668   0.00000  Uiso   1.00
C111   C     0.83652   0.13690   0.52660   0.00000  Uiso   1.00
C112   C     0.88917   0.07089   0.54484   0.00000  Uiso   1.00
C113   C     0.81418   0.42484   0.52663   0.00000  Uiso   1.00
C114   C     0.80558   0.48378   0.47128   0.00000  Uiso   1.00
C115   C     0.84408   0.57642   0.46421   0.00000  Uiso   1.00
H116   H     0.89636   0.40603   0.66625   0.00000  Uiso   1.00
H117   H     0.80423   0.42414   0.75170   0.00000  Uiso   1.00
H118   H     0.96426   0.22806   0.65770   0.00000  Uiso   1.00
H119   H     0.93332   0.57490   0.60239   0.00000  Uiso   1.00
H120   H     0.68205   0.42989   0.82588   0.00000  Uiso   1.00
H121   H     0.01950   0.01646   0.62765   0.00000  Uiso   1.00
H122   H     0.95426   0.74782   0.51101   0.00000  Uiso   1.00
H123   H     0.74192   0.29584   0.50775   0.00000  Uiso   1.00
H124   H     0.64131   0.30792   0.58451   0.00000  Uiso   1.00
H125   H     0.80135   0.11183   0.49051   0.00000  Uiso   1.00
H126   H     0.77041   0.45866   0.43519   0.00000  Uiso   1.00
H127   H     0.54982   0.33555   0.69018   0.00000  Uiso   1.00
H128   H     0.88728   0.92212   0.49195   0.00000  Uiso   1.00
H129   H     0.82203   0.65348   0.37531   0.00000  Uiso   1.00
O130   O     0.55255   0.39261   0.81139   0.00000  Uiso   1.00
O131   O     0.99527   0.85023   0.55131   0.00000  Uiso   1.00
O132   O     0.90967   0.80975   0.39829   0.00000  Uiso   1.00
N133   N     0.66474   0.40605   0.78341   0.00000  Uiso   1.00
N134   N     0.98023   0.01951   0.59808   0.00000  Uiso   1.00
N135   N     0.91924   0.70326   0.48903   0.00000  Uiso   1.00
N136   N     0.59359   0.35529   0.71039   0.00000  Uiso   1.00
N137   N     0.90907   0.96875   0.52506   0.00000  Uiso   1.00
N138   N     0.84809   0.65250   0.41601   0.00000  Uiso   1.00
C139   C     0.63903   0.11921   0.12994   0.00000  Uiso   1.00
C140   C     0.71050   0.12464   0.15439   0.00000  Uiso   1.00
C141   C     0.73096   0.10094   0.21562   0.00000  Uiso   1.00
C142   C     0.79855   0.11083   0.22858   0.00000  Uiso   1.00
C143   C     0.90261   0.11437   0.27364   0.00000  Uiso   1.00
C144   C     0.62355   0.23118   0.10332   0.00000  Uiso   1.00
C145   C     0.57090   0.29706   0.12161   0.00000  Uiso   1.00
C146   C     0.56531   0.39663   0.09157   0.00000  Uiso   1.00
C147   C     0.53435   0.56555   0.05732   0.00000  Uiso   1.00
C148   C     0.64037   0.04274   0.07327   0.00000  Uiso   1.00
C149   C     0.60184   0.95017   0.06628   0.00000  Uiso   1.00
C150   C     0.61039   0.89109   0.01094   0.00000  Uiso   1.00
C151   C     0.60555   0.76742   0.93003   0.00000  Uiso   1.00
C152   C     0.72270   0.17891   0.04407   0.00000  Uiso   1.00
C153   C     0.75594   0.15707   0.10774   0.00000  Uiso   1.00
C154   C     0.82353   0.16699   0.12061   0.00000  Uiso   1.00
C155   C     0.84408   0.14331   0.18185   0.00000  Uiso   1.00
C156   C     0.66900   0.26361   0.05668   0.00000  Uiso   1.00
C157   C     0.66348   0.36310   0.02660   0.00000  Uiso   1.00
C158   C     0.61083   0.42911   0.04484   0.00000  Uiso   1.00
C159   C     0.68582   0.07516   0.02663   0.00000  Uiso   1.00
C160   C     0.69442   0.01622   0.97128   0.00000  Uiso   1.00
C161   C     0.65592   0.92358   0.96421   0.00000  Uiso   1.00
H162   H     0.60364   0.09397   0.16625   0.00000  Uiso   1.00
H163   H     0.69577   0.07586   0.25170   0.00000  Uiso   1.00
H164   H     0.53574   0.27194   0.15770   0.00000  Uiso   1.00
H165   H     0.56668   0.92510   0.10239   0.00000  Uiso   1.00
H166   H     0.81795   0.07011   0.32588   0.00000  Uiso   1.00
H167   H     0.48050   0.48354   0.12765   0.00000  Uiso   1.00
H168   H     0.54574   0.75218   0.01101   0.00000  Uiso   1.00
H169   H     0.75808   0.20416   0.00775   0.00000  Uiso   1.00
H170   H     0.85869   0.19208   0.08451   0.00000  Uiso   1.00
H171   H     0.69865   0.38817   0.99051   0.00000  Uiso   1.00
H172   H     0.72959   0.04134   0.93519   0.00000  Uiso   1.00
H173   H     0.95018   0.16445   0.19018   0.00000  Uiso   1.00
H174   H     0.61272   0.57788   0.99195   0.00000  Uiso   1.00
H175   H     0.67797   0.84652   0.87531   0.00000  Uiso   1.00
O176   O     0.94745   0.10739   0.31139   0.00000  Uiso   1.00
O177   O     0.50473   0.64977   0.05131   0.00000  Uiso   1.00
O178   O     0.59033   0.69025   0.89829   0.00000  Uiso   1.00
N179   N     0.83526   0.09395   0.28341   0.00000  Uiso   1.00
N180   N     0.51977   0.48049   0.09808   0.00000  Uiso   1.00
N181   N     0.58076   0.79674   0.98903   0.00000  Uiso   1.00
N182   N     0.90641   0.14471   0.21039   0.00000  Uiso   1.00
N183   N     0.59093   0.53125   0.02506   0.00000  Uiso   1.00
N184   N     0.65191   0.84750   0.91601   0.00000  Uiso   1.00
C185   C     0.86097   0.61921   0.12994   0.00000  Uiso   1.00
C186   C     0.78950   0.62464   0.15439   0.00000  Uiso   1.00
C187   C     0.76904   0.60094   0.21562   0.00000  Uiso   1.00
C188   C     0.70145   0.61083   0.22858   0.00000  Uiso   1.00
C189   C     0.59739   0.61437   0.27364   0.00000  Uiso   1.00
C190   C     0.87645   0.73118   0.10332   0.00000  Uiso   1.00
C191   C     0.92910   0.79706   0.12161   0.00000  Uiso   1.00
C192   C     0.93469   0.89663   0.09157   0.00000  Uiso   1.00
C193   C     0.96565   0.06555   0.05732   0.00000  Uiso   1.00
C194   C     0.85963   0.54274   0.07327   0.00000  Uiso   1.00
C195   C     0.89816   0.45017   0.06628   0.00000  Uiso   1.00
C196   C     0.88961   0.39109   0.01094   0.00000  Uiso   1.00
C197   C     0.89445   0.26742   0.93003   0.00000  Uiso   1.00
C198   C     0.77730   0.67891   0.04407   0.00000  Uiso   1.00
C199   C     0.74406   0.65707   0.10774   0.00000  Uiso   1.00
C200   C     0.67647   0.66699   0.12061   0.00000  Uiso   1.00
C201   C     0.65592   0.64331   0.18185   0.00000  Uiso   1.00
C202   C     0.83100   0.76361   0.05668   0.00000  Uiso   1.00
C203   C     0.83652   0.86310   0.02660   0.00000  Uiso   1.00
C204   C     0.88917   0.92911   0.04484   0.00000  Uiso   1.00
C205   C     0.81418   0.57516   0.02663   0.00000  Uiso   1.00
C206   C     0.80558   0.51622   0.97128   0.00000  Uiso   1.00
C207   C     0.84408   0.42358   0.96421   0.00000  Uiso   1.00
H208   H     0.89636   0.59397   0.16625   0.00000  Uiso   1.00
H209   H     0.80423   0.57586   0.25170   0.00000  Uiso   1.00
H210   H     0.96426   0.77194   0.15770   0.00000  Uiso   1.00
H211   H     0.93332   0.42510   0.10239   0.00000  Uiso   1.00
H212   H     0.68205   0.57011   0.32588   0.00000  Uiso   1.00
H213   H     0.01950   0.98354   0.12765   0.00000  Uiso   1.00
H214   H     0.95426   0.25218   0.01101   0.00000  Uiso   1.00
H215   H     0.74192   0.70416   0.00775   0.00000  Uiso   1.00
H216   H     0.64131   0.69208   0.08451   0.00000  Uiso   1.00
H217   H     0.80135   0.88817   0.99051   0.00000  Uiso   1.00
H218   H     0.77041   0.54134   0.93519   0.00000  Uiso   1.00
H219   H     0.54982   0.66445   0.19018   0.00000  Uiso   1.00
H220   H     0.88728   0.07788   0.99195   0.00000  Uiso   1.00
H221   H     0.82203   0.34652   0.87531   0.00000  Uiso   1.00
O222   O     0.55255   0.60739   0.31139   0.00000  Uiso   1.00
O223   O     0.99527   0.14977   0.05131   0.00000  Uiso   1.00
O224   O     0.90967   0.19025   0.89829   0.00000  Uiso   1.00
N225   N     0.66474   0.59395   0.28341   0.00000  Uiso   1.00
N226   N     0.98023   0.98049   0.09808   0.00000  Uiso   1.00
N227   N     0.91924   0.29674   0.98903   0.00000  Uiso   1.00
N228   N     0.59359   0.64471   0.21039   0.00000  Uiso   1.00
N229   N     0.90907   0.03125   0.02506   0.00000  Uiso   1.00
N230   N     0.84809   0.34750   0.91601   0.00000  Uiso   1.00
C231   C     0.63903   0.88079   0.62994   0.00000  Uiso   1.00
C232   C     0.71050   0.87536   0.65439   0.00000  Uiso   1.00
C233   C     0.73096   0.89906   0.71562   0.00000  Uiso   1.00
C234   C     0.79855   0.88917   0.72858   0.00000  Uiso   1.00
C235   C     0.90261   0.88563   0.77364   0.00000  Uiso   1.00
C236   C     0.62355   0.76882   0.60332   0.00000  Uiso   1.00
C237   C     0.57090   0.70294   0.62161   0.00000  Uiso   1.00
C238   C     0.56531   0.60337   0.59157   0.00000  Uiso   1.00
C239   C     0.53435   0.43445   0.55732   0.00000  Uiso   1.00
C240   C     0.64037   0.95726   0.57327   0.00000  Uiso   1.00
C241   C     0.60184   0.04983   0.56628   0.00000  Uiso   1.00
C242   C     0.61039   0.10891   0.51094   0.00000  Uiso   1.00
C243   C     0.60555   0.23258   0.43003   0.00000  Uiso   1.00
C244   C     0.72270   0.82109   0.54407   0.00000  Uiso   1.00
C245   C     0.75594   0.84293   0.60774   0.00000  Uiso   1.00
C246   C     0.82353   0.83301   0.62061   0.00000  Uiso   1.00
C247   C     0.84408   0.85669   0.68185   0.00000  Uiso   1.00
C248   C     0.66900   0.73639   0.55668   0.00000  Uiso   1.00
C249   C     0.66348   0.63690   0.52660   0.00000  Uiso   1.00
C250   C     0.61083   0.57089   0.54484   0.00000  Uiso   1.00
C251   C     0.68582   0.92484   0.52663   0.00000  Uiso   1.00
C252   C     0.69442   0.98378   0.47128   0.00000  Uiso   1.00
C253   C     0.65592   0.07642   0.46421   0.00000  Uiso   1.00
H254   H     0.60364   0.90603   0.66625   0.00000  Uiso   1.00
H255   H     0.69577   0.92414   0.75170   0.00000  Uiso   1.00
H256   H     0.53574   0.72806   0.65770   0.00000  Uiso   1.00
H257   H     0.56668   0.07490   0.60239   0.00000  Uiso   1.00
H258   H     0.81795   0.92989   0.82588   0.00000  Uiso   1.00
H259   H     0.48050   0.51646   0.62765   0.00000  Uiso   1.00
H260   H     0.54574   0.24782   0.51101   0.00000  Uiso   1.00
H261   H     0.75808   0.79584   0.50775   0.00000  Uiso   1.00
H262   H     0.85869   0.80792   0.58451   0.00000  Uiso   1.00
H263   H     0.69865   0.61183   0.49051   0.00000  Uiso   1.00
H264   H     0.72959   0.95866   0.43519   0.00000  Uiso   1.00
H265   H     0.95018   0.83555   0.69018   0.00000  Uiso   1.00
H266   H     0.61272   0.42212   0.49195   0.00000  Uiso   1.00
H267   H     0.67797   0.15348   0.37531   0.00000  Uiso   1.00
O268   O     0.94745   0.89261   0.81139   0.00000  Uiso   1.00
O269   O     0.50473   0.35023   0.55131   0.00000  Uiso   1.00
O270   O     0.59033   0.30975   0.39829   0.00000  Uiso   1.00
N271   N     0.83526   0.90605   0.78341   0.00000  Uiso   1.00
N272   N     0.51977   0.51951   0.59808   0.00000  Uiso   1.00
N273   N     0.58076   0.20326   0.48903   0.00000  Uiso   1.00
N274   N     0.90641   0.85529   0.71039   0.00000  Uiso   1.00
N275   N     0.59093   0.46875   0.52506   0.00000  Uiso   1.00
N276   N     0.65191   0.15250   0.41601   0.00000  Uiso   1.00
C277   C     0.13903   0.61921   0.37006   0.00000  Uiso   1.00
C278   C     0.21050   0.62464   0.34561   0.00000  Uiso   1.00
C279   C     0.23096   0.60094   0.28438   0.00000  Uiso   1.00
C280   C     0.29855   0.61083   0.27142   0.00000  Uiso   1.00
C281   C     0.40261   0.61437   0.22636   0.00000  Uiso   1.00
C282   C     0.12355   0.73118   0.39668   0.00000  Uiso   1.00
C283   C     0.07090   0.79706   0.37839   0.00000  Uiso   1.00
C284   C     0.06531   0.89663   0.40843   0.00000  Uiso   1.00
C285   C     0.03435   0.06555   0.44268   0.00000  Uiso   1.00
C286   C     0.14037   0.54274   0.42673   0.00000  Uiso   1.00
C287   C     0.10184   0.45017   0.43372   0.00000  Uiso   1.00
C288   C     0.11039   0.39109   0.48906   0.00000  Uiso   1.00
C289   C     0.10555   0.26742   0.56997   0.00000  Uiso   1.00
C290   C     0.22270   0.67891   0.45593   0.00000  Uiso   1.00
C291   C     0.25594   0.65707   0.39226   0.00000  Uiso   1.00
C292   C     0.32353   0.66699   0.37939   0.00000  Uiso   1.00
C293   C     0.34408   0.64331   0.31815   0.00000  Uiso   1.00
C294   C     0.16900   0.76361   0.44332   0.00000  Uiso   1.00
C295   C     0.16348   0.86310   0.47340   0.00000  Uiso   1.00
C296   C     0.11083   0.92911   0.45516   0.00000  Uiso   1.00
C297   C     0.18582   0.57516   0.47337   0.00000  Uiso   1.00
C298   C     0.19442   0.51622   0.52872   0.00000  Uiso   1.00
C299   C     0.15592   0.42358   0.53579   0.00000  Uiso   1.00
H300   H     0.10364   0.59397   0.33375   0.00000  Uiso   1.00
H301   H     0.19577   0.57586   0.24830   0.00000  Uiso   1.00
H302   H     0.03574   0.77194   0.34230   0.00000  Uiso   1.00
H303   H     0.06668   0.42510   0.39761   0.00000  Uiso   1.00
H304   H     0.31795   0.57011   0.17412   0.00000  Uiso   1.00
H305   H     0.98050   0.98354   0.37235   0.00000  Uiso   1.00
H306   H     0.04574   0.25218   0.48899   0.00000  Uiso   1.00
H307   H     0.25808   0.70416   0.49225   0.00000  Uiso   1.00
H308   H     0.35869   0.69208   0.41549   0.00000  Uiso   1.00
H309   H     0.19865   0.88817   0.50949   0.00000  Uiso   1.00
H310   H     0.22959   0.54134   0.56481   0.00000  Uiso   1.00
H311   H     0.45018   0.66445   0.30982   0.00000  Uiso   1.00
H312   H     0.11272   0.07788   0.50805   0.00000  Uiso   1.00
H313   H     0.17797   0.34652   0.62469   0.00000  Uiso   1.00
O314   O     0.44745   0.60739   0.18861   0.00000  Uiso   1.00
O315   O     0.00473   0.14977   0.44869   0.00000  Uiso   1.00
O316   O     0.09033   0.19025   0.60171   0.00000  Uiso   1.00
N317   N     0.33526   0.59395   0.21659   0.00000  Uiso   1.00
N318   N     0.01977   0.98049   0.40192   0.00000  Uiso   1.00
N319   N     0.08076   0.29674   0.51097   0.00000  Uiso   1.00
N320   N     0.40641   0.64471   0.28961   0.00000  Uiso   1.00
N321   N     0.09093   0.03125   0.47494   0.00000  Uiso   1.00
N322   N     0.15191   0.34750   0.58399   0.00000  Uiso   1.00
C323   C     0.36097   0.88079   0.87006   0.00000  Uiso   1.00
C324   C     0.28950   0.87536   0.84561   0.00000  Uiso   1.00
C325   C     0.26904   0.89906   0.78438   0.00000  Uiso   1.00
C326   C     0.20145   0.88917   0.77142   0.00000  Uiso   1.00
C327   C     0.09739   0.88563   0.72636   0.00000  Uiso   1.00
C328   C     0.37645   0.76882   0.89668   0.00000  Uiso   1.00
C329   C     0.42910   0.70294   0.87839   0.00000  Uiso   1.00
C330   C     0.43469   0.60337   0.90843   0.00000  Uiso   1.00
C331   C     0.46565   0.43445   0.94268   0.00000  Uiso   1.00
C332   C     0.35963   0.95726   0.92673   0.00000  Uiso   1.00
C333   C     0.39816   0.04983   0.93372   0.00000  Uiso   1.00
C334   C     0.38961   0.10891   0.98906   0.00000  Uiso   1.00
C335   C     0.39445   0.23258   0.06997   0.00000  Uiso   1.00
C336   C     0.27730   0.82109   0.95593   0.00000  Uiso   1.00
C337   C     0.24406   0.84293   0.89226   0.00000  Uiso   1.00
C338   C     0.17647   0.83301   0.87939   0.00000  Uiso   1.00
C339   C     0.15592   0.85669   0.81815   0.00000  Uiso   1.00
C340   C     0.33100   0.73639   0.94332   0.00000  Uiso   1.00
C341   C     0.33652   0.63690   0.97340   0.00000  Uiso   1.00
C342   C     0.38917   0.57089   0.95516   0.00000  Uiso   1.00
C343   C     0.31418   0.92484   0.97337   0.00000  Uiso   1.00
C344   C     0.30558   0.98378   0.02872   0.00000  Uiso   1.00
C345   C     0.34408   0.07642   0.03579   0.00000  Uiso   1.00
H346   H     0.39636   0.90603   0.83375   0.00000  Uiso   1.00
H347   H     0.30423   0.92414   0.74830   0.00000  Uiso   1.00
H348   H     0.46426   0.72806   0.84230   0.00000  Uiso   1.00
H349   H     0.43332   0.07490   0.89761   0.00000  Uiso   1.00
H350   H     0.18205   0.92989   0.67412   0.00000  Uiso   1.00
H351   H     0.51950   0.51646   0.87235   0.00000  Uiso   1.00
H352   H     0.45426   0.24782   0.98899   0.00000  Uiso   1.00
H353   H     0.24192   0.79584   0.99225   0.00000  Uiso   1.00
H354   H     0.14131   0.80792   0.91549   0.00000  Uiso   1.00
H355   H     0.30135   0.61183   0.00949   0.00000  Uiso   1.00
H356   H     0.27041   0.95866   0.06481   0.00000  Uiso   1.00
H357   H     0.04982   0.83555   0.80982   0.00000  Uiso   1.00
H358   H     0.38728   0.42212   0.00805   0.00000  Uiso   1.00
H359   H     0.32203   0.15348   0.12469   0.00000  Uiso   1.00
O360   O     0.05255   0.89261   0.68861   0.00000  Uiso   1.00
O361   O     0.49527   0.35023   0.94869   0.00000  Uiso   1.00
O362   O     0.40967   0.30975   0.10171   0.00000  Uiso   1.00
N363   N     0.16474   0.90605   0.71659   0.00000  Uiso   1.00
N364   N     0.48023   0.51951   0.90192   0.00000  Uiso   1.00
N365   N     0.41924   0.20326   0.01097   0.00000  Uiso   1.00
N366   N     0.09359   0.85529   0.78961   0.00000  Uiso   1.00
N367   N     0.40907   0.46875   0.97494   0.00000  Uiso   1.00
N368   N     0.34809   0.15250   0.08399   0.00000  Uiso   1.00
