data_job_03641
_audit_creation_date              2018-12-19
_audit_creation_method            'Materials Studio'
_symmetry_space_group_name_H-M    'P1'
_symmetry_Int_Tables_number       1
_symmetry_cell_setting            triclinic
loop_
_symmetry_equiv_pos_as_xyz
  x,y,z
_cell_length_a                    45.8159
_cell_length_b                    7.3611
_cell_length_c                    22.8237
_cell_angle_alpha                 90.0000
_cell_angle_beta                  90.0000
_cell_angle_gamma                 90.0000
loop_
_atom_site_label
_atom_site_type_symbol
_atom_site_fract_x
_atom_site_fract_y
_atom_site_fract_z
_atom_site_U_iso_or_equiv
_atom_site_adp_type
_atom_site_occupancy
C1     C     0.88745   0.96526   0.02619   0.00000  Uiso   1.00
C2     C     0.86446   0.10971   0.03898   0.00000  Uiso   1.00
C3     C     0.83497   0.07784   0.04830   0.00000  Uiso   1.00
C4     C     0.81751   0.22819   0.05933   0.00000  Uiso   1.00
C5     C     0.78004   0.42575   0.07891   0.00000  Uiso   1.00
C6     C     0.90173   0.02035   0.96852   0.00000  Uiso   1.00
C7     C     0.90358   0.91333   0.91859   0.00000  Uiso   1.00
C8     C     0.91751   0.98845   0.87030   0.00000  Uiso   1.00
C9     C     0.93791   0.04721   0.78049   0.00000  Uiso   1.00
C10    C     0.91086   0.98756   0.07314   0.00000  Uiso   1.00
C11    C     0.92039   0.85295   0.11117   0.00000  Uiso   1.00
C12    C     0.94201   0.90046   0.15096   0.00000  Uiso   1.00
C13    C     0.97660   0.90831   0.22359   0.00000  Uiso   1.00
C14    C     0.90890   0.28895   0.02920   0.00000  Uiso   1.00
C15    C     0.87611   0.28553   0.04062   0.00000  Uiso   1.00
C16    C     0.85870   0.43597   0.05163   0.00000  Uiso   1.00
C17    C     0.82918   0.40432   0.06097   0.00000  Uiso   1.00
C18    C     0.91338   0.19616   0.97015   0.00000  Uiso   1.00
C19    C     0.92731   0.27145   0.92192   0.00000  Uiso   1.00
C20    C     0.92918   0.16458   0.87194   0.00000  Uiso   1.00
C21    C     0.92251   0.16337   0.07477   0.00000  Uiso   1.00
C22    C     0.94412   0.21109   0.11450   0.00000  Uiso   1.00
C23    C     0.95368   0.07659   0.15259   0.00000  Uiso   1.00
H24    H     0.87838   0.82838   0.02492   0.00000  Uiso   1.00
H25    H     0.82596   0.94176   0.04703   0.00000  Uiso   1.00
H26    H     0.89456   0.77727   0.91734   0.00000  Uiso   1.00
H27    H     0.91137   0.71692   0.10990   0.00000  Uiso   1.00
H28    H     0.77298   0.14500   0.07224   0.00000  Uiso   1.00
H29    H     0.91764   0.79814   0.79880   0.00000  Uiso   1.00
H30    H     0.95309   0.67086   0.20483   0.00000  Uiso   1.00
H31    H     0.91797   0.42584   0.03047   0.00000  Uiso   1.00
H32    H     0.86772   0.57201   0.05289   0.00000  Uiso   1.00
H33    H     0.93632   0.40751   0.92320   0.00000  Uiso   1.00
H34    H     0.95313   0.34716   0.11576   0.00000  Uiso   1.00
H35    H     0.80687   0.65653   0.07700   0.00000  Uiso   1.00
H36    H     0.95153   0.30966   0.80355   0.00000  Uiso   1.00
H37    H     0.98698   0.18239   0.20959   0.00000  Uiso   1.00
O38    O     0.75615   0.48615   0.08925   0.00000  Uiso   1.00
O39    O     0.94595   0.03106   0.73050   0.00000  Uiso   1.00
O40    O     0.99245   0.86408   0.26321   0.00000  Uiso   1.00
N41    N     0.78785   0.24533   0.07030   0.00000  Uiso   1.00
N42    N     0.92310   0.92104   0.81464   0.00000  Uiso   1.00
N43    N     0.95624   0.80204   0.19424   0.00000  Uiso   1.00
N44    N     0.80609   0.52058   0.07286   0.00000  Uiso   1.00
N45    N     0.94134   0.19629   0.81720   0.00000  Uiso   1.00
N46    N     0.97448   0.07729   0.19680   0.00000  Uiso   1.00
C47    C     0.61255   0.53474   0.02619   0.00000  Uiso   1.00
C48    C     0.63554   0.39029   0.03898   0.00000  Uiso   1.00
C49    C     0.66503   0.42216   0.04830   0.00000  Uiso   1.00
C50    C     0.68249   0.27181   0.05933   0.00000  Uiso   1.00
C51    C     0.71996   0.07425   0.07891   0.00000  Uiso   1.00
C52    C     0.59827   0.47965   0.96852   0.00000  Uiso   1.00
C53    C     0.59642   0.58667   0.91859   0.00000  Uiso   1.00
C54    C     0.58249   0.51155   0.87030   0.00000  Uiso   1.00
C55    C     0.56209   0.45279   0.78049   0.00000  Uiso   1.00
C56    C     0.58914   0.51244   0.07314   0.00000  Uiso   1.00
C57    C     0.57961   0.64705   0.11117   0.00000  Uiso   1.00
C58    C     0.55799   0.59954   0.15096   0.00000  Uiso   1.00
C59    C     0.52340   0.59169   0.22359   0.00000  Uiso   1.00
C60    C     0.59110   0.21105   0.02920   0.00000  Uiso   1.00
C61    C     0.62389   0.21447   0.04062   0.00000  Uiso   1.00
C62    C     0.64130   0.06403   0.05163   0.00000  Uiso   1.00
C63    C     0.67082   0.09568   0.06097   0.00000  Uiso   1.00
C64    C     0.58662   0.30384   0.97015   0.00000  Uiso   1.00
C65    C     0.57269   0.22855   0.92192   0.00000  Uiso   1.00
C66    C     0.57082   0.33542   0.87194   0.00000  Uiso   1.00
C67    C     0.57749   0.33663   0.07477   0.00000  Uiso   1.00
C68    C     0.55588   0.28891   0.11450   0.00000  Uiso   1.00
C69    C     0.54632   0.42341   0.15259   0.00000  Uiso   1.00
H70    H     0.62162   0.67162   0.02492   0.00000  Uiso   1.00
H71    H     0.67404   0.55824   0.04703   0.00000  Uiso   1.00
H72    H     0.60544   0.72273   0.91734   0.00000  Uiso   1.00
H73    H     0.58863   0.78308   0.10990   0.00000  Uiso   1.00
H74    H     0.72702   0.35500   0.07224   0.00000  Uiso   1.00
H75    H     0.58236   0.70186   0.79880   0.00000  Uiso   1.00
H76    H     0.54691   0.82914   0.20483   0.00000  Uiso   1.00
H77    H     0.58203   0.07416   0.03047   0.00000  Uiso   1.00
H78    H     0.63228   0.92799   0.05289   0.00000  Uiso   1.00
H79    H     0.56368   0.09249   0.92320   0.00000  Uiso   1.00
H80    H     0.54687   0.15284   0.11576   0.00000  Uiso   1.00
H81    H     0.69313   0.84347   0.07700   0.00000  Uiso   1.00
H82    H     0.54847   0.19034   0.80355   0.00000  Uiso   1.00
H83    H     0.51302   0.31761   0.20959   0.00000  Uiso   1.00
O84    O     0.74385   0.01385   0.08925   0.00000  Uiso   1.00
O85    O     0.55405   0.46894   0.73050   0.00000  Uiso   1.00
O86    O     0.50755   0.63592   0.26321   0.00000  Uiso   1.00
N87    N     0.71215   0.25467   0.07030   0.00000  Uiso   1.00
N88    N     0.57690   0.57896   0.81464   0.00000  Uiso   1.00
N89    N     0.54376   0.69796   0.19424   0.00000  Uiso   1.00
N90    N     0.69391   0.97942   0.07286   0.00000  Uiso   1.00
N91    N     0.55866   0.30371   0.81720   0.00000  Uiso   1.00
N92    N     0.52552   0.42271   0.19680   0.00000  Uiso   1.00
C93    C     0.11255   0.46526   0.47381   0.00000  Uiso   1.00
C94    C     0.13554   0.60971   0.46102   0.00000  Uiso   1.00
C95    C     0.16503   0.57784   0.45170   0.00000  Uiso   1.00
C96    C     0.18249   0.72819   0.44067   0.00000  Uiso   1.00
C97    C     0.21996   0.92575   0.42109   0.00000  Uiso   1.00
C98    C     0.09827   0.52035   0.53148   0.00000  Uiso   1.00
C99    C     0.09642   0.41333   0.58141   0.00000  Uiso   1.00
C100   C     0.08249   0.48845   0.62970   0.00000  Uiso   1.00
C101   C     0.06209   0.54721   0.71951   0.00000  Uiso   1.00
C102   C     0.08914   0.48756   0.42686   0.00000  Uiso   1.00
C103   C     0.07961   0.35295   0.38883   0.00000  Uiso   1.00
C104   C     0.05799   0.40046   0.34904   0.00000  Uiso   1.00
C105   C     0.02340   0.40831   0.27641   0.00000  Uiso   1.00
C106   C     0.09110   0.78895   0.47080   0.00000  Uiso   1.00
C107   C     0.12389   0.78553   0.45938   0.00000  Uiso   1.00
C108   C     0.14130   0.93597   0.44837   0.00000  Uiso   1.00
C109   C     0.17082   0.90432   0.43903   0.00000  Uiso   1.00
C110   C     0.08662   0.69616   0.52985   0.00000  Uiso   1.00
C111   C     0.07269   0.77145   0.57808   0.00000  Uiso   1.00
C112   C     0.07082   0.66458   0.62806   0.00000  Uiso   1.00
C113   C     0.07749   0.66337   0.42523   0.00000  Uiso   1.00
C114   C     0.05588   0.71109   0.38550   0.00000  Uiso   1.00
C115   C     0.04632   0.57659   0.34741   0.00000  Uiso   1.00
H116   H     0.12162   0.32838   0.47508   0.00000  Uiso   1.00
H117   H     0.17404   0.44176   0.45297   0.00000  Uiso   1.00
H118   H     0.10544   0.27727   0.58266   0.00000  Uiso   1.00
H119   H     0.08863   0.21692   0.39010   0.00000  Uiso   1.00
H120   H     0.22702   0.64500   0.42776   0.00000  Uiso   1.00
H121   H     0.08236   0.29814   0.70120   0.00000  Uiso   1.00
H122   H     0.04691   0.17086   0.29517   0.00000  Uiso   1.00
H123   H     0.08203   0.92584   0.46953   0.00000  Uiso   1.00
H124   H     0.13228   0.07201   0.44711   0.00000  Uiso   1.00
H125   H     0.06368   0.90751   0.57680   0.00000  Uiso   1.00
H126   H     0.04687   0.84716   0.38424   0.00000  Uiso   1.00
H127   H     0.19313   0.15653   0.42300   0.00000  Uiso   1.00
H128   H     0.04847   0.80966   0.69645   0.00000  Uiso   1.00
H129   H     0.01302   0.68239   0.29041   0.00000  Uiso   1.00
O130   O     0.24385   0.98615   0.41075   0.00000  Uiso   1.00
O131   O     0.05405   0.53106   0.76950   0.00000  Uiso   1.00
O132   O     0.00755   0.36408   0.23679   0.00000  Uiso   1.00
N133   N     0.21215   0.74533   0.42970   0.00000  Uiso   1.00
N134   N     0.07690   0.42104   0.68536   0.00000  Uiso   1.00
N135   N     0.04376   0.30204   0.30576   0.00000  Uiso   1.00
N136   N     0.19391   0.02058   0.42714   0.00000  Uiso   1.00
N137   N     0.05866   0.69629   0.68280   0.00000  Uiso   1.00
N138   N     0.02552   0.57729   0.30320   0.00000  Uiso   1.00
C139   C     0.38745   0.03474   0.47381   0.00000  Uiso   1.00
C140   C     0.36446   0.89029   0.46102   0.00000  Uiso   1.00
C141   C     0.33497   0.92216   0.45170   0.00000  Uiso   1.00
C142   C     0.31751   0.77181   0.44067   0.00000  Uiso   1.00
C143   C     0.28004   0.57425   0.42109   0.00000  Uiso   1.00
C144   C     0.40173   0.97965   0.53148   0.00000  Uiso   1.00
C145   C     0.40358   0.08667   0.58141   0.00000  Uiso   1.00
C146   C     0.41751   0.01155   0.62970   0.00000  Uiso   1.00
C147   C     0.43791   0.95279   0.71951   0.00000  Uiso   1.00
C148   C     0.41086   0.01244   0.42686   0.00000  Uiso   1.00
C149   C     0.42039   0.14705   0.38883   0.00000  Uiso   1.00
C150   C     0.44201   0.09954   0.34904   0.00000  Uiso   1.00
C151   C     0.47660   0.09169   0.27641   0.00000  Uiso   1.00
C152   C     0.40890   0.71105   0.47080   0.00000  Uiso   1.00
C153   C     0.37611   0.71447   0.45938   0.00000  Uiso   1.00
C154   C     0.35870   0.56403   0.44837   0.00000  Uiso   1.00
C155   C     0.32918   0.59568   0.43903   0.00000  Uiso   1.00
C156   C     0.41338   0.80384   0.52985   0.00000  Uiso   1.00
C157   C     0.42731   0.72855   0.57808   0.00000  Uiso   1.00
C158   C     0.42918   0.83542   0.62806   0.00000  Uiso   1.00
C159   C     0.42251   0.83663   0.42523   0.00000  Uiso   1.00
C160   C     0.44412   0.78891   0.38550   0.00000  Uiso   1.00
C161   C     0.45368   0.92341   0.34741   0.00000  Uiso   1.00
H162   H     0.37838   0.17162   0.47508   0.00000  Uiso   1.00
H163   H     0.32596   0.05824   0.45297   0.00000  Uiso   1.00
H164   H     0.39456   0.22273   0.58266   0.00000  Uiso   1.00
H165   H     0.41137   0.28308   0.39010   0.00000  Uiso   1.00
H166   H     0.27298   0.85500   0.42776   0.00000  Uiso   1.00
H167   H     0.41764   0.20186   0.70120   0.00000  Uiso   1.00
H168   H     0.45309   0.32914   0.29517   0.00000  Uiso   1.00
H169   H     0.41797   0.57416   0.46953   0.00000  Uiso   1.00
H170   H     0.36772   0.42799   0.44711   0.00000  Uiso   1.00
H171   H     0.43632   0.59249   0.57680   0.00000  Uiso   1.00
H172   H     0.45313   0.65284   0.38424   0.00000  Uiso   1.00
H173   H     0.30687   0.34347   0.42300   0.00000  Uiso   1.00
H174   H     0.45153   0.69034   0.69645   0.00000  Uiso   1.00
H175   H     0.48698   0.81761   0.29041   0.00000  Uiso   1.00
O176   O     0.25615   0.51385   0.41075   0.00000  Uiso   1.00
O177   O     0.44595   0.96894   0.76950   0.00000  Uiso   1.00
O178   O     0.49245   0.13592   0.23679   0.00000  Uiso   1.00
N179   N     0.28785   0.75467   0.42970   0.00000  Uiso   1.00
N180   N     0.42310   0.07896   0.68536   0.00000  Uiso   1.00
N181   N     0.45624   0.19796   0.30576   0.00000  Uiso   1.00
N182   N     0.30609   0.47942   0.42714   0.00000  Uiso   1.00
N183   N     0.44134   0.80371   0.68280   0.00000  Uiso   1.00
N184   N     0.47448   0.92271   0.30320   0.00000  Uiso   1.00
C185   C     0.11255   0.03474   0.97381   0.00000  Uiso   1.00
C186   C     0.13554   0.89029   0.96102   0.00000  Uiso   1.00
C187   C     0.16503   0.92216   0.95170   0.00000  Uiso   1.00
C188   C     0.18249   0.77181   0.94067   0.00000  Uiso   1.00
C189   C     0.21996   0.57425   0.92109   0.00000  Uiso   1.00
C190   C     0.09827   0.97965   0.03148   0.00000  Uiso   1.00
C191   C     0.09642   0.08667   0.08141   0.00000  Uiso   1.00
C192   C     0.08249   0.01155   0.12970   0.00000  Uiso   1.00
C193   C     0.06209   0.95279   0.21951   0.00000  Uiso   1.00
C194   C     0.08914   0.01244   0.92686   0.00000  Uiso   1.00
C195   C     0.07961   0.14705   0.88883   0.00000  Uiso   1.00
C196   C     0.05799   0.09954   0.84904   0.00000  Uiso   1.00
C197   C     0.02340   0.09169   0.77641   0.00000  Uiso   1.00
C198   C     0.09110   0.71105   0.97080   0.00000  Uiso   1.00
C199   C     0.12389   0.71447   0.95938   0.00000  Uiso   1.00
C200   C     0.14130   0.56403   0.94837   0.00000  Uiso   1.00
C201   C     0.17082   0.59568   0.93903   0.00000  Uiso   1.00
C202   C     0.08662   0.80384   0.02985   0.00000  Uiso   1.00
C203   C     0.07269   0.72855   0.07808   0.00000  Uiso   1.00
C204   C     0.07082   0.83542   0.12806   0.00000  Uiso   1.00
C205   C     0.07749   0.83663   0.92523   0.00000  Uiso   1.00
C206   C     0.05588   0.78891   0.88550   0.00000  Uiso   1.00
C207   C     0.04632   0.92341   0.84741   0.00000  Uiso   1.00
H208   H     0.12162   0.17162   0.97508   0.00000  Uiso   1.00
H209   H     0.17404   0.05824   0.95297   0.00000  Uiso   1.00
H210   H     0.10544   0.22273   0.08266   0.00000  Uiso   1.00
H211   H     0.08863   0.28308   0.89010   0.00000  Uiso   1.00
H212   H     0.22702   0.85500   0.92776   0.00000  Uiso   1.00
H213   H     0.08236   0.20186   0.20120   0.00000  Uiso   1.00
H214   H     0.04691   0.32914   0.79517   0.00000  Uiso   1.00
H215   H     0.08203   0.57416   0.96953   0.00000  Uiso   1.00
H216   H     0.13228   0.42799   0.94711   0.00000  Uiso   1.00
H217   H     0.06368   0.59249   0.07680   0.00000  Uiso   1.00
H218   H     0.04687   0.65284   0.88424   0.00000  Uiso   1.00
H219   H     0.19313   0.34347   0.92300   0.00000  Uiso   1.00
H220   H     0.04847   0.69034   0.19645   0.00000  Uiso   1.00
H221   H     0.01302   0.81761   0.79041   0.00000  Uiso   1.00
O222   O     0.24385   0.51385   0.91075   0.00000  Uiso   1.00
O223   O     0.05405   0.96894   0.26950   0.00000  Uiso   1.00
O224   O     0.00755   0.13592   0.73679   0.00000  Uiso   1.00
N225   N     0.21215   0.75467   0.92970   0.00000  Uiso   1.00
N226   N     0.07690   0.07896   0.18536   0.00000  Uiso   1.00
N227   N     0.04376   0.19796   0.80576   0.00000  Uiso   1.00
N228   N     0.19391   0.47942   0.92714   0.00000  Uiso   1.00
N229   N     0.05866   0.80371   0.18280   0.00000  Uiso   1.00
N230   N     0.02552   0.92271   0.80320   0.00000  Uiso   1.00
C231   C     0.38745   0.46526   0.97381   0.00000  Uiso   1.00
C232   C     0.36446   0.60971   0.96102   0.00000  Uiso   1.00
C233   C     0.33497   0.57784   0.95170   0.00000  Uiso   1.00
C234   C     0.31751   0.72819   0.94067   0.00000  Uiso   1.00
C235   C     0.28004   0.92575   0.92109   0.00000  Uiso   1.00
C236   C     0.40173   0.52035   0.03148   0.00000  Uiso   1.00
C237   C     0.40358   0.41333   0.08141   0.00000  Uiso   1.00
C238   C     0.41751   0.48845   0.12970   0.00000  Uiso   1.00
C239   C     0.43791   0.54721   0.21951   0.00000  Uiso   1.00
C240   C     0.41086   0.48756   0.92686   0.00000  Uiso   1.00
C241   C     0.42039   0.35295   0.88883   0.00000  Uiso   1.00
C242   C     0.44201   0.40046   0.84904   0.00000  Uiso   1.00
C243   C     0.47660   0.40831   0.77641   0.00000  Uiso   1.00
C244   C     0.40890   0.78895   0.97080   0.00000  Uiso   1.00
C245   C     0.37611   0.78553   0.95938   0.00000  Uiso   1.00
C246   C     0.35870   0.93597   0.94837   0.00000  Uiso   1.00
C247   C     0.32918   0.90432   0.93903   0.00000  Uiso   1.00
C248   C     0.41338   0.69616   0.02985   0.00000  Uiso   1.00
C249   C     0.42731   0.77145   0.07808   0.00000  Uiso   1.00
C250   C     0.42918   0.66458   0.12806   0.00000  Uiso   1.00
C251   C     0.42251   0.66337   0.92523   0.00000  Uiso   1.00
C252   C     0.44412   0.71109   0.88550   0.00000  Uiso   1.00
C253   C     0.45368   0.57659   0.84741   0.00000  Uiso   1.00
H254   H     0.37838   0.32838   0.97508   0.00000  Uiso   1.00
H255   H     0.32596   0.44176   0.95297   0.00000  Uiso   1.00
H256   H     0.39456   0.27727   0.08266   0.00000  Uiso   1.00
H257   H     0.41137   0.21692   0.89010   0.00000  Uiso   1.00
H258   H     0.27298   0.64500   0.92776   0.00000  Uiso   1.00
H259   H     0.41764   0.29814   0.20120   0.00000  Uiso   1.00
H260   H     0.45309   0.17086   0.79517   0.00000  Uiso   1.00
H261   H     0.41797   0.92584   0.96953   0.00000  Uiso   1.00
H262   H     0.36772   0.07201   0.94711   0.00000  Uiso   1.00
H263   H     0.43632   0.90751   0.07680   0.00000  Uiso   1.00
H264   H     0.45313   0.84716   0.88424   0.00000  Uiso   1.00
H265   H     0.30687   0.15653   0.92300   0.00000  Uiso   1.00
H266   H     0.45153   0.80966   0.19645   0.00000  Uiso   1.00
H267   H     0.48698   0.68239   0.79041   0.00000  Uiso   1.00
O268   O     0.25615   0.98615   0.91075   0.00000  Uiso   1.00
O269   O     0.44595   0.53106   0.26950   0.00000  Uiso   1.00
O270   O     0.49245   0.36408   0.73679   0.00000  Uiso   1.00
N271   N     0.28785   0.74533   0.92970   0.00000  Uiso   1.00
N272   N     0.42310   0.42104   0.18536   0.00000  Uiso   1.00
N273   N     0.45624   0.30204   0.80576   0.00000  Uiso   1.00
N274   N     0.30609   0.02058   0.92714   0.00000  Uiso   1.00
N275   N     0.44134   0.69629   0.18280   0.00000  Uiso   1.00
N276   N     0.47448   0.57729   0.80320   0.00000  Uiso   1.00
C277   C     0.88745   0.53474   0.52619   0.00000  Uiso   1.00
C278   C     0.86446   0.39029   0.53898   0.00000  Uiso   1.00
C279   C     0.83497   0.42216   0.54830   0.00000  Uiso   1.00
C280   C     0.81751   0.27181   0.55933   0.00000  Uiso   1.00
C281   C     0.78004   0.07425   0.57891   0.00000  Uiso   1.00
C282   C     0.90173   0.47965   0.46852   0.00000  Uiso   1.00
C283   C     0.90358   0.58667   0.41859   0.00000  Uiso   1.00
C284   C     0.91751   0.51155   0.37030   0.00000  Uiso   1.00
C285   C     0.93791   0.45279   0.28049   0.00000  Uiso   1.00
C286   C     0.91086   0.51244   0.57314   0.00000  Uiso   1.00
C287   C     0.92039   0.64705   0.61117   0.00000  Uiso   1.00
C288   C     0.94201   0.59954   0.65096   0.00000  Uiso   1.00
C289   C     0.97660   0.59169   0.72359   0.00000  Uiso   1.00
C290   C     0.90890   0.21105   0.52920   0.00000  Uiso   1.00
C291   C     0.87611   0.21447   0.54062   0.00000  Uiso   1.00
C292   C     0.85870   0.06403   0.55163   0.00000  Uiso   1.00
C293   C     0.82918   0.09568   0.56097   0.00000  Uiso   1.00
C294   C     0.91338   0.30384   0.47015   0.00000  Uiso   1.00
C295   C     0.92731   0.22855   0.42192   0.00000  Uiso   1.00
C296   C     0.92918   0.33542   0.37194   0.00000  Uiso   1.00
C297   C     0.92251   0.33663   0.57477   0.00000  Uiso   1.00
C298   C     0.94412   0.28891   0.61450   0.00000  Uiso   1.00
C299   C     0.95368   0.42341   0.65259   0.00000  Uiso   1.00
H300   H     0.87838   0.67162   0.52492   0.00000  Uiso   1.00
H301   H     0.82596   0.55824   0.54703   0.00000  Uiso   1.00
H302   H     0.89456   0.72273   0.41734   0.00000  Uiso   1.00
H303   H     0.91137   0.78308   0.60990   0.00000  Uiso   1.00
H304   H     0.77298   0.35500   0.57224   0.00000  Uiso   1.00
H305   H     0.91764   0.70186   0.29880   0.00000  Uiso   1.00
H306   H     0.95309   0.82914   0.70483   0.00000  Uiso   1.00
H307   H     0.91797   0.07416   0.53047   0.00000  Uiso   1.00
H308   H     0.86772   0.92799   0.55289   0.00000  Uiso   1.00
H309   H     0.93632   0.09249   0.42320   0.00000  Uiso   1.00
H310   H     0.95313   0.15284   0.61576   0.00000  Uiso   1.00
H311   H     0.80687   0.84347   0.57700   0.00000  Uiso   1.00
H312   H     0.95153   0.19034   0.30355   0.00000  Uiso   1.00
H313   H     0.98698   0.31761   0.70959   0.00000  Uiso   1.00
O314   O     0.75615   0.01385   0.58925   0.00000  Uiso   1.00
O315   O     0.94595   0.46894   0.23050   0.00000  Uiso   1.00
O316   O     0.99245   0.63592   0.76321   0.00000  Uiso   1.00
N317   N     0.78785   0.25467   0.57030   0.00000  Uiso   1.00
N318   N     0.92310   0.57896   0.31464   0.00000  Uiso   1.00
N319   N     0.95624   0.69796   0.69424   0.00000  Uiso   1.00
N320   N     0.80609   0.97942   0.57286   0.00000  Uiso   1.00
N321   N     0.94134   0.30371   0.31720   0.00000  Uiso   1.00
N322   N     0.97448   0.42271   0.69680   0.00000  Uiso   1.00
C323   C     0.61255   0.96526   0.52619   0.00000  Uiso   1.00
C324   C     0.63554   0.10971   0.53898   0.00000  Uiso   1.00
C325   C     0.66503   0.07784   0.54830   0.00000  Uiso   1.00
C326   C     0.68249   0.22819   0.55933   0.00000  Uiso   1.00
C327   C     0.71996   0.42575   0.57891   0.00000  Uiso   1.00
C328   C     0.59827   0.02035   0.46852   0.00000  Uiso   1.00
C329   C     0.59642   0.91333   0.41859   0.00000  Uiso   1.00
C330   C     0.58249   0.98845   0.37030   0.00000  Uiso   1.00
C331   C     0.56209   0.04721   0.28049   0.00000  Uiso   1.00
C332   C     0.58914   0.98756   0.57314   0.00000  Uiso   1.00
C333   C     0.57961   0.85295   0.61117   0.00000  Uiso   1.00
C334   C     0.55799   0.90046   0.65096   0.00000  Uiso   1.00
C335   C     0.52340   0.90831   0.72359   0.00000  Uiso   1.00
C336   C     0.59110   0.28895   0.52920   0.00000  Uiso   1.00
C337   C     0.62389   0.28553   0.54062   0.00000  Uiso   1.00
C338   C     0.64130   0.43597   0.55163   0.00000  Uiso   1.00
C339   C     0.67082   0.40432   0.56097   0.00000  Uiso   1.00
C340   C     0.58662   0.19616   0.47015   0.00000  Uiso   1.00
C341   C     0.57269   0.27145   0.42192   0.00000  Uiso   1.00
C342   C     0.57082   0.16458   0.37194   0.00000  Uiso   1.00
C343   C     0.57749   0.16337   0.57477   0.00000  Uiso   1.00
C344   C     0.55588   0.21109   0.61450   0.00000  Uiso   1.00
C345   C     0.54632   0.07659   0.65259   0.00000  Uiso   1.00
H346   H     0.62162   0.82838   0.52492   0.00000  Uiso   1.00
H347   H     0.67404   0.94176   0.54703   0.00000  Uiso   1.00
H348   H     0.60544   0.77727   0.41734   0.00000  Uiso   1.00
H349   H     0.58863   0.71692   0.60990   0.00000  Uiso   1.00
H350   H     0.72702   0.14500   0.57224   0.00000  Uiso   1.00
H351   H     0.58236   0.79814   0.29880   0.00000  Uiso   1.00
H352   H     0.54691   0.67086   0.70483   0.00000  Uiso   1.00
H353   H     0.58203   0.42584   0.53047   0.00000  Uiso   1.00
H354   H     0.63228   0.57201   0.55289   0.00000  Uiso   1.00
H355   H     0.56368   0.40751   0.42320   0.00000  Uiso   1.00
H356   H     0.54687   0.34716   0.61576   0.00000  Uiso   1.00
H357   H     0.69313   0.65653   0.57700   0.00000  Uiso   1.00
H358   H     0.54847   0.30966   0.30355   0.00000  Uiso   1.00
H359   H     0.51302   0.18239   0.70959   0.00000  Uiso   1.00
O360   O     0.74385   0.48615   0.58925   0.00000  Uiso   1.00
O361   O     0.55405   0.03106   0.23050   0.00000  Uiso   1.00
O362   O     0.50755   0.86408   0.76321   0.00000  Uiso   1.00
N363   N     0.71215   0.24533   0.57030   0.00000  Uiso   1.00
N364   N     0.57690   0.92104   0.31464   0.00000  Uiso   1.00
N365   N     0.54376   0.80204   0.69424   0.00000  Uiso   1.00
N366   N     0.69391   0.52058   0.57286   0.00000  Uiso   1.00
N367   N     0.55866   0.19629   0.31720   0.00000  Uiso   1.00
N368   N     0.52552   0.07729   0.69680   0.00000  Uiso   1.00
