data_job_01822
_audit_creation_date              2018-12-19
_audit_creation_method            'Materials Studio'
_symmetry_space_group_name_H-M    'P1'
_symmetry_Int_Tables_number       1
_symmetry_cell_setting            triclinic
loop_
_symmetry_equiv_pos_as_xyz
  x,y,z
_cell_length_a                    12.3370
_cell_length_b                    12.3370
_cell_length_c                    28.6072
_cell_angle_alpha                 90.0000
_cell_angle_beta                  90.0000
_cell_angle_gamma                 120.0000
loop_
_atom_site_label
_atom_site_type_symbol
_atom_site_fract_x
_atom_site_fract_y
_atom_site_fract_z
_atom_site_U_iso_or_equiv
_atom_site_adp_type
_atom_site_occupancy
C1     C     0.24296   0.37454   0.52646   0.00000  Uiso   1.00
C2     C     0.27490   0.28525   0.55173   0.00000  Uiso   1.00
C3     C     0.38363   0.27961   0.54584   0.00000  Uiso   1.00
C4     C     0.39516   0.19140   0.57220   0.00000  Uiso   1.00
C5     C     0.45901   0.06483   0.60669   0.00000  Uiso   1.00
C6     C     0.11774   0.29235   0.50232   0.00000  Uiso   1.00
C7     C     0.09432   0.29270   0.45488   0.00000  Uiso   1.00
C8     C     0.97354   0.21049   0.43964   0.00000  Uiso   1.00
C9     C     0.79337   0.09501   0.39742   0.00000  Uiso   1.00
C10    C     0.21777   0.44553   0.56459   0.00000  Uiso   1.00
C11    C     0.27844   0.57468   0.56950   0.00000  Uiso   1.00
C12    C     0.24187   0.62143   0.60668   0.00000  Uiso   1.00
C13    C     0.21702   0.74379   0.66114   0.00000  Uiso   1.00
C14    C     0.07009   0.22792   0.58374   0.00000  Uiso   1.00
C15    C     0.18100   0.20561   0.58284   0.00000  Uiso   1.00
C16    C     0.19237   0.11739   0.60922   0.00000  Uiso   1.00
C17    C     0.30110   0.11162   0.60337   0.00000  Uiso   1.00
C18    C     0.02384   0.21271   0.53343   0.00000  Uiso   1.00
C19    C     0.90306   0.13049   0.51826   0.00000  Uiso   1.00
C20    C     0.87948   0.13070   0.47081   0.00000  Uiso   1.00
C21    C     0.12388   0.36589   0.59570   0.00000  Uiso   1.00
C22    C     0.08719   0.41246   0.63288   0.00000  Uiso   1.00
C23    C     0.14780   0.54165   0.63785   0.00000  Uiso   1.00
H24    H     0.31606   0.43654   0.50224   0.00000  Uiso   1.00
H25    H     0.45627   0.34125   0.52176   0.00000  Uiso   1.00
H26    H     0.16700   0.35435   0.43082   0.00000  Uiso   1.00
H27    H     0.35110   0.63628   0.54542   0.00000  Uiso   1.00
H28    H     0.57029   0.20045   0.55711   0.00000  Uiso   1.00
H29    H     0.96035   0.22811   0.36535   0.00000  Uiso   1.00
H30    H     0.34855   0.82261   0.60701   0.00000  Uiso   1.00
H31    H     0.99698   0.16591   0.60797   0.00000  Uiso   1.00
H32    H     0.11969   0.05577   0.63329   0.00000  Uiso   1.00
H33    H     0.83042   0.06888   0.54234   0.00000  Uiso   1.00
H34    H     0.01452   0.35080   0.65695   0.00000  Uiso   1.00
H35    H     0.29711   0.96874   0.64763   0.00000  Uiso   1.00
H36    H     0.68716   0.99641   0.45587   0.00000  Uiso   1.00
H37    H     0.07537   0.59090   0.69753   0.00000  Uiso   1.00
O38    O     0.52016   0.01700   0.61711   0.00000  Uiso   1.00
O39    O     0.71994   0.05331   0.36553   0.00000  Uiso   1.00
O40    O     0.22926   0.83327   0.68258   0.00000  Uiso   1.00
N41    N     0.48917   0.16105   0.57495   0.00000  Uiso   1.00
N42    N     0.91891   0.18689   0.39566   0.00000  Uiso   1.00
N43    N     0.28183   0.74271   0.62159   0.00000  Uiso   1.00
N44    N     0.34218   0.03637   0.62365   0.00000  Uiso   1.00
N45    N     0.77192   0.06222   0.44437   0.00000  Uiso   1.00
N46    N     0.13483   0.61803   0.67029   0.00000  Uiso   1.00
C47    C     0.62546   0.86842   0.85980   0.00000  Uiso   1.00
C48    C     0.71475   0.98966   0.88507   0.00000  Uiso   1.00
C49    C     0.72039   0.10402   0.87918   0.00000  Uiso   1.00
C50    C     0.80860   0.20376   0.90553   0.00000  Uiso   1.00
C51    C     0.93517   0.39419   0.94002   0.00000  Uiso   1.00
C52    C     0.70765   0.82539   0.83565   0.00000  Uiso   1.00
C53    C     0.70730   0.80162   0.78822   0.00000  Uiso   1.00
C54    C     0.78951   0.76306   0.77298   0.00000  Uiso   1.00
C55    C     0.90499   0.69836   0.73075   0.00000  Uiso   1.00
C56    C     0.55447   0.77224   0.89792   0.00000  Uiso   1.00
C57    C     0.42532   0.70377   0.90284   0.00000  Uiso   1.00
C58    C     0.37857   0.62044   0.94002   0.00000  Uiso   1.00
C59    C     0.25621   0.47323   0.99447   0.00000  Uiso   1.00
C60    C     0.77208   0.84217   0.91708   0.00000  Uiso   1.00
C61    C     0.79439   0.97539   0.91618   0.00000  Uiso   1.00
C62    C     0.88261   0.07498   0.94255   0.00000  Uiso   1.00
C63    C     0.88838   0.18948   0.93670   0.00000  Uiso   1.00
C64    C     0.78729   0.81113   0.86676   0.00000  Uiso   1.00
C65    C     0.86951   0.77258   0.85159   0.00000  Uiso   1.00
C66    C     0.86930   0.74877   0.80415   0.00000  Uiso   1.00
C67    C     0.63411   0.75798   0.92903   0.00000  Uiso   1.00
C68    C     0.58754   0.67473   0.96621   0.00000  Uiso   1.00
C69    C     0.45835   0.60615   0.97118   0.00000  Uiso   1.00
H70    H     0.56346   0.87952   0.83557   0.00000  Uiso   1.00
H71    H     0.65875   0.11502   0.85509   0.00000  Uiso   1.00
H72    H     0.64565   0.81265   0.76415   0.00000  Uiso   1.00
H73    H     0.36372   0.71483   0.87875   0.00000  Uiso   1.00
H74    H     0.79955   0.36984   0.89044   0.00000  Uiso   1.00
H75    H     0.77189   0.73224   0.69869   0.00000  Uiso   1.00
H76    H     0.17739   0.52594   0.94035   0.00000  Uiso   1.00
H77    H     0.83409   0.83107   0.94130   0.00000  Uiso   1.00
H78    H     0.94423   0.06392   0.96662   0.00000  Uiso   1.00
H79    H     0.93112   0.76155   0.87568   0.00000  Uiso   1.00
H80    H     0.64920   0.66372   0.99028   0.00000  Uiso   1.00
H81    H     0.03126   0.32837   0.98096   0.00000  Uiso   1.00
H82    H     0.00359   0.69076   0.78921   0.00000  Uiso   1.00
H83    H     0.40910   0.48447   0.03087   0.00000  Uiso   1.00
O84    O     0.98300   0.50316   0.95044   0.00000  Uiso   1.00
O85    O     0.94669   0.66663   0.69887   0.00000  Uiso   1.00
O86    O     0.16673   0.39598   0.01592   0.00000  Uiso   1.00
N87    N     0.83895   0.32812   0.90828   0.00000  Uiso   1.00
N88    N     0.81311   0.73202   0.72900   0.00000  Uiso   1.00
N89    N     0.25729   0.53913   0.95492   0.00000  Uiso   1.00
N90    N     0.96363   0.30580   0.95699   0.00000  Uiso   1.00
N91    N     0.93778   0.70970   0.77770   0.00000  Uiso   1.00
N92    N     0.38197   0.51681   0.00363   0.00000  Uiso   1.00
C93    C     0.13158   0.75704   0.19313   0.00000  Uiso   1.00
C94    C     0.01034   0.72510   0.21840   0.00000  Uiso   1.00
C95    C     0.89598   0.61637   0.21251   0.00000  Uiso   1.00
C96    C     0.79624   0.60484   0.23887   0.00000  Uiso   1.00
C97    C     0.60581   0.54099   0.27335   0.00000  Uiso   1.00
C98    C     0.17461   0.88226   0.16899   0.00000  Uiso   1.00
C99    C     0.19838   0.90568   0.12155   0.00000  Uiso   1.00
C100   C     0.23694   0.02646   0.10631   0.00000  Uiso   1.00
C101   C     0.30164   0.20663   0.06409   0.00000  Uiso   1.00
C102   C     0.22776   0.78223   0.23125   0.00000  Uiso   1.00
C103   C     0.29623   0.72156   0.23617   0.00000  Uiso   1.00
C104   C     0.37956   0.75813   0.27335   0.00000  Uiso   1.00
C105   C     0.52677   0.78298   0.32780   0.00000  Uiso   1.00
C106   C     0.15783   0.92991   0.25041   0.00000  Uiso   1.00
C107   C     0.02461   0.81900   0.24951   0.00000  Uiso   1.00
C108   C     0.92502   0.80763   0.27588   0.00000  Uiso   1.00
C109   C     0.81052   0.69890   0.27004   0.00000  Uiso   1.00
C110   C     0.18887   0.97616   0.20010   0.00000  Uiso   1.00
C111   C     0.22742   0.09694   0.18492   0.00000  Uiso   1.00
C112   C     0.25123   0.12052   0.13748   0.00000  Uiso   1.00
C113   C     0.24202   0.87612   0.26237   0.00000  Uiso   1.00
C114   C     0.32527   0.91281   0.29954   0.00000  Uiso   1.00
C115   C     0.39385   0.85220   0.30452   0.00000  Uiso   1.00
H116   H     0.12048   0.68394   0.16891   0.00000  Uiso   1.00
H117   H     0.88498   0.54373   0.18843   0.00000  Uiso   1.00
H118   H     0.18735   0.83300   0.09748   0.00000  Uiso   1.00
H119   H     0.28517   0.64890   0.21209   0.00000  Uiso   1.00
H120   H     0.63016   0.42971   0.22378   0.00000  Uiso   1.00
H121   H     0.26776   0.03965   0.03202   0.00000  Uiso   1.00
H122   H     0.47406   0.65145   0.27368   0.00000  Uiso   1.00
H123   H     0.16893   0.00302   0.27463   0.00000  Uiso   1.00
H124   H     0.93608   0.88031   0.29996   0.00000  Uiso   1.00
H125   H     0.23845   0.16958   0.20901   0.00000  Uiso   1.00
H126   H     0.33628   0.98548   0.32361   0.00000  Uiso   1.00
H127   H     0.67163   0.70289   0.31430   0.00000  Uiso   1.00
H128   H     0.30924   0.31284   0.12254   0.00000  Uiso   1.00
H129   H     0.51553   0.92463   0.36420   0.00000  Uiso   1.00
O130   O     0.49684   0.47984   0.28378   0.00000  Uiso   1.00
O131   O     0.33337   0.28006   0.03220   0.00000  Uiso   1.00
O132   O     0.60402   0.77074   0.34925   0.00000  Uiso   1.00
N133   N     0.67188   0.51083   0.24161   0.00000  Uiso   1.00
N134   N     0.26798   0.08109   0.06233   0.00000  Uiso   1.00
N135   N     0.46087   0.71817   0.28825   0.00000  Uiso   1.00
N136   N     0.69420   0.65782   0.29032   0.00000  Uiso   1.00
N137   N     0.29030   0.22808   0.11104   0.00000  Uiso   1.00
N138   N     0.48319   0.86517   0.33696   0.00000  Uiso   1.00
C139   C     0.62546   0.75704   0.14020   0.00000  Uiso   1.00
C140   C     0.71475   0.72510   0.11493   0.00000  Uiso   1.00
C141   C     0.72039   0.61637   0.12082   0.00000  Uiso   1.00
C142   C     0.80860   0.60484   0.09447   0.00000  Uiso   1.00
C143   C     0.93517   0.54099   0.05998   0.00000  Uiso   1.00
C144   C     0.70765   0.88226   0.16435   0.00000  Uiso   1.00
C145   C     0.70730   0.90568   0.21178   0.00000  Uiso   1.00
C146   C     0.78951   0.02646   0.22702   0.00000  Uiso   1.00
C147   C     0.90499   0.20663   0.26925   0.00000  Uiso   1.00
C148   C     0.55447   0.78223   0.10208   0.00000  Uiso   1.00
C149   C     0.42532   0.72156   0.09716   0.00000  Uiso   1.00
C150   C     0.37857   0.75813   0.05998   0.00000  Uiso   1.00
C151   C     0.25621   0.78298   0.00553   0.00000  Uiso   1.00
C152   C     0.77208   0.92991   0.08292   0.00000  Uiso   1.00
C153   C     0.79439   0.81900   0.08382   0.00000  Uiso   1.00
C154   C     0.88261   0.80763   0.05745   0.00000  Uiso   1.00
C155   C     0.88838   0.69890   0.06330   0.00000  Uiso   1.00
C156   C     0.78729   0.97616   0.13324   0.00000  Uiso   1.00
C157   C     0.86951   0.09694   0.14841   0.00000  Uiso   1.00
C158   C     0.86930   0.12052   0.19585   0.00000  Uiso   1.00
C159   C     0.63411   0.87612   0.07097   0.00000  Uiso   1.00
C160   C     0.58754   0.91281   0.03379   0.00000  Uiso   1.00
C161   C     0.45835   0.85220   0.02882   0.00000  Uiso   1.00
H162   H     0.56346   0.68394   0.16443   0.00000  Uiso   1.00
H163   H     0.65875   0.54373   0.14491   0.00000  Uiso   1.00
H164   H     0.64565   0.83300   0.23585   0.00000  Uiso   1.00
H165   H     0.36372   0.64890   0.12125   0.00000  Uiso   1.00
H166   H     0.79955   0.42971   0.10956   0.00000  Uiso   1.00
H167   H     0.77189   0.03965   0.30131   0.00000  Uiso   1.00
H168   H     0.17739   0.65145   0.05965   0.00000  Uiso   1.00
H169   H     0.83409   0.00302   0.05870   0.00000  Uiso   1.00
H170   H     0.94423   0.88031   0.03338   0.00000  Uiso   1.00
H171   H     0.93112   0.16958   0.12432   0.00000  Uiso   1.00
H172   H     0.64920   0.98548   0.00972   0.00000  Uiso   1.00
H173   H     0.03126   0.70289   0.01904   0.00000  Uiso   1.00
H174   H     0.00359   0.31284   0.21079   0.00000  Uiso   1.00
H175   H     0.40910   0.92463   0.96913   0.00000  Uiso   1.00
O176   O     0.98300   0.47984   0.04956   0.00000  Uiso   1.00
O177   O     0.94669   0.28006   0.30113   0.00000  Uiso   1.00
O178   O     0.16673   0.77074   0.98408   0.00000  Uiso   1.00
N179   N     0.83895   0.51083   0.09172   0.00000  Uiso   1.00
N180   N     0.81311   0.08109   0.27100   0.00000  Uiso   1.00
N181   N     0.25729   0.71817   0.04508   0.00000  Uiso   1.00
N182   N     0.96363   0.65782   0.04301   0.00000  Uiso   1.00
N183   N     0.93778   0.22808   0.22230   0.00000  Uiso   1.00
N184   N     0.38197   0.86517   0.99637   0.00000  Uiso   1.00
C185   C     0.13158   0.37454   0.80687   0.00000  Uiso   1.00
C186   C     0.01034   0.28525   0.78160   0.00000  Uiso   1.00
C187   C     0.89598   0.27961   0.78749   0.00000  Uiso   1.00
C188   C     0.79624   0.19140   0.76113   0.00000  Uiso   1.00
C189   C     0.60581   0.06483   0.72665   0.00000  Uiso   1.00
C190   C     0.17461   0.29235   0.83101   0.00000  Uiso   1.00
C191   C     0.19838   0.29270   0.87845   0.00000  Uiso   1.00
C192   C     0.23694   0.21049   0.89369   0.00000  Uiso   1.00
C193   C     0.30164   0.09501   0.93591   0.00000  Uiso   1.00
C194   C     0.22776   0.44553   0.76875   0.00000  Uiso   1.00
C195   C     0.29623   0.57468   0.76383   0.00000  Uiso   1.00
C196   C     0.37956   0.62143   0.72665   0.00000  Uiso   1.00
C197   C     0.52677   0.74379   0.67220   0.00000  Uiso   1.00
C198   C     0.15783   0.22792   0.74959   0.00000  Uiso   1.00
C199   C     0.02461   0.20561   0.75049   0.00000  Uiso   1.00
C200   C     0.92502   0.11739   0.72412   0.00000  Uiso   1.00
C201   C     0.81052   0.11162   0.72996   0.00000  Uiso   1.00
C202   C     0.18887   0.21271   0.79990   0.00000  Uiso   1.00
C203   C     0.22742   0.13049   0.81508   0.00000  Uiso   1.00
C204   C     0.25123   0.13070   0.86252   0.00000  Uiso   1.00
C205   C     0.24202   0.36589   0.73763   0.00000  Uiso   1.00
C206   C     0.32527   0.41246   0.70046   0.00000  Uiso   1.00
C207   C     0.39385   0.54165   0.69548   0.00000  Uiso   1.00
H208   H     0.12048   0.43654   0.83109   0.00000  Uiso   1.00
H209   H     0.88498   0.34125   0.81157   0.00000  Uiso   1.00
H210   H     0.18735   0.35435   0.90252   0.00000  Uiso   1.00
H211   H     0.28517   0.63628   0.78791   0.00000  Uiso   1.00
H212   H     0.63016   0.20045   0.77622   0.00000  Uiso   1.00
H213   H     0.26776   0.22811   0.96798   0.00000  Uiso   1.00
H214   H     0.47406   0.82261   0.72632   0.00000  Uiso   1.00
H215   H     0.16893   0.16591   0.72537   0.00000  Uiso   1.00
H216   H     0.93608   0.05577   0.70004   0.00000  Uiso   1.00
H217   H     0.23845   0.06888   0.79099   0.00000  Uiso   1.00
H218   H     0.33628   0.35080   0.67639   0.00000  Uiso   1.00
H219   H     0.67163   0.96874   0.68570   0.00000  Uiso   1.00
H220   H     0.30924   0.99641   0.87746   0.00000  Uiso   1.00
H221   H     0.51553   0.59090   0.63580   0.00000  Uiso   1.00
O222   O     0.49684   0.01700   0.71622   0.00000  Uiso   1.00
O223   O     0.33337   0.05331   0.96780   0.00000  Uiso   1.00
O224   O     0.60402   0.83327   0.65075   0.00000  Uiso   1.00
N225   N     0.67188   0.16105   0.75839   0.00000  Uiso   1.00
N226   N     0.26798   0.18689   0.93767   0.00000  Uiso   1.00
N227   N     0.46087   0.74271   0.71175   0.00000  Uiso   1.00
N228   N     0.69420   0.03637   0.70968   0.00000  Uiso   1.00
N229   N     0.29030   0.06222   0.88896   0.00000  Uiso   1.00
N230   N     0.48319   0.61803   0.66304   0.00000  Uiso   1.00
C231   C     0.24296   0.86842   0.47354   0.00000  Uiso   1.00
C232   C     0.27490   0.98966   0.44827   0.00000  Uiso   1.00
C233   C     0.38363   0.10402   0.45416   0.00000  Uiso   1.00
C234   C     0.39516   0.20376   0.42780   0.00000  Uiso   1.00
C235   C     0.45901   0.39419   0.39331   0.00000  Uiso   1.00
C236   C     0.11774   0.82539   0.49768   0.00000  Uiso   1.00
C237   C     0.09432   0.80162   0.54512   0.00000  Uiso   1.00
C238   C     0.97354   0.76306   0.56036   0.00000  Uiso   1.00
C239   C     0.79337   0.69836   0.60258   0.00000  Uiso   1.00
C240   C     0.21777   0.77224   0.43541   0.00000  Uiso   1.00
C241   C     0.27844   0.70377   0.43050   0.00000  Uiso   1.00
C242   C     0.24187   0.62044   0.39332   0.00000  Uiso   1.00
C243   C     0.21702   0.47323   0.33886   0.00000  Uiso   1.00
C244   C     0.07009   0.84217   0.41626   0.00000  Uiso   1.00
C245   C     0.18100   0.97539   0.41716   0.00000  Uiso   1.00
C246   C     0.19237   0.07498   0.39078   0.00000  Uiso   1.00
C247   C     0.30110   0.18948   0.39663   0.00000  Uiso   1.00
C248   C     0.02384   0.81113   0.46657   0.00000  Uiso   1.00
C249   C     0.90306   0.77258   0.48174   0.00000  Uiso   1.00
C250   C     0.87948   0.74877   0.52919   0.00000  Uiso   1.00
C251   C     0.12388   0.75798   0.40430   0.00000  Uiso   1.00
C252   C     0.08719   0.67473   0.36712   0.00000  Uiso   1.00
C253   C     0.14780   0.60615   0.36215   0.00000  Uiso   1.00
H254   H     0.31606   0.87952   0.49776   0.00000  Uiso   1.00
H255   H     0.45627   0.11502   0.47824   0.00000  Uiso   1.00
H256   H     0.16700   0.81265   0.56918   0.00000  Uiso   1.00
H257   H     0.35110   0.71483   0.45458   0.00000  Uiso   1.00
H258   H     0.57029   0.36984   0.44289   0.00000  Uiso   1.00
H259   H     0.96035   0.73224   0.63465   0.00000  Uiso   1.00
H260   H     0.34855   0.52594   0.39299   0.00000  Uiso   1.00
H261   H     0.99698   0.83107   0.39203   0.00000  Uiso   1.00
H262   H     0.11969   0.06392   0.36671   0.00000  Uiso   1.00
H263   H     0.83042   0.76155   0.45766   0.00000  Uiso   1.00
H264   H     0.01452   0.66372   0.34305   0.00000  Uiso   1.00
H265   H     0.29711   0.32837   0.35237   0.00000  Uiso   1.00
H266   H     0.68716   0.69076   0.54413   0.00000  Uiso   1.00
H267   H     0.07537   0.48447   0.30247   0.00000  Uiso   1.00
O268   O     0.52016   0.50316   0.38289   0.00000  Uiso   1.00
O269   O     0.71994   0.66663   0.63447   0.00000  Uiso   1.00
O270   O     0.22926   0.39598   0.31742   0.00000  Uiso   1.00
N271   N     0.48917   0.32812   0.42505   0.00000  Uiso   1.00
N272   N     0.91891   0.73202   0.60434   0.00000  Uiso   1.00
N273   N     0.28183   0.53913   0.37841   0.00000  Uiso   1.00
N274   N     0.34218   0.30580   0.37635   0.00000  Uiso   1.00
N275   N     0.77192   0.70970   0.55563   0.00000  Uiso   1.00
N276   N     0.13483   0.51681   0.32971   0.00000  Uiso   1.00
