data_job_03493
_audit_creation_date              2018-12-19
_audit_creation_method            'Materials Studio'
_symmetry_space_group_name_H-M    'P1'
_symmetry_Int_Tables_number       1
_symmetry_cell_setting            triclinic
loop_
_symmetry_equiv_pos_as_xyz
  x,y,z
_cell_length_a                    28.5202
_cell_length_b                    7.5432
_cell_length_c                    16.8483
_cell_angle_alpha                 90.0000
_cell_angle_beta                  126.1910
_cell_angle_gamma                 90.0000
loop_
_atom_site_label
_atom_site_type_symbol
_atom_site_fract_x
_atom_site_fract_y
_atom_site_fract_z
_atom_site_U_iso_or_equiv
_atom_site_adp_type
_atom_site_occupancy
C1     C     0.74964   0.82334   0.34885   0.00000  Uiso   1.00
C2     C     0.75302   0.99613   0.30547   0.00000  Uiso   1.00
C3     C     0.75653   0.01054   0.22701   0.00000  Uiso   1.00
C4     C     0.75926   0.18054   0.19837   0.00000  Uiso   1.00
C5     C     0.76465   0.42601   0.12372   0.00000  Uiso   1.00
C6     C     0.80029   0.82750   0.45779   0.00000  Uiso   1.00
C7     C     0.84355   0.70011   0.50739   0.00000  Uiso   1.00
C8     C     0.88607   0.72816   0.60698   0.00000  Uiso   1.00
C9     C     0.96483   0.71176   0.76881   0.00000  Uiso   1.00
C10    C     0.69465   0.83573   0.34406   0.00000  Uiso   1.00
C11    C     0.64909   0.71523   0.29807   0.00000  Uiso   1.00
C12    C     0.60267   0.75018   0.30193   0.00000  Uiso   1.00
C13    C     0.51741   0.74656   0.28720   0.00000  Uiso   1.00
C14    C     0.74824   0.09963   0.43752   0.00000  Uiso   1.00
C15    C     0.75226   0.14620   0.35364   0.00000  Uiso   1.00
C16    C     0.75498   0.31623   0.32511   0.00000  Uiso   1.00
C17    C     0.75849   0.33089   0.24662   0.00000  Uiso   1.00
C18    C     0.79953   0.97757   0.50595   0.00000  Uiso   1.00
C19    C     0.84200   0.00580   0.60549   0.00000  Uiso   1.00
C20    C     0.88531   0.87850   0.65523   0.00000  Uiso   1.00
C21    C     0.69389   0.98580   0.39223   0.00000  Uiso   1.00
C22    C     0.64754   0.02093   0.39617   0.00000  Uiso   1.00
C23    C     0.60191   0.90052   0.35018   0.00000  Uiso   1.00
H24    H     0.75023   0.70650   0.31136   0.00000  Uiso   1.00
H25    H     0.75712   0.89437   0.18976   0.00000  Uiso   1.00
H26    H     0.84412   0.58399   0.47010   0.00000  Uiso   1.00
H27    H     0.64969   0.59912   0.26081   0.00000  Uiso   1.00
H28    H     0.76445   0.16884   0.07621   0.00000  Uiso   1.00
H29    H     0.94788   0.51434   0.66732   0.00000  Uiso   1.00
H30    H     0.53789   0.54624   0.22599   0.00000  Uiso   1.00
H31    H     0.74764   0.21647   0.47502   0.00000  Uiso   1.00
H32    H     0.75439   0.43234   0.36240   0.00000  Uiso   1.00
H33    H     0.84139   0.12194   0.64274   0.00000  Uiso   1.00
H34    H     0.64696   0.13708   0.43345   0.00000  Uiso   1.00
H35    H     0.76223   0.60547   0.21633   0.00000  Uiso   1.00
H36    H     0.94566   0.95097   0.80745   0.00000  Uiso   1.00
H37    H     0.53567   0.98288   0.36612   0.00000  Uiso   1.00
O38    O     0.76784   0.51995   0.06925   0.00000  Uiso   1.00
O39    O     0.00849   0.66126   0.84477   0.00000  Uiso   1.00
O40    O     0.47059   0.70312   0.26575   0.00000  Uiso   1.00
N41    N     0.76299   0.24198   0.12463   0.00000  Uiso   1.00
N42    N     0.93449   0.63007   0.67728   0.00000  Uiso   1.00
N43    N     0.55119   0.65987   0.26470   0.00000  Uiso   1.00
N44    N     0.76180   0.47693   0.20003   0.00000  Uiso   1.00
N45    N     0.93330   0.86502   0.75268   0.00000  Uiso   1.00
N46    N     0.55000   0.89482   0.34010   0.00000  Uiso   1.00
C47    C     0.24957   0.17874   0.15033   0.00000  Uiso   1.00
C48    C     0.25292   0.00595   0.20043   0.00000  Uiso   1.00
C49    C     0.25637   0.99154   0.28586   0.00000  Uiso   1.00
C50    C     0.25905   0.82153   0.31991   0.00000  Uiso   1.00
C51    C     0.26433   0.57606   0.40524   0.00000  Uiso   1.00
C52    C     0.19461   0.16634   0.04516   0.00000  Uiso   1.00
C53    C     0.14904   0.28681   0.00003   0.00000  Uiso   1.00
C54    C     0.10264   0.25183   0.90338   0.00000  Uiso   1.00
C55    C     0.01741   0.25544   0.74762   0.00000  Uiso   1.00
C56    C     0.30025   0.17458   0.14273   0.00000  Uiso   1.00
C57    C     0.34350   0.30200   0.17961   0.00000  Uiso   1.00
C58    C     0.38604   0.27399   0.16508   0.00000  Uiso   1.00
C59    C     0.46485   0.29040   0.16081   0.00000  Uiso   1.00
C60    C     0.24822   0.90245   0.05890   0.00000  Uiso   1.00
C61    C     0.25218   0.85588   0.15077   0.00000  Uiso   1.00
C62    C     0.25487   0.68585   0.18470   0.00000  Uiso   1.00
C63    C     0.25832   0.67119   0.27017   0.00000  Uiso   1.00
C64    C     0.19387   0.01628   0.99550   0.00000  Uiso   1.00
C65    C     0.14754   0.98112   0.89888   0.00000  Uiso   1.00
C66    C     0.10190   0.10149   0.85363   0.00000  Uiso   1.00
C67    C     0.29952   0.02451   0.09307   0.00000  Uiso   1.00
C68    C     0.34200   0.99630   0.07846   0.00000  Uiso   1.00
C69    C     0.38531   0.12365   0.11532   0.00000  Uiso   1.00
H70    H     0.25014   0.29558   0.18898   0.00000  Uiso   1.00
H71    H     0.25693   0.10771   0.32426   0.00000  Uiso   1.00
H72    H     0.14962   0.40294   0.03848   0.00000  Uiso   1.00
H73    H     0.34405   0.41812   0.21804   0.00000  Uiso   1.00
H74    H     0.26411   0.83323   0.45232   0.00000  Uiso   1.00
H75    H     0.03785   0.45577   0.84973   0.00000  Uiso   1.00
H76    H     0.44785   0.48780   0.22835   0.00000  Uiso   1.00
H77    H     0.24764   0.78560   0.02023   0.00000  Uiso   1.00
H78    H     0.25430   0.56974   0.14626   0.00000  Uiso   1.00
H79    H     0.14698   0.86498   0.86047   0.00000  Uiso   1.00
H80    H     0.34142   0.88016   0.04003   0.00000  Uiso   1.00
H81    H     0.26197   0.39660   0.30785   0.00000  Uiso   1.00
H82    H     0.03571   0.01915   0.70525   0.00000  Uiso   1.00
H83    H     0.44571   0.05116   0.08388   0.00000  Uiso   1.00
O84    O     0.26744   0.48212   0.46601   0.00000  Uiso   1.00
O85    O     0.97060   0.29889   0.67543   0.00000  Uiso   1.00
O86    O     0.50852   0.34089   0.17218   0.00000  Uiso   1.00
N87    N     0.26270   0.76010   0.40104   0.00000  Uiso   1.00
N88    N     0.05116   0.34212   0.83765   0.00000  Uiso   1.00
N89    N     0.43447   0.37208   0.19161   0.00000  Uiso   1.00
N90    N     0.26155   0.52515   0.32329   0.00000  Uiso   1.00
N91    N     0.05001   0.10717   0.75991   0.00000  Uiso   1.00
N92    N     0.43332   0.13714   0.11387   0.00000  Uiso   1.00
C93    C     0.25036   0.82334   0.65115   0.00000  Uiso   1.00
C94    C     0.24698   0.99613   0.69453   0.00000  Uiso   1.00
C95    C     0.24347   0.01054   0.77299   0.00000  Uiso   1.00
C96    C     0.24074   0.18054   0.80163   0.00000  Uiso   1.00
C97    C     0.23535   0.42601   0.87628   0.00000  Uiso   1.00
C98    C     0.19971   0.82750   0.54221   0.00000  Uiso   1.00
C99    C     0.15645   0.70011   0.49261   0.00000  Uiso   1.00
C100   C     0.11393   0.72816   0.39302   0.00000  Uiso   1.00
C101   C     0.03517   0.71176   0.23119   0.00000  Uiso   1.00
C102   C     0.30535   0.83573   0.65594   0.00000  Uiso   1.00
C103   C     0.35091   0.71523   0.70193   0.00000  Uiso   1.00
C104   C     0.39733   0.75018   0.69807   0.00000  Uiso   1.00
C105   C     0.48259   0.74656   0.71280   0.00000  Uiso   1.00
C106   C     0.25176   0.09963   0.56248   0.00000  Uiso   1.00
C107   C     0.24774   0.14620   0.64636   0.00000  Uiso   1.00
C108   C     0.24502   0.31623   0.67489   0.00000  Uiso   1.00
C109   C     0.24151   0.33089   0.75338   0.00000  Uiso   1.00
C110   C     0.20047   0.97757   0.49405   0.00000  Uiso   1.00
C111   C     0.15800   0.00580   0.39451   0.00000  Uiso   1.00
C112   C     0.11469   0.87850   0.34477   0.00000  Uiso   1.00
C113   C     0.30611   0.98580   0.60777   0.00000  Uiso   1.00
C114   C     0.35246   0.02093   0.60383   0.00000  Uiso   1.00
C115   C     0.39809   0.90052   0.64982   0.00000  Uiso   1.00
H116   H     0.24977   0.70650   0.68864   0.00000  Uiso   1.00
H117   H     0.24288   0.89437   0.81024   0.00000  Uiso   1.00
H118   H     0.15588   0.58399   0.52990   0.00000  Uiso   1.00
H119   H     0.35031   0.59912   0.73919   0.00000  Uiso   1.00
H120   H     0.23555   0.16884   0.92379   0.00000  Uiso   1.00
H121   H     0.05212   0.51434   0.33268   0.00000  Uiso   1.00
H122   H     0.46211   0.54624   0.77401   0.00000  Uiso   1.00
H123   H     0.25236   0.21647   0.52498   0.00000  Uiso   1.00
H124   H     0.24561   0.43234   0.63760   0.00000  Uiso   1.00
H125   H     0.15861   0.12194   0.35726   0.00000  Uiso   1.00
H126   H     0.35304   0.13708   0.56655   0.00000  Uiso   1.00
H127   H     0.23777   0.60547   0.78367   0.00000  Uiso   1.00
H128   H     0.05434   0.95097   0.19255   0.00000  Uiso   1.00
H129   H     0.46433   0.98288   0.63388   0.00000  Uiso   1.00
O130   O     0.23216   0.51995   0.93075   0.00000  Uiso   1.00
O131   O     0.99151   0.66126   0.15523   0.00000  Uiso   1.00
O132   O     0.52941   0.70312   0.73425   0.00000  Uiso   1.00
N133   N     0.23701   0.24198   0.87537   0.00000  Uiso   1.00
N134   N     0.06551   0.63007   0.32272   0.00000  Uiso   1.00
N135   N     0.44881   0.65987   0.73530   0.00000  Uiso   1.00
N136   N     0.23820   0.47693   0.79997   0.00000  Uiso   1.00
N137   N     0.06670   0.86502   0.24732   0.00000  Uiso   1.00
N138   N     0.45000   0.89482   0.65990   0.00000  Uiso   1.00
C139   C     0.75043   0.17874   0.84967   0.00000  Uiso   1.00
C140   C     0.74708   0.00595   0.79957   0.00000  Uiso   1.00
C141   C     0.74363   0.99154   0.71414   0.00000  Uiso   1.00
C142   C     0.74095   0.82153   0.68009   0.00000  Uiso   1.00
C143   C     0.73567   0.57606   0.59476   0.00000  Uiso   1.00
C144   C     0.80539   0.16634   0.95484   0.00000  Uiso   1.00
C145   C     0.85096   0.28681   0.99997   0.00000  Uiso   1.00
C146   C     0.89736   0.25183   0.09662   0.00000  Uiso   1.00
C147   C     0.98259   0.25544   0.25238   0.00000  Uiso   1.00
C148   C     0.69975   0.17458   0.85727   0.00000  Uiso   1.00
C149   C     0.65650   0.30200   0.82039   0.00000  Uiso   1.00
C150   C     0.61396   0.27399   0.83492   0.00000  Uiso   1.00
C151   C     0.53515   0.29040   0.83919   0.00000  Uiso   1.00
C152   C     0.75178   0.90245   0.94110   0.00000  Uiso   1.00
C153   C     0.74782   0.85588   0.84923   0.00000  Uiso   1.00
C154   C     0.74513   0.68585   0.81530   0.00000  Uiso   1.00
C155   C     0.74168   0.67119   0.72983   0.00000  Uiso   1.00
C156   C     0.80613   0.01628   0.00450   0.00000  Uiso   1.00
C157   C     0.85246   0.98112   0.10112   0.00000  Uiso   1.00
C158   C     0.89810   0.10149   0.14637   0.00000  Uiso   1.00
C159   C     0.70048   0.02451   0.90693   0.00000  Uiso   1.00
C160   C     0.65800   0.99630   0.92154   0.00000  Uiso   1.00
C161   C     0.61469   0.12365   0.88468   0.00000  Uiso   1.00
H162   H     0.74986   0.29558   0.81102   0.00000  Uiso   1.00
H163   H     0.74307   0.10771   0.67574   0.00000  Uiso   1.00
H164   H     0.85038   0.40294   0.96152   0.00000  Uiso   1.00
H165   H     0.65595   0.41812   0.78196   0.00000  Uiso   1.00
H166   H     0.73589   0.83323   0.54768   0.00000  Uiso   1.00
H167   H     0.96215   0.45577   0.15027   0.00000  Uiso   1.00
H168   H     0.55215   0.48780   0.77165   0.00000  Uiso   1.00
H169   H     0.75236   0.78560   0.97977   0.00000  Uiso   1.00
H170   H     0.74570   0.56974   0.85374   0.00000  Uiso   1.00
H171   H     0.85302   0.86498   0.13953   0.00000  Uiso   1.00
H172   H     0.65858   0.88016   0.95997   0.00000  Uiso   1.00
H173   H     0.73803   0.39660   0.69215   0.00000  Uiso   1.00
H174   H     0.96429   0.01915   0.29475   0.00000  Uiso   1.00
H175   H     0.55429   0.05116   0.91612   0.00000  Uiso   1.00
O176   O     0.73256   0.48212   0.53399   0.00000  Uiso   1.00
O177   O     0.02940   0.29889   0.32457   0.00000  Uiso   1.00
O178   O     0.49148   0.34089   0.82782   0.00000  Uiso   1.00
N179   N     0.73730   0.76010   0.59896   0.00000  Uiso   1.00
N180   N     0.94884   0.34212   0.16235   0.00000  Uiso   1.00
N181   N     0.56553   0.37208   0.80839   0.00000  Uiso   1.00
N182   N     0.73845   0.52515   0.67671   0.00000  Uiso   1.00
N183   N     0.94999   0.10717   0.24009   0.00000  Uiso   1.00
N184   N     0.56668   0.13714   0.88613   0.00000  Uiso   1.00
