data_job_00373
_audit_creation_date              2018-12-19
_audit_creation_method            'Materials Studio'
_symmetry_space_group_name_H-M    'P1'
_symmetry_Int_Tables_number       1
_symmetry_cell_setting            triclinic
loop_
_symmetry_equiv_pos_as_xyz
  x,y,z
_cell_length_a                    19.7676
_cell_length_b                    11.8861
_cell_length_c                    12.8369
_cell_angle_alpha                 90.0000
_cell_angle_beta                  101.2338
_cell_angle_gamma                 90.0000
loop_
_atom_site_label
_atom_site_type_symbol
_atom_site_fract_x
_atom_site_fract_y
_atom_site_fract_z
_atom_site_U_iso_or_equiv
_atom_site_adp_type
_atom_site_occupancy
C1     C     0.30483   0.22050   0.09021   0.00000  Uiso   1.00
C2     C     0.31688   0.27974   0.19761   0.00000  Uiso   1.00
C3     C     0.37818   0.32926   0.24780   0.00000  Uiso   1.00
C4     C     0.37874   0.37916   0.34575   0.00000  Uiso   1.00
C5     C     0.40639   0.47104   0.50555   0.00000  Uiso   1.00
C6     C     0.27997   0.10230   0.10962   0.00000  Uiso   1.00
C7     C     0.31023   0.00262   0.08582   0.00000  Uiso   1.00
C8     C     0.27971   0.90316   0.10969   0.00000  Uiso   1.00
C9     C     0.25002   0.71956   0.13280   0.00000  Uiso   1.00
C10    C     0.24361   0.27986   0.02144   0.00000  Uiso   1.00
C11    C     0.24330   0.32946   0.92348   0.00000  Uiso   1.00
C12    C     0.18216   0.37946   0.87309   0.00000  Uiso   1.00
C13    C     0.09602   0.47155   0.75930   0.00000  Uiso   1.00
C14    C     0.19680   0.22108   0.17491   0.00000  Uiso   1.00
C15    C     0.25820   0.28005   0.24362   0.00000  Uiso   1.00
C16    C     0.25866   0.32990   0.34152   0.00000  Uiso   1.00
C17    C     0.31996   0.37948   0.39184   0.00000  Uiso   1.00
C18    C     0.22129   0.10261   0.15563   0.00000  Uiso   1.00
C19    C     0.19071   0.00327   0.17953   0.00000  Uiso   1.00
C20    C     0.22092   0.90347   0.15577   0.00000  Uiso   1.00
C21    C     0.18493   0.28018   0.06745   0.00000  Uiso   1.00
C22    C     0.12377   0.33010   0.01720   0.00000  Uiso   1.00
C23    C     0.12337   0.37978   0.91918   0.00000  Uiso   1.00
H24    H     0.35051   0.22025   0.05439   0.00000  Uiso   1.00
H25    H     0.42359   0.32898   0.21218   0.00000  Uiso   1.00
H26    H     0.35564   0.00241   0.05021   0.00000  Uiso   1.00
H27    H     0.28872   0.32919   0.88790   0.00000  Uiso   1.00
H28    H     0.47873   0.44964   0.40742   0.00000  Uiso   1.00
H29    H     0.33545   0.76104   0.06586   0.00000  Uiso   1.00
H30    H     0.19433   0.45013   0.72360   0.00000  Uiso   1.00
H31    H     0.15111   0.22133   0.21073   0.00000  Uiso   1.00
H32    H     0.21324   0.33013   0.37710   0.00000  Uiso   1.00
H33    H     0.14530   0.00355   0.21513   0.00000  Uiso   1.00
H34    H     0.07838   0.33033   0.05283   0.00000  Uiso   1.00
H35    H     0.30801   0.45056   0.54128   0.00000  Uiso   1.00
H36    H     0.16473   0.76195   0.19972   0.00000  Uiso   1.00
H37    H     0.02361   0.45105   0.85747   0.00000  Uiso   1.00
O38    O     0.43785   0.52162   0.58099   0.00000  Uiso   1.00
O39    O     0.24986   0.61820   0.13285   0.00000  Uiso   1.00
O40    O     0.06472   0.52228   0.68383   0.00000  Uiso   1.00
N41    N     0.43002   0.43495   0.41608   0.00000  Uiso   1.00
N42    N     0.29607   0.79114   0.09676   0.00000  Uiso   1.00
N43    N     0.16413   0.43536   0.77677   0.00000  Uiso   1.00
N44    N     0.33816   0.43545   0.48811   0.00000  Uiso   1.00
N45    N     0.20420   0.79164   0.16879   0.00000  Uiso   1.00
N46    N     0.07226   0.43586   0.84880   0.00000  Uiso   1.00
C47    C     0.69517   0.22050   0.40979   0.00000  Uiso   1.00
C48    C     0.68312   0.27974   0.30239   0.00000  Uiso   1.00
C49    C     0.62182   0.32926   0.25220   0.00000  Uiso   1.00
C50    C     0.62126   0.37916   0.15425   0.00000  Uiso   1.00
C51    C     0.59361   0.47104   0.99445   0.00000  Uiso   1.00
C52    C     0.72003   0.10230   0.39038   0.00000  Uiso   1.00
C53    C     0.68977   0.00262   0.41418   0.00000  Uiso   1.00
C54    C     0.72029   0.90316   0.39031   0.00000  Uiso   1.00
C55    C     0.74998   0.71956   0.36720   0.00000  Uiso   1.00
C56    C     0.75639   0.27986   0.47856   0.00000  Uiso   1.00
C57    C     0.75670   0.32946   0.57652   0.00000  Uiso   1.00
C58    C     0.81784   0.37946   0.62691   0.00000  Uiso   1.00
C59    C     0.90398   0.47155   0.74070   0.00000  Uiso   1.00
C60    C     0.80320   0.22108   0.32509   0.00000  Uiso   1.00
C61    C     0.74180   0.28005   0.25638   0.00000  Uiso   1.00
C62    C     0.74134   0.32990   0.15848   0.00000  Uiso   1.00
C63    C     0.68004   0.37948   0.10816   0.00000  Uiso   1.00
C64    C     0.77871   0.10261   0.34437   0.00000  Uiso   1.00
C65    C     0.80929   0.00327   0.32047   0.00000  Uiso   1.00
C66    C     0.77908   0.90347   0.34423   0.00000  Uiso   1.00
C67    C     0.81507   0.28018   0.43255   0.00000  Uiso   1.00
C68    C     0.87623   0.33010   0.48280   0.00000  Uiso   1.00
C69    C     0.87663   0.37978   0.58082   0.00000  Uiso   1.00
H70    H     0.64949   0.22025   0.44561   0.00000  Uiso   1.00
H71    H     0.57641   0.32898   0.28782   0.00000  Uiso   1.00
H72    H     0.64436   0.00241   0.44979   0.00000  Uiso   1.00
H73    H     0.71128   0.32919   0.61210   0.00000  Uiso   1.00
H74    H     0.52127   0.44964   0.09258   0.00000  Uiso   1.00
H75    H     0.66455   0.76104   0.43414   0.00000  Uiso   1.00
H76    H     0.80567   0.45013   0.77640   0.00000  Uiso   1.00
H77    H     0.84889   0.22133   0.28927   0.00000  Uiso   1.00
H78    H     0.78676   0.33013   0.12290   0.00000  Uiso   1.00
H79    H     0.85470   0.00355   0.28487   0.00000  Uiso   1.00
H80    H     0.92162   0.33033   0.44717   0.00000  Uiso   1.00
H81    H     0.69199   0.45056   0.95872   0.00000  Uiso   1.00
H82    H     0.83527   0.76195   0.30028   0.00000  Uiso   1.00
H83    H     0.97639   0.45105   0.64253   0.00000  Uiso   1.00
O84    O     0.56215   0.52162   0.91901   0.00000  Uiso   1.00
O85    O     0.75014   0.61820   0.36715   0.00000  Uiso   1.00
O86    O     0.93528   0.52228   0.81617   0.00000  Uiso   1.00
N87    N     0.56998   0.43495   0.08392   0.00000  Uiso   1.00
N88    N     0.70393   0.79114   0.40324   0.00000  Uiso   1.00
N89    N     0.83587   0.43536   0.72323   0.00000  Uiso   1.00
N90    N     0.66184   0.43545   0.01189   0.00000  Uiso   1.00
N91    N     0.79580   0.79164   0.33121   0.00000  Uiso   1.00
N92    N     0.92774   0.43586   0.65120   0.00000  Uiso   1.00
C93    C     0.69517   0.77950   0.90979   0.00000  Uiso   1.00
C94    C     0.68312   0.72026   0.80239   0.00000  Uiso   1.00
C95    C     0.62182   0.67074   0.75220   0.00000  Uiso   1.00
C96    C     0.62126   0.62084   0.65425   0.00000  Uiso   1.00
C97    C     0.59361   0.52896   0.49445   0.00000  Uiso   1.00
C98    C     0.72003   0.89770   0.89038   0.00000  Uiso   1.00
C99    C     0.68977   0.99738   0.91418   0.00000  Uiso   1.00
C100   C     0.72029   0.09684   0.89031   0.00000  Uiso   1.00
C101   C     0.74998   0.28044   0.86720   0.00000  Uiso   1.00
C102   C     0.75639   0.72014   0.97856   0.00000  Uiso   1.00
C103   C     0.75670   0.67054   0.07652   0.00000  Uiso   1.00
C104   C     0.81784   0.62054   0.12691   0.00000  Uiso   1.00
C105   C     0.90398   0.52845   0.24070   0.00000  Uiso   1.00
C106   C     0.80320   0.77892   0.82509   0.00000  Uiso   1.00
C107   C     0.74180   0.71995   0.75638   0.00000  Uiso   1.00
C108   C     0.74134   0.67010   0.65848   0.00000  Uiso   1.00
C109   C     0.68004   0.62052   0.60816   0.00000  Uiso   1.00
C110   C     0.77871   0.89739   0.84437   0.00000  Uiso   1.00
C111   C     0.80929   0.99673   0.82047   0.00000  Uiso   1.00
C112   C     0.77908   0.09653   0.84423   0.00000  Uiso   1.00
C113   C     0.81507   0.71982   0.93255   0.00000  Uiso   1.00
C114   C     0.87623   0.66990   0.98280   0.00000  Uiso   1.00
C115   C     0.87663   0.62022   0.08082   0.00000  Uiso   1.00
H116   H     0.64949   0.77975   0.94561   0.00000  Uiso   1.00
H117   H     0.57641   0.67102   0.78782   0.00000  Uiso   1.00
H118   H     0.64436   0.99759   0.94979   0.00000  Uiso   1.00
H119   H     0.71128   0.67081   0.11210   0.00000  Uiso   1.00
H120   H     0.52127   0.55036   0.59258   0.00000  Uiso   1.00
H121   H     0.66455   0.23896   0.93414   0.00000  Uiso   1.00
H122   H     0.80567   0.54987   0.27640   0.00000  Uiso   1.00
H123   H     0.84889   0.77867   0.78927   0.00000  Uiso   1.00
H124   H     0.78676   0.66987   0.62290   0.00000  Uiso   1.00
H125   H     0.85470   0.99645   0.78487   0.00000  Uiso   1.00
H126   H     0.92162   0.66967   0.94717   0.00000  Uiso   1.00
H127   H     0.69199   0.54944   0.45872   0.00000  Uiso   1.00
H128   H     0.83527   0.23805   0.80028   0.00000  Uiso   1.00
H129   H     0.97639   0.54895   0.14253   0.00000  Uiso   1.00
O130   O     0.56215   0.47838   0.41901   0.00000  Uiso   1.00
O131   O     0.75014   0.38180   0.86715   0.00000  Uiso   1.00
O132   O     0.93528   0.47772   0.31617   0.00000  Uiso   1.00
N133   N     0.56998   0.56505   0.58392   0.00000  Uiso   1.00
N134   N     0.70393   0.20886   0.90324   0.00000  Uiso   1.00
N135   N     0.83587   0.56464   0.22323   0.00000  Uiso   1.00
N136   N     0.66184   0.56455   0.51189   0.00000  Uiso   1.00
N137   N     0.79580   0.20836   0.83121   0.00000  Uiso   1.00
N138   N     0.92774   0.56414   0.15120   0.00000  Uiso   1.00
C139   C     0.30483   0.77950   0.59021   0.00000  Uiso   1.00
C140   C     0.31688   0.72026   0.69761   0.00000  Uiso   1.00
C141   C     0.37818   0.67074   0.74780   0.00000  Uiso   1.00
C142   C     0.37874   0.62084   0.84575   0.00000  Uiso   1.00
C143   C     0.40639   0.52896   0.00555   0.00000  Uiso   1.00
C144   C     0.27997   0.89770   0.60962   0.00000  Uiso   1.00
C145   C     0.31023   0.99738   0.58582   0.00000  Uiso   1.00
C146   C     0.27971   0.09684   0.60969   0.00000  Uiso   1.00
C147   C     0.25002   0.28044   0.63280   0.00000  Uiso   1.00
C148   C     0.24361   0.72014   0.52144   0.00000  Uiso   1.00
C149   C     0.24330   0.67054   0.42348   0.00000  Uiso   1.00
C150   C     0.18216   0.62054   0.37309   0.00000  Uiso   1.00
C151   C     0.09602   0.52845   0.25930   0.00000  Uiso   1.00
C152   C     0.19680   0.77892   0.67491   0.00000  Uiso   1.00
C153   C     0.25820   0.71995   0.74362   0.00000  Uiso   1.00
C154   C     0.25866   0.67010   0.84152   0.00000  Uiso   1.00
C155   C     0.31996   0.62052   0.89184   0.00000  Uiso   1.00
C156   C     0.22129   0.89739   0.65563   0.00000  Uiso   1.00
C157   C     0.19071   0.99673   0.67953   0.00000  Uiso   1.00
C158   C     0.22092   0.09653   0.65577   0.00000  Uiso   1.00
C159   C     0.18493   0.71982   0.56745   0.00000  Uiso   1.00
C160   C     0.12377   0.66990   0.51720   0.00000  Uiso   1.00
C161   C     0.12337   0.62022   0.41918   0.00000  Uiso   1.00
H162   H     0.35051   0.77975   0.55439   0.00000  Uiso   1.00
H163   H     0.42359   0.67102   0.71218   0.00000  Uiso   1.00
H164   H     0.35564   0.99759   0.55021   0.00000  Uiso   1.00
H165   H     0.28872   0.67081   0.38790   0.00000  Uiso   1.00
H166   H     0.47873   0.55036   0.90742   0.00000  Uiso   1.00
H167   H     0.33545   0.23896   0.56586   0.00000  Uiso   1.00
H168   H     0.19433   0.54987   0.22360   0.00000  Uiso   1.00
H169   H     0.15111   0.77867   0.71073   0.00000  Uiso   1.00
H170   H     0.21324   0.66987   0.87710   0.00000  Uiso   1.00
H171   H     0.14530   0.99645   0.71513   0.00000  Uiso   1.00
H172   H     0.07838   0.66967   0.55283   0.00000  Uiso   1.00
H173   H     0.30801   0.54944   0.04128   0.00000  Uiso   1.00
H174   H     0.16473   0.23805   0.69972   0.00000  Uiso   1.00
H175   H     0.02361   0.54895   0.35747   0.00000  Uiso   1.00
O176   O     0.43785   0.47838   0.08099   0.00000  Uiso   1.00
O177   O     0.24986   0.38180   0.63285   0.00000  Uiso   1.00
O178   O     0.06472   0.47772   0.18383   0.00000  Uiso   1.00
N179   N     0.43002   0.56505   0.91608   0.00000  Uiso   1.00
N180   N     0.29607   0.20886   0.59676   0.00000  Uiso   1.00
N181   N     0.16413   0.56464   0.27677   0.00000  Uiso   1.00
N182   N     0.33816   0.56455   0.98811   0.00000  Uiso   1.00
N183   N     0.20420   0.20836   0.66879   0.00000  Uiso   1.00
N184   N     0.07226   0.56414   0.34880   0.00000  Uiso   1.00
