data_job_02206
_audit_creation_date              2018-12-19
_audit_creation_method            'Materials Studio'
_symmetry_space_group_name_H-M    'P1'
_symmetry_Int_Tables_number       1
_symmetry_cell_setting            triclinic
loop_
_symmetry_equiv_pos_as_xyz
  x,y,z
_cell_length_a                    7.1030
_cell_length_b                    18.5630
_cell_length_c                    47.2526
_cell_angle_alpha                 90.0000
_cell_angle_beta                  90.0000
_cell_angle_gamma                 90.0000
loop_
_atom_site_label
_atom_site_type_symbol
_atom_site_fract_x
_atom_site_fract_y
_atom_site_fract_z
_atom_site_U_iso_or_equiv
_atom_site_adp_type
_atom_site_occupancy
C1     C     0.96222   0.67564   0.12261   0.00000  Uiso   1.00
C2     C     0.06604   0.64548   0.09697   0.00000  Uiso   1.00
C3     C     0.98630   0.60452   0.07552   0.00000  Uiso   1.00
C4     C     0.10503   0.58204   0.05392   0.00000  Uiso   1.00
C5     C     0.23712   0.53245   0.01413   0.00000  Uiso   1.00
C6     C     0.06642   0.64722   0.14852   0.00000  Uiso   1.00
C7     C     0.98698   0.60774   0.17042   0.00000  Uiso   1.00
C8     C     0.10603   0.58673   0.19222   0.00000  Uiso   1.00
C9     C     0.23868   0.53989   0.23248   0.00000  Uiso   1.00
C10    C     0.99587   0.75676   0.12219   0.00000  Uiso   1.00
C11    C     0.85712   0.80940   0.12195   0.00000  Uiso   1.00
C12    C     0.91677   0.88062   0.12158   0.00000  Uiso   1.00
C13    C     0.93988   0.00387   0.12094   0.00000  Uiso   1.00
C14    C     0.31488   0.70853   0.12238   0.00000  Uiso   1.00
C15    C     0.25759   0.66334   0.09685   0.00000  Uiso   1.00
C16    C     0.37648   0.64092   0.07527   0.00000  Uiso   1.00
C17    C     0.29692   0.59994   0.05379   0.00000  Uiso   1.00
C18    C     0.25796   0.66508   0.14840   0.00000  Uiso   1.00
C19    C     0.37715   0.64413   0.17017   0.00000  Uiso   1.00
C20    C     0.29792   0.60463   0.19209   0.00000  Uiso   1.00
C21    C     0.18742   0.77463   0.12206   0.00000  Uiso   1.00
C22    C     0.24730   0.84579   0.12169   0.00000  Uiso   1.00
C23    C     0.10866   0.89852   0.12145   0.00000  Uiso   1.00
H24    H     0.81309   0.66173   0.12271   0.00000  Uiso   1.00
H25    H     0.83806   0.59070   0.07563   0.00000  Uiso   1.00
H26    H     0.83874   0.59392   0.17051   0.00000  Uiso   1.00
H27    H     0.70890   0.79555   0.12204   0.00000  Uiso   1.00
H28    H     0.95023   0.51982   0.02338   0.00000  Uiso   1.00
H29    H     0.95165   0.52663   0.22346   0.00000  Uiso   1.00
H30    H     0.67785   0.95180   0.12125   0.00000  Uiso   1.00
H31    H     0.46401   0.72244   0.12229   0.00000  Uiso   1.00
H32    H     0.52470   0.65475   0.07518   0.00000  Uiso   1.00
H33    H     0.52538   0.65797   0.17007   0.00000  Uiso   1.00
H34    H     0.39554   0.85959   0.12160   0.00000  Uiso   1.00
H35    H     0.50754   0.57180   0.02301   0.00000  Uiso   1.00
H36    H     0.50895   0.57861   0.22310   0.00000  Uiso   1.00
H37    H     0.23516   0.00378   0.12089   0.00000  Uiso   1.00
O38    O     0.25707   0.50016   0.99222   0.00000  Uiso   1.00
O39    O     0.25892   0.50911   0.25472   0.00000  Uiso   1.00
O40    O     0.89971   0.06692   0.12062   0.00000  Uiso   1.00
N41    N     0.07306   0.54135   0.02975   0.00000  Uiso   1.00
N42    N     0.07439   0.54771   0.21681   0.00000  Uiso   1.00
N43    N     0.81841   0.94521   0.12127   0.00000  Uiso   1.00
N44    N     0.37294   0.56932   0.02956   0.00000  Uiso   1.00
N45    N     0.37427   0.57568   0.21662   0.00000  Uiso   1.00
N46    N     0.11829   0.97318   0.12107   0.00000  Uiso   1.00
C47    C     0.53778   0.82436   0.62261   0.00000  Uiso   1.00
C48    C     0.43396   0.85452   0.59697   0.00000  Uiso   1.00
C49    C     0.51370   0.89548   0.57552   0.00000  Uiso   1.00
C50    C     0.39497   0.91796   0.55392   0.00000  Uiso   1.00
C51    C     0.26288   0.96755   0.51413   0.00000  Uiso   1.00
C52    C     0.43358   0.85278   0.64852   0.00000  Uiso   1.00
C53    C     0.51302   0.89226   0.67042   0.00000  Uiso   1.00
C54    C     0.39397   0.91327   0.69222   0.00000  Uiso   1.00
C55    C     0.26132   0.96011   0.73248   0.00000  Uiso   1.00
C56    C     0.50413   0.74324   0.62219   0.00000  Uiso   1.00
C57    C     0.64288   0.69060   0.62195   0.00000  Uiso   1.00
C58    C     0.58323   0.61938   0.62158   0.00000  Uiso   1.00
C59    C     0.56012   0.49613   0.62094   0.00000  Uiso   1.00
C60    C     0.18512   0.79147   0.62238   0.00000  Uiso   1.00
C61    C     0.24241   0.83666   0.59685   0.00000  Uiso   1.00
C62    C     0.12352   0.85908   0.57527   0.00000  Uiso   1.00
C63    C     0.20308   0.90006   0.55379   0.00000  Uiso   1.00
C64    C     0.24204   0.83492   0.64840   0.00000  Uiso   1.00
C65    C     0.12285   0.85587   0.67017   0.00000  Uiso   1.00
C66    C     0.20208   0.89537   0.69209   0.00000  Uiso   1.00
C67    C     0.31258   0.72537   0.62206   0.00000  Uiso   1.00
C68    C     0.25270   0.65421   0.62169   0.00000  Uiso   1.00
C69    C     0.39134   0.60148   0.62145   0.00000  Uiso   1.00
H70    H     0.68691   0.83827   0.62271   0.00000  Uiso   1.00
H71    H     0.66194   0.90930   0.57563   0.00000  Uiso   1.00
H72    H     0.66126   0.90608   0.67051   0.00000  Uiso   1.00
H73    H     0.79110   0.70445   0.62204   0.00000  Uiso   1.00
H74    H     0.54977   0.98018   0.52338   0.00000  Uiso   1.00
H75    H     0.54835   0.97337   0.72346   0.00000  Uiso   1.00
H76    H     0.82215   0.54820   0.62125   0.00000  Uiso   1.00
H77    H     0.03599   0.77756   0.62229   0.00000  Uiso   1.00
H78    H     0.97530   0.84525   0.57518   0.00000  Uiso   1.00
H79    H     0.97462   0.84203   0.67007   0.00000  Uiso   1.00
H80    H     0.10446   0.64041   0.62160   0.00000  Uiso   1.00
H81    H     0.99246   0.92820   0.52301   0.00000  Uiso   1.00
H82    H     0.99105   0.92139   0.72310   0.00000  Uiso   1.00
H83    H     0.26484   0.49622   0.62089   0.00000  Uiso   1.00
O84    O     0.24293   0.99984   0.49222   0.00000  Uiso   1.00
O85    O     0.24108   0.99089   0.75472   0.00000  Uiso   1.00
O86    O     0.60029   0.43308   0.62062   0.00000  Uiso   1.00
N87    N     0.42694   0.95865   0.52975   0.00000  Uiso   1.00
N88    N     0.42561   0.95229   0.71681   0.00000  Uiso   1.00
N89    N     0.68159   0.55479   0.62127   0.00000  Uiso   1.00
N90    N     0.12706   0.93068   0.52956   0.00000  Uiso   1.00
N91    N     0.12573   0.92432   0.71662   0.00000  Uiso   1.00
N92    N     0.38171   0.52682   0.62107   0.00000  Uiso   1.00
C93    C     0.03778   0.67564   0.37739   0.00000  Uiso   1.00
C94    C     0.93396   0.64548   0.40303   0.00000  Uiso   1.00
C95    C     0.01370   0.60452   0.42448   0.00000  Uiso   1.00
C96    C     0.89497   0.58204   0.44608   0.00000  Uiso   1.00
C97    C     0.76288   0.53245   0.48587   0.00000  Uiso   1.00
C98    C     0.93358   0.64722   0.35148   0.00000  Uiso   1.00
C99    C     0.01302   0.60774   0.32958   0.00000  Uiso   1.00
C100   C     0.89397   0.58673   0.30778   0.00000  Uiso   1.00
C101   C     0.76132   0.53989   0.26752   0.00000  Uiso   1.00
C102   C     0.00413   0.75676   0.37781   0.00000  Uiso   1.00
C103   C     0.14288   0.80940   0.37805   0.00000  Uiso   1.00
C104   C     0.08323   0.88062   0.37842   0.00000  Uiso   1.00
C105   C     0.06012   0.00387   0.37906   0.00000  Uiso   1.00
C106   C     0.68512   0.70853   0.37762   0.00000  Uiso   1.00
C107   C     0.74241   0.66334   0.40315   0.00000  Uiso   1.00
C108   C     0.62352   0.64092   0.42473   0.00000  Uiso   1.00
C109   C     0.70308   0.59994   0.44621   0.00000  Uiso   1.00
C110   C     0.74204   0.66508   0.35160   0.00000  Uiso   1.00
C111   C     0.62285   0.64413   0.32983   0.00000  Uiso   1.00
C112   C     0.70208   0.60463   0.30791   0.00000  Uiso   1.00
C113   C     0.81258   0.77463   0.37794   0.00000  Uiso   1.00
C114   C     0.75270   0.84579   0.37831   0.00000  Uiso   1.00
C115   C     0.89134   0.89852   0.37855   0.00000  Uiso   1.00
H116   H     0.18691   0.66173   0.37729   0.00000  Uiso   1.00
H117   H     0.16194   0.59070   0.42437   0.00000  Uiso   1.00
H118   H     0.16126   0.59392   0.32949   0.00000  Uiso   1.00
H119   H     0.29110   0.79555   0.37796   0.00000  Uiso   1.00
H120   H     0.04977   0.51982   0.47662   0.00000  Uiso   1.00
H121   H     0.04835   0.52663   0.27654   0.00000  Uiso   1.00
H122   H     0.32215   0.95180   0.37875   0.00000  Uiso   1.00
H123   H     0.53599   0.72244   0.37771   0.00000  Uiso   1.00
H124   H     0.47530   0.65475   0.42482   0.00000  Uiso   1.00
H125   H     0.47462   0.65797   0.32993   0.00000  Uiso   1.00
H126   H     0.60446   0.85959   0.37840   0.00000  Uiso   1.00
H127   H     0.49246   0.57180   0.47699   0.00000  Uiso   1.00
H128   H     0.49105   0.57861   0.27690   0.00000  Uiso   1.00
H129   H     0.76484   0.00378   0.37911   0.00000  Uiso   1.00
O130   O     0.74293   0.50016   0.50778   0.00000  Uiso   1.00
O131   O     0.74108   0.50911   0.24528   0.00000  Uiso   1.00
O132   O     0.10029   0.06692   0.37938   0.00000  Uiso   1.00
N133   N     0.92694   0.54135   0.47025   0.00000  Uiso   1.00
N134   N     0.92561   0.54771   0.28319   0.00000  Uiso   1.00
N135   N     0.18159   0.94521   0.37873   0.00000  Uiso   1.00
N136   N     0.62706   0.56932   0.47044   0.00000  Uiso   1.00
N137   N     0.62573   0.57568   0.28338   0.00000  Uiso   1.00
N138   N     0.88171   0.97318   0.37893   0.00000  Uiso   1.00
C139   C     0.46222   0.82436   0.87739   0.00000  Uiso   1.00
C140   C     0.56604   0.85452   0.90303   0.00000  Uiso   1.00
C141   C     0.48630   0.89548   0.92448   0.00000  Uiso   1.00
C142   C     0.60503   0.91796   0.94608   0.00000  Uiso   1.00
C143   C     0.73712   0.96755   0.98587   0.00000  Uiso   1.00
C144   C     0.56642   0.85278   0.85148   0.00000  Uiso   1.00
C145   C     0.48698   0.89226   0.82958   0.00000  Uiso   1.00
C146   C     0.60603   0.91327   0.80778   0.00000  Uiso   1.00
C147   C     0.73868   0.96011   0.76752   0.00000  Uiso   1.00
C148   C     0.49587   0.74324   0.87781   0.00000  Uiso   1.00
C149   C     0.35712   0.69060   0.87805   0.00000  Uiso   1.00
C150   C     0.41677   0.61938   0.87842   0.00000  Uiso   1.00
C151   C     0.43988   0.49613   0.87906   0.00000  Uiso   1.00
C152   C     0.81488   0.79147   0.87762   0.00000  Uiso   1.00
C153   C     0.75759   0.83666   0.90315   0.00000  Uiso   1.00
C154   C     0.87648   0.85908   0.92473   0.00000  Uiso   1.00
C155   C     0.79692   0.90006   0.94621   0.00000  Uiso   1.00
C156   C     0.75796   0.83492   0.85160   0.00000  Uiso   1.00
C157   C     0.87715   0.85587   0.82983   0.00000  Uiso   1.00
C158   C     0.79792   0.89537   0.80791   0.00000  Uiso   1.00
C159   C     0.68742   0.72537   0.87794   0.00000  Uiso   1.00
C160   C     0.74730   0.65421   0.87831   0.00000  Uiso   1.00
C161   C     0.60866   0.60148   0.87855   0.00000  Uiso   1.00
H162   H     0.31309   0.83827   0.87729   0.00000  Uiso   1.00
H163   H     0.33806   0.90930   0.92437   0.00000  Uiso   1.00
H164   H     0.33874   0.90608   0.82949   0.00000  Uiso   1.00
H165   H     0.20890   0.70445   0.87796   0.00000  Uiso   1.00
H166   H     0.45023   0.98018   0.97662   0.00000  Uiso   1.00
H167   H     0.45165   0.97337   0.77654   0.00000  Uiso   1.00
H168   H     0.17785   0.54820   0.87875   0.00000  Uiso   1.00
H169   H     0.96401   0.77756   0.87771   0.00000  Uiso   1.00
H170   H     0.02470   0.84525   0.92482   0.00000  Uiso   1.00
H171   H     0.02538   0.84203   0.82993   0.00000  Uiso   1.00
H172   H     0.89554   0.64041   0.87840   0.00000  Uiso   1.00
H173   H     0.00754   0.92820   0.97699   0.00000  Uiso   1.00
H174   H     0.00895   0.92139   0.77690   0.00000  Uiso   1.00
H175   H     0.73516   0.49622   0.87911   0.00000  Uiso   1.00
O176   O     0.75707   0.99984   0.00778   0.00000  Uiso   1.00
O177   O     0.75892   0.99089   0.74528   0.00000  Uiso   1.00
O178   O     0.39971   0.43308   0.87938   0.00000  Uiso   1.00
N179   N     0.57306   0.95865   0.97025   0.00000  Uiso   1.00
N180   N     0.57439   0.95229   0.78319   0.00000  Uiso   1.00
N181   N     0.31841   0.55479   0.87873   0.00000  Uiso   1.00
N182   N     0.87294   0.93068   0.97044   0.00000  Uiso   1.00
N183   N     0.87427   0.92432   0.78338   0.00000  Uiso   1.00
N184   N     0.61829   0.52682   0.87893   0.00000  Uiso   1.00
C185   C     0.03778   0.32436   0.87739   0.00000  Uiso   1.00
C186   C     0.93396   0.35452   0.90303   0.00000  Uiso   1.00
C187   C     0.01370   0.39548   0.92448   0.00000  Uiso   1.00
C188   C     0.89497   0.41796   0.94608   0.00000  Uiso   1.00
C189   C     0.76288   0.46755   0.98587   0.00000  Uiso   1.00
C190   C     0.93358   0.35278   0.85148   0.00000  Uiso   1.00
C191   C     0.01302   0.39226   0.82958   0.00000  Uiso   1.00
C192   C     0.89397   0.41327   0.80778   0.00000  Uiso   1.00
C193   C     0.76132   0.46011   0.76752   0.00000  Uiso   1.00
C194   C     0.00413   0.24324   0.87781   0.00000  Uiso   1.00
C195   C     0.14288   0.19060   0.87805   0.00000  Uiso   1.00
C196   C     0.08323   0.11938   0.87842   0.00000  Uiso   1.00
C197   C     0.06012   0.99613   0.87906   0.00000  Uiso   1.00
C198   C     0.68512   0.29147   0.87762   0.00000  Uiso   1.00
C199   C     0.74241   0.33666   0.90315   0.00000  Uiso   1.00
C200   C     0.62352   0.35908   0.92473   0.00000  Uiso   1.00
C201   C     0.70308   0.40006   0.94621   0.00000  Uiso   1.00
C202   C     0.74204   0.33492   0.85160   0.00000  Uiso   1.00
C203   C     0.62285   0.35587   0.82983   0.00000  Uiso   1.00
C204   C     0.70208   0.39537   0.80791   0.00000  Uiso   1.00
C205   C     0.81258   0.22537   0.87794   0.00000  Uiso   1.00
C206   C     0.75270   0.15421   0.87831   0.00000  Uiso   1.00
C207   C     0.89134   0.10148   0.87855   0.00000  Uiso   1.00
H208   H     0.18691   0.33827   0.87729   0.00000  Uiso   1.00
H209   H     0.16194   0.40930   0.92437   0.00000  Uiso   1.00
H210   H     0.16126   0.40608   0.82949   0.00000  Uiso   1.00
H211   H     0.29110   0.20445   0.87796   0.00000  Uiso   1.00
H212   H     0.04977   0.48018   0.97662   0.00000  Uiso   1.00
H213   H     0.04835   0.47337   0.77654   0.00000  Uiso   1.00
H214   H     0.32215   0.04820   0.87875   0.00000  Uiso   1.00
H215   H     0.53599   0.27756   0.87771   0.00000  Uiso   1.00
H216   H     0.47530   0.34525   0.92482   0.00000  Uiso   1.00
H217   H     0.47462   0.34203   0.82993   0.00000  Uiso   1.00
H218   H     0.60446   0.14041   0.87840   0.00000  Uiso   1.00
H219   H     0.49246   0.42820   0.97699   0.00000  Uiso   1.00
H220   H     0.49105   0.42139   0.77690   0.00000  Uiso   1.00
H221   H     0.76484   0.99622   0.87911   0.00000  Uiso   1.00
O222   O     0.74293   0.49984   0.00778   0.00000  Uiso   1.00
O223   O     0.74108   0.49089   0.74528   0.00000  Uiso   1.00
O224   O     0.10029   0.93308   0.87938   0.00000  Uiso   1.00
N225   N     0.92694   0.45865   0.97025   0.00000  Uiso   1.00
N226   N     0.92561   0.45229   0.78319   0.00000  Uiso   1.00
N227   N     0.18159   0.05479   0.87873   0.00000  Uiso   1.00
N228   N     0.62706   0.43068   0.97044   0.00000  Uiso   1.00
N229   N     0.62573   0.42432   0.78338   0.00000  Uiso   1.00
N230   N     0.88171   0.02682   0.87893   0.00000  Uiso   1.00
C231   C     0.46222   0.17564   0.37739   0.00000  Uiso   1.00
C232   C     0.56604   0.14548   0.40303   0.00000  Uiso   1.00
C233   C     0.48630   0.10452   0.42448   0.00000  Uiso   1.00
C234   C     0.60503   0.08204   0.44608   0.00000  Uiso   1.00
C235   C     0.73712   0.03245   0.48587   0.00000  Uiso   1.00
C236   C     0.56642   0.14722   0.35148   0.00000  Uiso   1.00
C237   C     0.48698   0.10774   0.32958   0.00000  Uiso   1.00
C238   C     0.60603   0.08673   0.30778   0.00000  Uiso   1.00
C239   C     0.73868   0.03989   0.26752   0.00000  Uiso   1.00
C240   C     0.49587   0.25676   0.37781   0.00000  Uiso   1.00
C241   C     0.35712   0.30940   0.37805   0.00000  Uiso   1.00
C242   C     0.41677   0.38062   0.37842   0.00000  Uiso   1.00
C243   C     0.43988   0.50387   0.37906   0.00000  Uiso   1.00
C244   C     0.81488   0.20853   0.37762   0.00000  Uiso   1.00
C245   C     0.75759   0.16334   0.40315   0.00000  Uiso   1.00
C246   C     0.87648   0.14092   0.42473   0.00000  Uiso   1.00
C247   C     0.79692   0.09994   0.44621   0.00000  Uiso   1.00
C248   C     0.75796   0.16508   0.35160   0.00000  Uiso   1.00
C249   C     0.87715   0.14413   0.32983   0.00000  Uiso   1.00
C250   C     0.79792   0.10463   0.30791   0.00000  Uiso   1.00
C251   C     0.68742   0.27463   0.37794   0.00000  Uiso   1.00
C252   C     0.74730   0.34579   0.37831   0.00000  Uiso   1.00
C253   C     0.60866   0.39852   0.37855   0.00000  Uiso   1.00
H254   H     0.31309   0.16173   0.37729   0.00000  Uiso   1.00
H255   H     0.33806   0.09070   0.42437   0.00000  Uiso   1.00
H256   H     0.33874   0.09392   0.32949   0.00000  Uiso   1.00
H257   H     0.20890   0.29555   0.37796   0.00000  Uiso   1.00
H258   H     0.45023   0.01982   0.47662   0.00000  Uiso   1.00
H259   H     0.45165   0.02663   0.27654   0.00000  Uiso   1.00
H260   H     0.17785   0.45180   0.37875   0.00000  Uiso   1.00
H261   H     0.96401   0.22244   0.37771   0.00000  Uiso   1.00
H262   H     0.02470   0.15475   0.42482   0.00000  Uiso   1.00
H263   H     0.02538   0.15797   0.32993   0.00000  Uiso   1.00
H264   H     0.89554   0.35959   0.37840   0.00000  Uiso   1.00
H265   H     0.00754   0.07180   0.47699   0.00000  Uiso   1.00
H266   H     0.00895   0.07861   0.27690   0.00000  Uiso   1.00
H267   H     0.73516   0.50378   0.37911   0.00000  Uiso   1.00
O268   O     0.75707   0.00016   0.50778   0.00000  Uiso   1.00
O269   O     0.75892   0.00911   0.24528   0.00000  Uiso   1.00
O270   O     0.39971   0.56692   0.37938   0.00000  Uiso   1.00
N271   N     0.57306   0.04135   0.47025   0.00000  Uiso   1.00
N272   N     0.57439   0.04771   0.28319   0.00000  Uiso   1.00
N273   N     0.31841   0.44521   0.37873   0.00000  Uiso   1.00
N274   N     0.87294   0.06932   0.47044   0.00000  Uiso   1.00
N275   N     0.87427   0.07568   0.28338   0.00000  Uiso   1.00
N276   N     0.61829   0.47318   0.37893   0.00000  Uiso   1.00
C277   C     0.96222   0.32436   0.62261   0.00000  Uiso   1.00
C278   C     0.06604   0.35452   0.59697   0.00000  Uiso   1.00
C279   C     0.98630   0.39548   0.57552   0.00000  Uiso   1.00
C280   C     0.10503   0.41796   0.55392   0.00000  Uiso   1.00
C281   C     0.23712   0.46755   0.51413   0.00000  Uiso   1.00
C282   C     0.06642   0.35278   0.64852   0.00000  Uiso   1.00
C283   C     0.98698   0.39226   0.67042   0.00000  Uiso   1.00
C284   C     0.10603   0.41327   0.69222   0.00000  Uiso   1.00
C285   C     0.23868   0.46011   0.73248   0.00000  Uiso   1.00
C286   C     0.99587   0.24324   0.62219   0.00000  Uiso   1.00
C287   C     0.85712   0.19060   0.62195   0.00000  Uiso   1.00
C288   C     0.91677   0.11938   0.62158   0.00000  Uiso   1.00
C289   C     0.93988   0.99613   0.62094   0.00000  Uiso   1.00
C290   C     0.31488   0.29147   0.62238   0.00000  Uiso   1.00
C291   C     0.25759   0.33666   0.59685   0.00000  Uiso   1.00
C292   C     0.37648   0.35908   0.57527   0.00000  Uiso   1.00
C293   C     0.29692   0.40006   0.55379   0.00000  Uiso   1.00
C294   C     0.25796   0.33492   0.64840   0.00000  Uiso   1.00
C295   C     0.37715   0.35587   0.67017   0.00000  Uiso   1.00
C296   C     0.29792   0.39537   0.69209   0.00000  Uiso   1.00
C297   C     0.18742   0.22537   0.62206   0.00000  Uiso   1.00
C298   C     0.24730   0.15421   0.62169   0.00000  Uiso   1.00
C299   C     0.10866   0.10148   0.62145   0.00000  Uiso   1.00
H300   H     0.81309   0.33827   0.62271   0.00000  Uiso   1.00
H301   H     0.83806   0.40930   0.57563   0.00000  Uiso   1.00
H302   H     0.83874   0.40608   0.67051   0.00000  Uiso   1.00
H303   H     0.70890   0.20445   0.62204   0.00000  Uiso   1.00
H304   H     0.95023   0.48018   0.52338   0.00000  Uiso   1.00
H305   H     0.95165   0.47337   0.72346   0.00000  Uiso   1.00
H306   H     0.67785   0.04820   0.62125   0.00000  Uiso   1.00
H307   H     0.46401   0.27756   0.62229   0.00000  Uiso   1.00
H308   H     0.52470   0.34525   0.57518   0.00000  Uiso   1.00
H309   H     0.52538   0.34203   0.67007   0.00000  Uiso   1.00
H310   H     0.39554   0.14041   0.62160   0.00000  Uiso   1.00
H311   H     0.50754   0.42820   0.52301   0.00000  Uiso   1.00
H312   H     0.50895   0.42139   0.72310   0.00000  Uiso   1.00
H313   H     0.23516   0.99622   0.62089   0.00000  Uiso   1.00
O314   O     0.25707   0.49984   0.49222   0.00000  Uiso   1.00
O315   O     0.25892   0.49089   0.75472   0.00000  Uiso   1.00
O316   O     0.89971   0.93308   0.62062   0.00000  Uiso   1.00
N317   N     0.07306   0.45865   0.52975   0.00000  Uiso   1.00
N318   N     0.07439   0.45229   0.71681   0.00000  Uiso   1.00
N319   N     0.81841   0.05479   0.62127   0.00000  Uiso   1.00
N320   N     0.37294   0.43068   0.52956   0.00000  Uiso   1.00
N321   N     0.37427   0.42432   0.71662   0.00000  Uiso   1.00
N322   N     0.11829   0.02682   0.62107   0.00000  Uiso   1.00
C323   C     0.53778   0.17564   0.12261   0.00000  Uiso   1.00
C324   C     0.43396   0.14548   0.09697   0.00000  Uiso   1.00
C325   C     0.51370   0.10452   0.07552   0.00000  Uiso   1.00
C326   C     0.39497   0.08204   0.05392   0.00000  Uiso   1.00
C327   C     0.26288   0.03245   0.01413   0.00000  Uiso   1.00
C328   C     0.43358   0.14722   0.14852   0.00000  Uiso   1.00
C329   C     0.51302   0.10774   0.17042   0.00000  Uiso   1.00
C330   C     0.39397   0.08673   0.19222   0.00000  Uiso   1.00
C331   C     0.26132   0.03989   0.23248   0.00000  Uiso   1.00
C332   C     0.50413   0.25676   0.12219   0.00000  Uiso   1.00
C333   C     0.64288   0.30940   0.12195   0.00000  Uiso   1.00
C334   C     0.58323   0.38062   0.12158   0.00000  Uiso   1.00
C335   C     0.56012   0.50387   0.12094   0.00000  Uiso   1.00
C336   C     0.18512   0.20853   0.12238   0.00000  Uiso   1.00
C337   C     0.24241   0.16334   0.09685   0.00000  Uiso   1.00
C338   C     0.12352   0.14092   0.07527   0.00000  Uiso   1.00
C339   C     0.20308   0.09994   0.05379   0.00000  Uiso   1.00
C340   C     0.24204   0.16508   0.14840   0.00000  Uiso   1.00
C341   C     0.12285   0.14413   0.17017   0.00000  Uiso   1.00
C342   C     0.20208   0.10463   0.19209   0.00000  Uiso   1.00
C343   C     0.31258   0.27463   0.12206   0.00000  Uiso   1.00
C344   C     0.25270   0.34579   0.12169   0.00000  Uiso   1.00
C345   C     0.39134   0.39852   0.12145   0.00000  Uiso   1.00
H346   H     0.68691   0.16173   0.12271   0.00000  Uiso   1.00
H347   H     0.66194   0.09070   0.07563   0.00000  Uiso   1.00
H348   H     0.66126   0.09392   0.17051   0.00000  Uiso   1.00
H349   H     0.79110   0.29555   0.12204   0.00000  Uiso   1.00
H350   H     0.54977   0.01982   0.02338   0.00000  Uiso   1.00
H351   H     0.54835   0.02663   0.22346   0.00000  Uiso   1.00
H352   H     0.82215   0.45180   0.12125   0.00000  Uiso   1.00
H353   H     0.03599   0.22244   0.12229   0.00000  Uiso   1.00
H354   H     0.97530   0.15475   0.07518   0.00000  Uiso   1.00
H355   H     0.97462   0.15797   0.17007   0.00000  Uiso   1.00
H356   H     0.10446   0.35959   0.12160   0.00000  Uiso   1.00
H357   H     0.99246   0.07180   0.02301   0.00000  Uiso   1.00
H358   H     0.99105   0.07861   0.22310   0.00000  Uiso   1.00
H359   H     0.26484   0.50378   0.12089   0.00000  Uiso   1.00
O360   O     0.24293   0.00016   0.99222   0.00000  Uiso   1.00
O361   O     0.24108   0.00911   0.25472   0.00000  Uiso   1.00
O362   O     0.60029   0.56692   0.12062   0.00000  Uiso   1.00
N363   N     0.42694   0.04135   0.02975   0.00000  Uiso   1.00
N364   N     0.42561   0.04771   0.21681   0.00000  Uiso   1.00
N365   N     0.68159   0.44521   0.12127   0.00000  Uiso   1.00
N366   N     0.12706   0.06932   0.02956   0.00000  Uiso   1.00
N367   N     0.12573   0.07568   0.21662   0.00000  Uiso   1.00
N368   N     0.38171   0.47318   0.12107   0.00000  Uiso   1.00
