data_job_01042
_audit_creation_date              2018-12-19
_audit_creation_method            'Materials Studio'
_symmetry_space_group_name_H-M    'P1'
_symmetry_Int_Tables_number       1
_symmetry_cell_setting            triclinic
loop_
_symmetry_equiv_pos_as_xyz
  x,y,z
_cell_length_a                    11.2373
_cell_length_b                    11.2373
_cell_length_c                    63.7112
_cell_angle_alpha                 90.0000
_cell_angle_beta                  90.0000
_cell_angle_gamma                 120.0000
loop_
_atom_site_label
_atom_site_type_symbol
_atom_site_fract_x
_atom_site_fract_y
_atom_site_fract_z
_atom_site_U_iso_or_equiv
_atom_site_adp_type
_atom_site_occupancy
C1     C     0.25527   0.32414   0.11575   0.00000  Uiso   1.00
C2     C     0.28708   0.40767   0.13592   0.00000  Uiso   1.00
C3     C     0.40937   0.46338   0.14708   0.00000  Uiso   1.00
C4     C     0.41823   0.53641   0.16516   0.00000  Uiso   1.00
C5     C     0.48426   0.66353   0.19547   0.00000  Uiso   1.00
C6     C     0.12515   0.18768   0.12014   0.00000  Uiso   1.00
C7     C     0.11129   0.05842   0.11802   0.00000  Uiso   1.00
C8     C     0.98383   0.94626   0.12281   0.00000  Uiso   1.00
C9     C     0.79844   0.73183   0.12861   0.00000  Uiso   1.00
C10    C     0.21533   0.39805   0.09958   0.00000  Uiso   1.00
C11    C     0.27726   0.44563   0.08018   0.00000  Uiso   1.00
C12    C     0.22570   0.51056   0.06765   0.00000  Uiso   1.00
C13    C     0.18032   0.62275   0.04153   0.00000  Uiso   1.00
C14    C     0.05353   0.35479   0.12799   0.00000  Uiso   1.00
C15    C     0.17750   0.42432   0.14257   0.00000  Uiso   1.00
C16    C     0.18617   0.49729   0.16063   0.00000  Uiso   1.00
C17    C     0.30846   0.55309   0.17182   0.00000  Uiso   1.00
C18    C     0.01557   0.20432   0.12679   0.00000  Uiso   1.00
C19    C     0.88810   0.09233   0.13157   0.00000  Uiso   1.00
C20    C     0.87405   0.96293   0.12947   0.00000  Uiso   1.00
C21    C     0.10575   0.41470   0.10623   0.00000  Uiso   1.00
C22    C     0.05407   0.47955   0.09373   0.00000  Uiso   1.00
C23    C     0.11592   0.52723   0.07431   0.00000  Uiso   1.00
H24    H     0.34057   0.31117   0.11057   0.00000  Uiso   1.00
H25    H     0.49414   0.45046   0.14193   0.00000  Uiso   1.00
H26    H     0.19611   0.04557   0.11287   0.00000  Uiso   1.00
H27    H     0.36206   0.43273   0.07503   0.00000  Uiso   1.00
H28    H     0.61606   0.61219   0.17964   0.00000  Uiso   1.00
H29    H     0.98763   0.75845   0.11837   0.00000  Uiso   1.00
H30    H     0.33756   0.57485   0.03857   0.00000  Uiso   1.00
H31    H     0.96821   0.36774   0.13317   0.00000  Uiso   1.00
H32    H     0.10136   0.51015   0.16578   0.00000  Uiso   1.00
H33    H     0.80332   0.10525   0.13672   0.00000  Uiso   1.00
H34    H     0.96927   0.49241   0.09888   0.00000  Uiso   1.00
H35    H     0.29726   0.66063   0.19900   0.00000  Uiso   1.00
H36    H     0.66882   0.80689   0.13772   0.00000  Uiso   1.00
H37    H     0.01876   0.62329   0.05793   0.00000  Uiso   1.00
O38    O     0.55095   0.72903   0.21036   0.00000  Uiso   1.00
O39    O     0.72646   0.60896   0.12997   0.00000  Uiso   1.00
O40    O     0.18557   0.68006   0.02528   0.00000  Uiso   1.00
N41    N     0.52277   0.60407   0.17972   0.00000  Uiso   1.00
N42    N     0.93523   0.80588   0.12243   0.00000  Uiso   1.00
N43    N     0.26236   0.56911   0.04783   0.00000  Uiso   1.00
N44    N     0.35123   0.63014   0.19013   0.00000  Uiso   1.00
N45    N     0.76368   0.83195   0.13285   0.00000  Uiso   1.00
N46    N     0.09082   0.59518   0.05825   0.00000  Uiso   1.00
C47    C     0.67586   0.93113   0.78241   0.00000  Uiso   1.00
C48    C     0.59233   0.87940   0.80259   0.00000  Uiso   1.00
C49    C     0.53662   0.94600   0.81375   0.00000  Uiso   1.00
C50    C     0.46359   0.88182   0.83182   0.00000  Uiso   1.00
C51    C     0.33647   0.82074   0.86214   0.00000  Uiso   1.00
C52    C     0.81232   0.93747   0.78680   0.00000  Uiso   1.00
C53    C     0.94158   0.05288   0.78469   0.00000  Uiso   1.00
C54    C     0.05374   0.03757   0.78947   0.00000  Uiso   1.00
C55    C     0.26817   0.06660   0.79527   0.00000  Uiso   1.00
C56    C     0.60195   0.81728   0.76624   0.00000  Uiso   1.00
C57    C     0.55437   0.83164   0.74684   0.00000  Uiso   1.00
C58    C     0.48944   0.71514   0.73432   0.00000  Uiso   1.00
C59    C     0.37725   0.55757   0.70819   0.00000  Uiso   1.00
C60    C     0.64521   0.69874   0.79466   0.00000  Uiso   1.00
C61    C     0.57568   0.75318   0.80924   0.00000  Uiso   1.00
C62    C     0.50271   0.68889   0.82730   0.00000  Uiso   1.00
C63    C     0.44691   0.75537   0.83849   0.00000  Uiso   1.00
C64    C     0.79568   0.81125   0.79346   0.00000  Uiso   1.00
C65    C     0.90767   0.79577   0.79824   0.00000  Uiso   1.00
C66    C     0.03707   0.91112   0.79614   0.00000  Uiso   1.00
C67    C     0.58530   0.69105   0.77290   0.00000  Uiso   1.00
C68    C     0.52045   0.57452   0.76040   0.00000  Uiso   1.00
C69    C     0.47277   0.58869   0.74098   0.00000  Uiso   1.00
H70    H     0.68883   0.02941   0.77723   0.00000  Uiso   1.00
H71    H     0.54954   0.04369   0.80860   0.00000  Uiso   1.00
H72    H     0.95443   0.15054   0.77954   0.00000  Uiso   1.00
H73    H     0.56727   0.92933   0.74170   0.00000  Uiso   1.00
H74    H     0.38781   0.00388   0.84631   0.00000  Uiso   1.00
H75    H     0.24155   0.22917   0.78503   0.00000  Uiso   1.00
H76    H     0.42515   0.76271   0.70524   0.00000  Uiso   1.00
H77    H     0.63226   0.60047   0.79984   0.00000  Uiso   1.00
H78    H     0.48985   0.59121   0.83244   0.00000  Uiso   1.00
H79    H     0.89475   0.69807   0.80339   0.00000  Uiso   1.00
H80    H     0.50759   0.47686   0.76555   0.00000  Uiso   1.00
H81    H     0.33937   0.63663   0.86566   0.00000  Uiso   1.00
H82    H     0.19311   0.86193   0.80439   0.00000  Uiso   1.00
H83    H     0.37671   0.39547   0.72460   0.00000  Uiso   1.00
O84    O     0.27097   0.82192   0.87703   0.00000  Uiso   1.00
O85    O     0.39104   0.11750   0.79663   0.00000  Uiso   1.00
O86    O     0.31994   0.50552   0.69195   0.00000  Uiso   1.00
N87    N     0.39593   0.91870   0.84638   0.00000  Uiso   1.00
N88    N     0.19412   0.12935   0.78910   0.00000  Uiso   1.00
N89    N     0.43089   0.69326   0.71450   0.00000  Uiso   1.00
N90    N     0.36986   0.72109   0.85680   0.00000  Uiso   1.00
N91    N     0.16805   0.93174   0.79952   0.00000  Uiso   1.00
N92    N     0.40482   0.49564   0.72491   0.00000  Uiso   1.00
C93    C     0.06887   0.74473   0.44908   0.00000  Uiso   1.00
C94    C     0.12060   0.71292   0.46925   0.00000  Uiso   1.00
C95    C     0.05400   0.59063   0.48042   0.00000  Uiso   1.00
C96    C     0.11818   0.58177   0.49849   0.00000  Uiso   1.00
C97    C     0.17926   0.51574   0.52881   0.00000  Uiso   1.00
C98    C     0.06253   0.87485   0.45347   0.00000  Uiso   1.00
C99    C     0.94712   0.88871   0.45136   0.00000  Uiso   1.00
C100   C     0.96243   0.01617   0.45614   0.00000  Uiso   1.00
C101   C     0.93340   0.20156   0.46194   0.00000  Uiso   1.00
C102   C     0.18272   0.78467   0.43291   0.00000  Uiso   1.00
C103   C     0.16836   0.72274   0.41351   0.00000  Uiso   1.00
C104   C     0.28486   0.77430   0.40098   0.00000  Uiso   1.00
C105   C     0.44243   0.81968   0.37486   0.00000  Uiso   1.00
C106   C     0.30126   0.94647   0.46133   0.00000  Uiso   1.00
C107   C     0.24682   0.82250   0.47591   0.00000  Uiso   1.00
C108   C     0.31111   0.81383   0.49397   0.00000  Uiso   1.00
C109   C     0.24463   0.69154   0.50515   0.00000  Uiso   1.00
C110   C     0.18875   0.98443   0.46012   0.00000  Uiso   1.00
C111   C     0.20423   0.11190   0.46491   0.00000  Uiso   1.00
C112   C     0.08888   0.12595   0.46281   0.00000  Uiso   1.00
C113   C     0.30895   0.89425   0.43956   0.00000  Uiso   1.00
C114   C     0.42548   0.94593   0.42706   0.00000  Uiso   1.00
C115   C     0.41131   0.88408   0.40765   0.00000  Uiso   1.00
H116   H     0.97059   0.65943   0.44390   0.00000  Uiso   1.00
H117   H     0.95631   0.50586   0.47526   0.00000  Uiso   1.00
H118   H     0.84946   0.80389   0.44621   0.00000  Uiso   1.00
H119   H     0.07067   0.63794   0.40837   0.00000  Uiso   1.00
H120   H     0.99612   0.38394   0.51297   0.00000  Uiso   1.00
H121   H     0.77083   0.01237   0.45170   0.00000  Uiso   1.00
H122   H     0.23729   0.66244   0.37191   0.00000  Uiso   1.00
H123   H     0.39953   0.03179   0.46651   0.00000  Uiso   1.00
H124   H     0.40879   0.89864   0.49911   0.00000  Uiso   1.00
H125   H     0.30193   0.19668   0.47005   0.00000  Uiso   1.00
H126   H     0.52314   0.03073   0.43222   0.00000  Uiso   1.00
H127   H     0.36337   0.70274   0.53233   0.00000  Uiso   1.00
H128   H     0.13807   0.33118   0.47105   0.00000  Uiso   1.00
H129   H     0.60453   0.98124   0.39126   0.00000  Uiso   1.00
O130   O     0.17808   0.44905   0.54369   0.00000  Uiso   1.00
O131   O     0.88250   0.27354   0.46330   0.00000  Uiso   1.00
O132   O     0.49448   0.81443   0.35862   0.00000  Uiso   1.00
N133   N     0.08130   0.47723   0.51305   0.00000  Uiso   1.00
N134   N     0.87065   0.06477   0.45577   0.00000  Uiso   1.00
N135   N     0.30674   0.73764   0.38116   0.00000  Uiso   1.00
N136   N     0.27891   0.64877   0.52347   0.00000  Uiso   1.00
N137   N     0.06826   0.23632   0.46618   0.00000  Uiso   1.00
N138   N     0.50436   0.90918   0.39158   0.00000  Uiso   1.00
C139   C     0.74473   0.67586   0.61575   0.00000  Uiso   1.00
C140   C     0.71292   0.59233   0.63592   0.00000  Uiso   1.00
C141   C     0.59063   0.53662   0.64708   0.00000  Uiso   1.00
C142   C     0.58177   0.46359   0.66516   0.00000  Uiso   1.00
C143   C     0.51574   0.33647   0.69547   0.00000  Uiso   1.00
C144   C     0.87485   0.81232   0.62014   0.00000  Uiso   1.00
C145   C     0.88871   0.94158   0.61802   0.00000  Uiso   1.00
C146   C     0.01617   0.05374   0.62281   0.00000  Uiso   1.00
C147   C     0.20156   0.26817   0.62861   0.00000  Uiso   1.00
C148   C     0.78467   0.60195   0.59958   0.00000  Uiso   1.00
C149   C     0.72274   0.55437   0.58018   0.00000  Uiso   1.00
C150   C     0.77430   0.48944   0.56765   0.00000  Uiso   1.00
C151   C     0.81968   0.37725   0.54153   0.00000  Uiso   1.00
C152   C     0.94647   0.64521   0.62799   0.00000  Uiso   1.00
C153   C     0.82250   0.57568   0.64257   0.00000  Uiso   1.00
C154   C     0.81383   0.50271   0.66063   0.00000  Uiso   1.00
C155   C     0.69154   0.44691   0.67182   0.00000  Uiso   1.00
C156   C     0.98443   0.79568   0.62679   0.00000  Uiso   1.00
C157   C     0.11190   0.90767   0.63157   0.00000  Uiso   1.00
C158   C     0.12595   0.03707   0.62947   0.00000  Uiso   1.00
C159   C     0.89425   0.58530   0.60623   0.00000  Uiso   1.00
C160   C     0.94593   0.52045   0.59373   0.00000  Uiso   1.00
C161   C     0.88408   0.47277   0.57431   0.00000  Uiso   1.00
H162   H     0.65943   0.68883   0.61057   0.00000  Uiso   1.00
H163   H     0.50586   0.54954   0.64193   0.00000  Uiso   1.00
H164   H     0.80389   0.95443   0.61287   0.00000  Uiso   1.00
H165   H     0.63794   0.56727   0.57503   0.00000  Uiso   1.00
H166   H     0.38394   0.38781   0.67964   0.00000  Uiso   1.00
H167   H     0.01237   0.24155   0.61837   0.00000  Uiso   1.00
H168   H     0.66244   0.42515   0.53857   0.00000  Uiso   1.00
H169   H     0.03179   0.63226   0.63317   0.00000  Uiso   1.00
H170   H     0.89864   0.48985   0.66578   0.00000  Uiso   1.00
H171   H     0.19668   0.89475   0.63672   0.00000  Uiso   1.00
H172   H     0.03073   0.50759   0.59888   0.00000  Uiso   1.00
H173   H     0.70274   0.33937   0.69900   0.00000  Uiso   1.00
H174   H     0.33118   0.19311   0.63772   0.00000  Uiso   1.00
H175   H     0.98124   0.37671   0.55793   0.00000  Uiso   1.00
O176   O     0.44905   0.27097   0.71036   0.00000  Uiso   1.00
O177   O     0.27354   0.39104   0.62997   0.00000  Uiso   1.00
O178   O     0.81443   0.31994   0.52528   0.00000  Uiso   1.00
N179   N     0.47723   0.39593   0.67972   0.00000  Uiso   1.00
N180   N     0.06477   0.19412   0.62243   0.00000  Uiso   1.00
N181   N     0.73764   0.43089   0.54783   0.00000  Uiso   1.00
N182   N     0.64877   0.36986   0.69013   0.00000  Uiso   1.00
N183   N     0.23632   0.16805   0.63285   0.00000  Uiso   1.00
N184   N     0.90918   0.40482   0.55825   0.00000  Uiso   1.00
C185   C     0.32414   0.06887   0.28241   0.00000  Uiso   1.00
C186   C     0.40767   0.12060   0.30259   0.00000  Uiso   1.00
C187   C     0.46338   0.05400   0.31375   0.00000  Uiso   1.00
C188   C     0.53641   0.11818   0.33182   0.00000  Uiso   1.00
C189   C     0.66353   0.17926   0.36214   0.00000  Uiso   1.00
C190   C     0.18768   0.06253   0.28680   0.00000  Uiso   1.00
C191   C     0.05842   0.94712   0.28469   0.00000  Uiso   1.00
C192   C     0.94626   0.96243   0.28947   0.00000  Uiso   1.00
C193   C     0.73183   0.93340   0.29527   0.00000  Uiso   1.00
C194   C     0.39805   0.18272   0.26624   0.00000  Uiso   1.00
C195   C     0.44563   0.16836   0.24684   0.00000  Uiso   1.00
C196   C     0.51056   0.28486   0.23432   0.00000  Uiso   1.00
C197   C     0.62275   0.44243   0.20819   0.00000  Uiso   1.00
C198   C     0.35479   0.30126   0.29466   0.00000  Uiso   1.00
C199   C     0.42432   0.24682   0.30924   0.00000  Uiso   1.00
C200   C     0.49729   0.31111   0.32730   0.00000  Uiso   1.00
C201   C     0.55309   0.24463   0.33849   0.00000  Uiso   1.00
C202   C     0.20432   0.18875   0.29346   0.00000  Uiso   1.00
C203   C     0.09233   0.20423   0.29824   0.00000  Uiso   1.00
C204   C     0.96293   0.08888   0.29614   0.00000  Uiso   1.00
C205   C     0.41470   0.30895   0.27290   0.00000  Uiso   1.00
C206   C     0.47955   0.42548   0.26040   0.00000  Uiso   1.00
C207   C     0.52723   0.41131   0.24098   0.00000  Uiso   1.00
H208   H     0.31117   0.97059   0.27723   0.00000  Uiso   1.00
H209   H     0.45046   0.95631   0.30860   0.00000  Uiso   1.00
H210   H     0.04557   0.84946   0.27954   0.00000  Uiso   1.00
H211   H     0.43273   0.07067   0.24170   0.00000  Uiso   1.00
H212   H     0.61219   0.99612   0.34631   0.00000  Uiso   1.00
H213   H     0.75845   0.77083   0.28503   0.00000  Uiso   1.00
H214   H     0.57485   0.23729   0.20524   0.00000  Uiso   1.00
H215   H     0.36774   0.39953   0.29984   0.00000  Uiso   1.00
H216   H     0.51015   0.40879   0.33244   0.00000  Uiso   1.00
H217   H     0.10525   0.30193   0.30339   0.00000  Uiso   1.00
H218   H     0.49241   0.52314   0.26555   0.00000  Uiso   1.00
H219   H     0.66063   0.36337   0.36566   0.00000  Uiso   1.00
H220   H     0.80689   0.13807   0.30439   0.00000  Uiso   1.00
H221   H     0.62329   0.60453   0.22460   0.00000  Uiso   1.00
O222   O     0.72903   0.17808   0.37703   0.00000  Uiso   1.00
O223   O     0.60896   0.88250   0.29663   0.00000  Uiso   1.00
O224   O     0.68006   0.49448   0.19195   0.00000  Uiso   1.00
N225   N     0.60407   0.08130   0.34638   0.00000  Uiso   1.00
N226   N     0.80588   0.87065   0.28910   0.00000  Uiso   1.00
N227   N     0.56911   0.30674   0.21450   0.00000  Uiso   1.00
N228   N     0.63014   0.27891   0.35680   0.00000  Uiso   1.00
N229   N     0.83195   0.06826   0.29952   0.00000  Uiso   1.00
N230   N     0.59518   0.50436   0.22491   0.00000  Uiso   1.00
C231   C     0.93113   0.25527   0.94908   0.00000  Uiso   1.00
C232   C     0.87940   0.28708   0.96925   0.00000  Uiso   1.00
C233   C     0.94600   0.40937   0.98042   0.00000  Uiso   1.00
C234   C     0.88182   0.41823   0.99849   0.00000  Uiso   1.00
C235   C     0.82074   0.48426   0.02881   0.00000  Uiso   1.00
C236   C     0.93747   0.12515   0.95347   0.00000  Uiso   1.00
C237   C     0.05288   0.11129   0.95136   0.00000  Uiso   1.00
C238   C     0.03757   0.98383   0.95614   0.00000  Uiso   1.00
C239   C     0.06660   0.79844   0.96194   0.00000  Uiso   1.00
C240   C     0.81728   0.21533   0.93291   0.00000  Uiso   1.00
C241   C     0.83164   0.27726   0.91351   0.00000  Uiso   1.00
C242   C     0.71514   0.22570   0.90098   0.00000  Uiso   1.00
C243   C     0.55757   0.18032   0.87486   0.00000  Uiso   1.00
C244   C     0.69874   0.05353   0.96133   0.00000  Uiso   1.00
C245   C     0.75318   0.17750   0.97591   0.00000  Uiso   1.00
C246   C     0.68889   0.18617   0.99397   0.00000  Uiso   1.00
C247   C     0.75537   0.30846   0.00515   0.00000  Uiso   1.00
C248   C     0.81125   0.01557   0.96012   0.00000  Uiso   1.00
C249   C     0.79577   0.88810   0.96491   0.00000  Uiso   1.00
C250   C     0.91112   0.87405   0.96281   0.00000  Uiso   1.00
C251   C     0.69105   0.10575   0.93956   0.00000  Uiso   1.00
C252   C     0.57452   0.05407   0.92706   0.00000  Uiso   1.00
C253   C     0.58869   0.11592   0.90765   0.00000  Uiso   1.00
H254   H     0.02941   0.34057   0.94390   0.00000  Uiso   1.00
H255   H     0.04369   0.49414   0.97526   0.00000  Uiso   1.00
H256   H     0.15054   0.19611   0.94621   0.00000  Uiso   1.00
H257   H     0.92933   0.36206   0.90837   0.00000  Uiso   1.00
H258   H     0.00388   0.61606   0.01297   0.00000  Uiso   1.00
H259   H     0.22917   0.98763   0.95170   0.00000  Uiso   1.00
H260   H     0.76271   0.33756   0.87191   0.00000  Uiso   1.00
H261   H     0.60047   0.96821   0.96651   0.00000  Uiso   1.00
H262   H     0.59121   0.10136   0.99911   0.00000  Uiso   1.00
H263   H     0.69807   0.80332   0.97005   0.00000  Uiso   1.00
H264   H     0.47686   0.96927   0.93222   0.00000  Uiso   1.00
H265   H     0.63663   0.29726   0.03233   0.00000  Uiso   1.00
H266   H     0.86193   0.66882   0.97105   0.00000  Uiso   1.00
H267   H     0.39547   0.01876   0.89126   0.00000  Uiso   1.00
O268   O     0.82192   0.55095   0.04369   0.00000  Uiso   1.00
O269   O     0.11750   0.72646   0.96330   0.00000  Uiso   1.00
O270   O     0.50552   0.18557   0.85862   0.00000  Uiso   1.00
N271   N     0.91870   0.52277   0.01305   0.00000  Uiso   1.00
N272   N     0.12935   0.93523   0.95577   0.00000  Uiso   1.00
N273   N     0.69326   0.26236   0.88116   0.00000  Uiso   1.00
N274   N     0.72109   0.35123   0.02347   0.00000  Uiso   1.00
N275   N     0.93174   0.76368   0.96618   0.00000  Uiso   1.00
N276   N     0.49564   0.09082   0.89158   0.00000  Uiso   1.00
C277   C     0.32414   0.25527   0.55092   0.00000  Uiso   1.00
C278   C     0.40767   0.28708   0.53075   0.00000  Uiso   1.00
C279   C     0.46338   0.40937   0.51958   0.00000  Uiso   1.00
C280   C     0.53641   0.41823   0.50151   0.00000  Uiso   1.00
C281   C     0.66353   0.48426   0.47119   0.00000  Uiso   1.00
C282   C     0.18768   0.12515   0.54653   0.00000  Uiso   1.00
C283   C     0.05842   0.11129   0.54864   0.00000  Uiso   1.00
C284   C     0.94626   0.98383   0.54386   0.00000  Uiso   1.00
C285   C     0.73183   0.79844   0.53806   0.00000  Uiso   1.00
C286   C     0.39805   0.21533   0.56709   0.00000  Uiso   1.00
C287   C     0.44563   0.27726   0.58649   0.00000  Uiso   1.00
C288   C     0.51056   0.22570   0.59902   0.00000  Uiso   1.00
C289   C     0.62275   0.18032   0.62514   0.00000  Uiso   1.00
C290   C     0.35479   0.05353   0.53867   0.00000  Uiso   1.00
C291   C     0.42432   0.17750   0.52409   0.00000  Uiso   1.00
C292   C     0.49729   0.18617   0.50603   0.00000  Uiso   1.00
C293   C     0.55309   0.30846   0.49485   0.00000  Uiso   1.00
C294   C     0.20432   0.01557   0.53988   0.00000  Uiso   1.00
C295   C     0.09233   0.88810   0.53509   0.00000  Uiso   1.00
C296   C     0.96293   0.87405   0.53719   0.00000  Uiso   1.00
C297   C     0.41470   0.10575   0.56044   0.00000  Uiso   1.00
C298   C     0.47955   0.05407   0.57294   0.00000  Uiso   1.00
C299   C     0.52723   0.11592   0.59235   0.00000  Uiso   1.00
H300   H     0.31117   0.34057   0.55610   0.00000  Uiso   1.00
H301   H     0.45046   0.49414   0.52474   0.00000  Uiso   1.00
H302   H     0.04557   0.19611   0.55379   0.00000  Uiso   1.00
H303   H     0.43273   0.36206   0.59163   0.00000  Uiso   1.00
H304   H     0.61219   0.61606   0.48703   0.00000  Uiso   1.00
H305   H     0.75845   0.98763   0.54830   0.00000  Uiso   1.00
H306   H     0.57485   0.33756   0.62809   0.00000  Uiso   1.00
H307   H     0.36774   0.96821   0.53349   0.00000  Uiso   1.00
H308   H     0.51015   0.10136   0.50089   0.00000  Uiso   1.00
H309   H     0.10525   0.80332   0.52995   0.00000  Uiso   1.00
H310   H     0.49241   0.96927   0.56778   0.00000  Uiso   1.00
H311   H     0.66063   0.29726   0.46767   0.00000  Uiso   1.00
H312   H     0.80689   0.66882   0.52895   0.00000  Uiso   1.00
H313   H     0.62329   0.01876   0.60874   0.00000  Uiso   1.00
O314   O     0.72903   0.55095   0.45631   0.00000  Uiso   1.00
O315   O     0.60896   0.72646   0.53670   0.00000  Uiso   1.00
O316   O     0.68006   0.18557   0.64138   0.00000  Uiso   1.00
N317   N     0.60407   0.52277   0.48695   0.00000  Uiso   1.00
N318   N     0.80588   0.93523   0.54423   0.00000  Uiso   1.00
N319   N     0.56911   0.26236   0.61884   0.00000  Uiso   1.00
N320   N     0.63014   0.35123   0.47653   0.00000  Uiso   1.00
N321   N     0.83195   0.76368   0.53382   0.00000  Uiso   1.00
N322   N     0.59518   0.09082   0.60842   0.00000  Uiso   1.00
C323   C     0.93113   0.67586   0.88425   0.00000  Uiso   1.00
C324   C     0.87940   0.59233   0.86408   0.00000  Uiso   1.00
C325   C     0.94600   0.53662   0.85292   0.00000  Uiso   1.00
C326   C     0.88182   0.46359   0.83484   0.00000  Uiso   1.00
C327   C     0.82074   0.33647   0.80453   0.00000  Uiso   1.00
C328   C     0.93747   0.81232   0.87986   0.00000  Uiso   1.00
C329   C     0.05288   0.94158   0.88198   0.00000  Uiso   1.00
C330   C     0.03757   0.05374   0.87719   0.00000  Uiso   1.00
C331   C     0.06660   0.26817   0.87139   0.00000  Uiso   1.00
C332   C     0.81728   0.60195   0.90042   0.00000  Uiso   1.00
C333   C     0.83164   0.55437   0.91982   0.00000  Uiso   1.00
C334   C     0.71514   0.48944   0.93235   0.00000  Uiso   1.00
C335   C     0.55757   0.37725   0.95847   0.00000  Uiso   1.00
C336   C     0.69874   0.64521   0.87201   0.00000  Uiso   1.00
C337   C     0.75318   0.57568   0.85743   0.00000  Uiso   1.00
C338   C     0.68889   0.50271   0.83937   0.00000  Uiso   1.00
C339   C     0.75537   0.44691   0.82818   0.00000  Uiso   1.00
C340   C     0.81125   0.79568   0.87321   0.00000  Uiso   1.00
C341   C     0.79577   0.90767   0.86843   0.00000  Uiso   1.00
C342   C     0.91112   0.03707   0.87053   0.00000  Uiso   1.00
C343   C     0.69105   0.58530   0.89377   0.00000  Uiso   1.00
C344   C     0.57452   0.52045   0.90627   0.00000  Uiso   1.00
C345   C     0.58869   0.47277   0.92569   0.00000  Uiso   1.00
H346   H     0.02941   0.68883   0.88943   0.00000  Uiso   1.00
H347   H     0.04369   0.54954   0.85807   0.00000  Uiso   1.00
H348   H     0.15054   0.95443   0.88713   0.00000  Uiso   1.00
H349   H     0.92933   0.56727   0.92497   0.00000  Uiso   1.00
H350   H     0.00388   0.38781   0.82036   0.00000  Uiso   1.00
H351   H     0.22917   0.24155   0.88163   0.00000  Uiso   1.00
H352   H     0.76271   0.42515   0.96143   0.00000  Uiso   1.00
H353   H     0.60047   0.63226   0.86683   0.00000  Uiso   1.00
H354   H     0.59121   0.48985   0.83422   0.00000  Uiso   1.00
H355   H     0.69807   0.89475   0.86328   0.00000  Uiso   1.00
H356   H     0.47686   0.50759   0.90112   0.00000  Uiso   1.00
H357   H     0.63663   0.33937   0.80100   0.00000  Uiso   1.00
H358   H     0.86193   0.19311   0.86228   0.00000  Uiso   1.00
H359   H     0.39547   0.37671   0.94207   0.00000  Uiso   1.00
O360   O     0.82192   0.27097   0.78964   0.00000  Uiso   1.00
O361   O     0.11750   0.39104   0.87003   0.00000  Uiso   1.00
O362   O     0.50552   0.31994   0.97472   0.00000  Uiso   1.00
N363   N     0.91870   0.39593   0.82028   0.00000  Uiso   1.00
N364   N     0.12935   0.19412   0.87757   0.00000  Uiso   1.00
N365   N     0.69326   0.43089   0.95217   0.00000  Uiso   1.00
N366   N     0.72109   0.36986   0.80987   0.00000  Uiso   1.00
N367   N     0.93174   0.16805   0.86715   0.00000  Uiso   1.00
N368   N     0.49564   0.40482   0.94175   0.00000  Uiso   1.00
C369   C     0.74473   0.06887   0.21759   0.00000  Uiso   1.00
C370   C     0.71292   0.12060   0.19741   0.00000  Uiso   1.00
C371   C     0.59063   0.05400   0.18625   0.00000  Uiso   1.00
C372   C     0.58177   0.11818   0.16818   0.00000  Uiso   1.00
C373   C     0.51574   0.17926   0.13786   0.00000  Uiso   1.00
C374   C     0.87485   0.06253   0.21320   0.00000  Uiso   1.00
C375   C     0.88871   0.94712   0.21531   0.00000  Uiso   1.00
C376   C     0.01617   0.96243   0.21053   0.00000  Uiso   1.00
C377   C     0.20156   0.93340   0.20473   0.00000  Uiso   1.00
C378   C     0.78467   0.18272   0.23376   0.00000  Uiso   1.00
C379   C     0.72274   0.16836   0.25316   0.00000  Uiso   1.00
C380   C     0.77430   0.28486   0.26568   0.00000  Uiso   1.00
C381   C     0.81968   0.44243   0.29181   0.00000  Uiso   1.00
C382   C     0.94647   0.30126   0.20534   0.00000  Uiso   1.00
C383   C     0.82250   0.24682   0.19076   0.00000  Uiso   1.00
C384   C     0.81383   0.31111   0.17270   0.00000  Uiso   1.00
C385   C     0.69154   0.24463   0.16151   0.00000  Uiso   1.00
C386   C     0.98443   0.18875   0.20654   0.00000  Uiso   1.00
C387   C     0.11190   0.20423   0.20176   0.00000  Uiso   1.00
C388   C     0.12595   0.08888   0.20386   0.00000  Uiso   1.00
C389   C     0.89425   0.30895   0.22710   0.00000  Uiso   1.00
C390   C     0.94593   0.42548   0.23960   0.00000  Uiso   1.00
C391   C     0.88408   0.41131   0.25902   0.00000  Uiso   1.00
H392   H     0.65943   0.97059   0.22277   0.00000  Uiso   1.00
H393   H     0.50586   0.95631   0.19140   0.00000  Uiso   1.00
H394   H     0.80389   0.84946   0.22046   0.00000  Uiso   1.00
H395   H     0.63794   0.07067   0.25830   0.00000  Uiso   1.00
H396   H     0.38394   0.99612   0.15369   0.00000  Uiso   1.00
H397   H     0.01237   0.77083   0.21497   0.00000  Uiso   1.00
H398   H     0.66244   0.23729   0.29476   0.00000  Uiso   1.00
H399   H     0.03179   0.39953   0.20016   0.00000  Uiso   1.00
H400   H     0.89864   0.40879   0.16756   0.00000  Uiso   1.00
H401   H     0.19668   0.30193   0.19661   0.00000  Uiso   1.00
H402   H     0.03073   0.52314   0.23445   0.00000  Uiso   1.00
H403   H     0.70274   0.36337   0.13434   0.00000  Uiso   1.00
H404   H     0.33118   0.13807   0.19561   0.00000  Uiso   1.00
H405   H     0.98124   0.60453   0.27540   0.00000  Uiso   1.00
O406   O     0.44905   0.17808   0.12297   0.00000  Uiso   1.00
O407   O     0.27354   0.88250   0.20337   0.00000  Uiso   1.00
O408   O     0.81443   0.49448   0.30805   0.00000  Uiso   1.00
N409   N     0.47723   0.08130   0.15362   0.00000  Uiso   1.00
N410   N     0.06477   0.87065   0.21090   0.00000  Uiso   1.00
N411   N     0.73764   0.30674   0.28550   0.00000  Uiso   1.00
N412   N     0.64877   0.27891   0.14320   0.00000  Uiso   1.00
N413   N     0.23632   0.06826   0.20048   0.00000  Uiso   1.00
N414   N     0.90918   0.50436   0.27509   0.00000  Uiso   1.00
C415   C     0.67586   0.74473   0.05092   0.00000  Uiso   1.00
C416   C     0.59233   0.71292   0.03075   0.00000  Uiso   1.00
C417   C     0.53662   0.59063   0.01958   0.00000  Uiso   1.00
C418   C     0.46359   0.58177   0.00151   0.00000  Uiso   1.00
C419   C     0.33647   0.51574   0.97119   0.00000  Uiso   1.00
C420   C     0.81232   0.87485   0.04653   0.00000  Uiso   1.00
C421   C     0.94158   0.88871   0.04864   0.00000  Uiso   1.00
C422   C     0.05374   0.01617   0.04386   0.00000  Uiso   1.00
C423   C     0.26817   0.20156   0.03806   0.00000  Uiso   1.00
C424   C     0.60195   0.78467   0.06709   0.00000  Uiso   1.00
C425   C     0.55437   0.72274   0.08649   0.00000  Uiso   1.00
C426   C     0.48944   0.77430   0.09902   0.00000  Uiso   1.00
C427   C     0.37725   0.81968   0.12514   0.00000  Uiso   1.00
C428   C     0.64521   0.94647   0.03867   0.00000  Uiso   1.00
C429   C     0.57568   0.82250   0.02409   0.00000  Uiso   1.00
C430   C     0.50271   0.81383   0.00603   0.00000  Uiso   1.00
C431   C     0.44691   0.69154   0.99485   0.00000  Uiso   1.00
C432   C     0.79568   0.98443   0.03988   0.00000  Uiso   1.00
C433   C     0.90767   0.11190   0.03509   0.00000  Uiso   1.00
C434   C     0.03707   0.12595   0.03719   0.00000  Uiso   1.00
C435   C     0.58530   0.89425   0.06044   0.00000  Uiso   1.00
C436   C     0.52045   0.94593   0.07294   0.00000  Uiso   1.00
C437   C     0.47277   0.88408   0.09235   0.00000  Uiso   1.00
H438   H     0.68883   0.65943   0.05610   0.00000  Uiso   1.00
H439   H     0.54954   0.50586   0.02474   0.00000  Uiso   1.00
H440   H     0.95443   0.80389   0.05379   0.00000  Uiso   1.00
H441   H     0.56727   0.63794   0.09163   0.00000  Uiso   1.00
H442   H     0.38781   0.38394   0.98703   0.00000  Uiso   1.00
H443   H     0.24155   0.01237   0.04830   0.00000  Uiso   1.00
H444   H     0.42515   0.66244   0.12809   0.00000  Uiso   1.00
H445   H     0.63226   0.03179   0.03349   0.00000  Uiso   1.00
H446   H     0.48985   0.89864   0.00089   0.00000  Uiso   1.00
H447   H     0.89475   0.19668   0.02995   0.00000  Uiso   1.00
H448   H     0.50759   0.03073   0.06778   0.00000  Uiso   1.00
H449   H     0.33937   0.70274   0.96767   0.00000  Uiso   1.00
H450   H     0.19311   0.33118   0.02895   0.00000  Uiso   1.00
H451   H     0.37671   0.98124   0.10874   0.00000  Uiso   1.00
O452   O     0.27097   0.44905   0.95631   0.00000  Uiso   1.00
O453   O     0.39104   0.27354   0.03670   0.00000  Uiso   1.00
O454   O     0.31994   0.81443   0.14138   0.00000  Uiso   1.00
N455   N     0.39593   0.47723   0.98695   0.00000  Uiso   1.00
N456   N     0.19412   0.06477   0.04423   0.00000  Uiso   1.00
N457   N     0.43089   0.73764   0.11884   0.00000  Uiso   1.00
N458   N     0.36986   0.64877   0.97653   0.00000  Uiso   1.00
N459   N     0.16805   0.23632   0.03382   0.00000  Uiso   1.00
N460   N     0.40482   0.90918   0.10842   0.00000  Uiso   1.00
C461   C     0.06887   0.32414   0.38425   0.00000  Uiso   1.00
C462   C     0.12060   0.40767   0.36408   0.00000  Uiso   1.00
C463   C     0.05400   0.46338   0.35292   0.00000  Uiso   1.00
C464   C     0.11818   0.53641   0.33484   0.00000  Uiso   1.00
C465   C     0.17926   0.66353   0.30453   0.00000  Uiso   1.00
C466   C     0.06253   0.18768   0.37986   0.00000  Uiso   1.00
C467   C     0.94712   0.05842   0.38198   0.00000  Uiso   1.00
C468   C     0.96243   0.94626   0.37719   0.00000  Uiso   1.00
C469   C     0.93340   0.73183   0.37139   0.00000  Uiso   1.00
C470   C     0.18272   0.39805   0.40042   0.00000  Uiso   1.00
C471   C     0.16836   0.44563   0.41982   0.00000  Uiso   1.00
C472   C     0.28486   0.51056   0.43235   0.00000  Uiso   1.00
C473   C     0.44243   0.62275   0.45847   0.00000  Uiso   1.00
C474   C     0.30126   0.35479   0.37201   0.00000  Uiso   1.00
C475   C     0.24682   0.42432   0.35743   0.00000  Uiso   1.00
C476   C     0.31111   0.49729   0.33937   0.00000  Uiso   1.00
C477   C     0.24463   0.55309   0.32818   0.00000  Uiso   1.00
C478   C     0.18875   0.20432   0.37321   0.00000  Uiso   1.00
C479   C     0.20423   0.09233   0.36843   0.00000  Uiso   1.00
C480   C     0.08888   0.96293   0.37053   0.00000  Uiso   1.00
C481   C     0.30895   0.41470   0.39377   0.00000  Uiso   1.00
C482   C     0.42548   0.47955   0.40627   0.00000  Uiso   1.00
C483   C     0.41131   0.52723   0.42569   0.00000  Uiso   1.00
H484   H     0.97059   0.31117   0.38943   0.00000  Uiso   1.00
H485   H     0.95631   0.45046   0.35807   0.00000  Uiso   1.00
H486   H     0.84946   0.04557   0.38713   0.00000  Uiso   1.00
H487   H     0.07067   0.43273   0.42497   0.00000  Uiso   1.00
H488   H     0.99612   0.61219   0.32036   0.00000  Uiso   1.00
H489   H     0.77083   0.75845   0.38163   0.00000  Uiso   1.00
H490   H     0.23729   0.57485   0.46143   0.00000  Uiso   1.00
H491   H     0.39953   0.36774   0.36683   0.00000  Uiso   1.00
H492   H     0.40879   0.51015   0.33422   0.00000  Uiso   1.00
H493   H     0.30193   0.10525   0.36328   0.00000  Uiso   1.00
H494   H     0.52314   0.49241   0.40112   0.00000  Uiso   1.00
H495   H     0.36337   0.66063   0.30100   0.00000  Uiso   1.00
H496   H     0.13807   0.80689   0.36228   0.00000  Uiso   1.00
H497   H     0.60453   0.62329   0.44207   0.00000  Uiso   1.00
O498   O     0.17808   0.72903   0.28964   0.00000  Uiso   1.00
O499   O     0.88250   0.60896   0.37003   0.00000  Uiso   1.00
O500   O     0.49448   0.68006   0.47472   0.00000  Uiso   1.00
N501   N     0.08130   0.60407   0.32028   0.00000  Uiso   1.00
N502   N     0.87065   0.80588   0.37757   0.00000  Uiso   1.00
N503   N     0.30674   0.56911   0.45217   0.00000  Uiso   1.00
N504   N     0.27891   0.63014   0.30987   0.00000  Uiso   1.00
N505   N     0.06826   0.83195   0.36715   0.00000  Uiso   1.00
N506   N     0.50436   0.59518   0.44175   0.00000  Uiso   1.00
C507   C     0.25527   0.93113   0.71759   0.00000  Uiso   1.00
C508   C     0.28708   0.87940   0.69741   0.00000  Uiso   1.00
C509   C     0.40937   0.94600   0.68625   0.00000  Uiso   1.00
C510   C     0.41823   0.88182   0.66818   0.00000  Uiso   1.00
C511   C     0.48426   0.82074   0.63786   0.00000  Uiso   1.00
C512   C     0.12515   0.93747   0.71320   0.00000  Uiso   1.00
C513   C     0.11129   0.05288   0.71531   0.00000  Uiso   1.00
C514   C     0.98383   0.03757   0.71053   0.00000  Uiso   1.00
C515   C     0.79844   0.06660   0.70473   0.00000  Uiso   1.00
C516   C     0.21533   0.81728   0.73376   0.00000  Uiso   1.00
C517   C     0.27726   0.83164   0.75316   0.00000  Uiso   1.00
C518   C     0.22570   0.71514   0.76568   0.00000  Uiso   1.00
C519   C     0.18032   0.55757   0.79181   0.00000  Uiso   1.00
C520   C     0.05353   0.69874   0.70534   0.00000  Uiso   1.00
C521   C     0.17750   0.75318   0.69076   0.00000  Uiso   1.00
C522   C     0.18617   0.68889   0.67270   0.00000  Uiso   1.00
C523   C     0.30846   0.75537   0.66151   0.00000  Uiso   1.00
C524   C     0.01557   0.81125   0.70654   0.00000  Uiso   1.00
C525   C     0.88810   0.79577   0.70176   0.00000  Uiso   1.00
C526   C     0.87405   0.91112   0.70386   0.00000  Uiso   1.00
C527   C     0.10575   0.69105   0.72710   0.00000  Uiso   1.00
C528   C     0.05407   0.57452   0.73960   0.00000  Uiso   1.00
C529   C     0.11592   0.58869   0.75902   0.00000  Uiso   1.00
H530   H     0.34057   0.02941   0.72277   0.00000  Uiso   1.00
H531   H     0.49414   0.04369   0.69140   0.00000  Uiso   1.00
H532   H     0.19611   0.15054   0.72046   0.00000  Uiso   1.00
H533   H     0.36206   0.92933   0.75830   0.00000  Uiso   1.00
H534   H     0.61606   0.00388   0.65369   0.00000  Uiso   1.00
H535   H     0.98763   0.22917   0.71497   0.00000  Uiso   1.00
H536   H     0.33756   0.76271   0.79476   0.00000  Uiso   1.00
H537   H     0.96821   0.60047   0.70016   0.00000  Uiso   1.00
H538   H     0.10136   0.59121   0.66756   0.00000  Uiso   1.00
H539   H     0.80332   0.69807   0.69661   0.00000  Uiso   1.00
H540   H     0.96927   0.47686   0.73445   0.00000  Uiso   1.00
H541   H     0.29726   0.63663   0.63434   0.00000  Uiso   1.00
H542   H     0.66882   0.86193   0.69561   0.00000  Uiso   1.00
H543   H     0.01876   0.39547   0.77540   0.00000  Uiso   1.00
O544   O     0.55095   0.82192   0.62297   0.00000  Uiso   1.00
O545   O     0.72646   0.11750   0.70337   0.00000  Uiso   1.00
O546   O     0.18557   0.50552   0.80805   0.00000  Uiso   1.00
N547   N     0.52277   0.91870   0.65362   0.00000  Uiso   1.00
N548   N     0.93523   0.12935   0.71090   0.00000  Uiso   1.00
N549   N     0.26236   0.69326   0.78550   0.00000  Uiso   1.00
N550   N     0.35123   0.72109   0.64320   0.00000  Uiso   1.00
N551   N     0.76368   0.93174   0.70048   0.00000  Uiso   1.00
N552   N     0.09082   0.49564   0.77509   0.00000  Uiso   1.00
