data_job_01957
_audit_creation_date              2018-12-19
_audit_creation_method            'Materials Studio'
_symmetry_space_group_name_H-M    'P1'
_symmetry_Int_Tables_number       1
_symmetry_cell_setting            triclinic
loop_
_symmetry_equiv_pos_as_xyz
  x,y,z
_cell_length_a                    21.6232
_cell_length_b                    24.2430
_cell_length_c                    13.4205
_cell_angle_alpha                 90.0000
_cell_angle_beta                  90.0000
_cell_angle_gamma                 90.0000
loop_
_atom_site_label
_atom_site_type_symbol
_atom_site_fract_x
_atom_site_fract_y
_atom_site_fract_z
_atom_site_U_iso_or_equiv
_atom_site_adp_type
_atom_site_occupancy
C1     C     0.59532   0.86753   0.59437   0.00000  Uiso   1.00
C2     C     0.53051   0.85613   0.63412   0.00000  Uiso   1.00
C3     C     0.47594   0.86110   0.58043   0.00000  Uiso   1.00
C4     C     0.42138   0.84878   0.63024   0.00000  Uiso   1.00
C5     C     0.32073   0.83363   0.67679   0.00000  Uiso   1.00
C6     C     0.62335   0.91066   0.66367   0.00000  Uiso   1.00
C7     C     0.64685   0.96148   0.63481   0.00000  Uiso   1.00
C8     C     0.67046   0.99506   0.70949   0.00000  Uiso   1.00
C9     C     0.71399   0.06456   0.80190   0.00000  Uiso   1.00
C10    C     0.63221   0.81476   0.61135   0.00000  Uiso   1.00
C11    C     0.66318   0.78495   0.53852   0.00000  Uiso   1.00
C12    C     0.69427   0.73779   0.56916   0.00000  Uiso   1.00
C13    C     0.75155   0.65839   0.58034   0.00000  Uiso   1.00
C14    C     0.59547   0.83680   0.77829   0.00000  Uiso   1.00
C15    C     0.53059   0.83944   0.73402   0.00000  Uiso   1.00
C16    C     0.47610   0.82710   0.78392   0.00000  Uiso   1.00
C17    C     0.42146   0.83205   0.73032   0.00000  Uiso   1.00
C18    C     0.62343   0.89397   0.76356   0.00000  Uiso   1.00
C19    C     0.64702   0.92748   0.83830   0.00000  Uiso   1.00
C20    C     0.67054   0.97834   0.80957   0.00000  Uiso   1.00
C21    C     0.63229   0.79806   0.71125   0.00000  Uiso   1.00
C22    C     0.66334   0.75095   0.74201   0.00000  Uiso   1.00
C23    C     0.69435   0.72107   0.66924   0.00000  Uiso   1.00
H24    H     0.59526   0.88053   0.51659   0.00000  Uiso   1.00
H25    H     0.47589   0.87403   0.50313   0.00000  Uiso   1.00
H26    H     0.64679   0.97439   0.55750   0.00000  Uiso   1.00
H27    H     0.66311   0.79788   0.46122   0.00000  Uiso   1.00
H28    H     0.34359   0.85947   0.53227   0.00000  Uiso   1.00
H29    H     0.70394   0.07108   0.64691   0.00000  Uiso   1.00
H30    H     0.73837   0.69888   0.44388   0.00000  Uiso   1.00
H31    H     0.59554   0.82381   0.85606   0.00000  Uiso   1.00
H32    H     0.47618   0.81418   0.86123   0.00000  Uiso   1.00
H33    H     0.64707   0.91455   0.91560   0.00000  Uiso   1.00
H34    H     0.66340   0.73804   0.81932   0.00000  Uiso   1.00
H35    H     0.34382   0.81090   0.82291   0.00000  Uiso   1.00
H36    H     0.70418   0.02251   0.93755   0.00000  Uiso   1.00
H37    H     0.73860   0.65031   0.73453   0.00000  Uiso   1.00
O38    O     0.26518   0.82990   0.67487   0.00000  Uiso   1.00
O39    O     0.73796   0.10752   0.82527   0.00000  Uiso   1.00
O40    O     0.78312   0.61920   0.55891   0.00000  Uiso   1.00
N41    N     0.36002   0.84935   0.59996   0.00000  Uiso   1.00
N42    N     0.69693   0.04720   0.70714   0.00000  Uiso   1.00
N43    N     0.72912   0.69923   0.51733   0.00000  Uiso   1.00
N44    N     0.36015   0.82321   0.75635   0.00000  Uiso   1.00
N45    N     0.69705   0.02106   0.86354   0.00000  Uiso   1.00
N46    N     0.72925   0.67309   0.67373   0.00000  Uiso   1.00
C47    C     0.90468   0.13247   0.09437   0.00000  Uiso   1.00
C48    C     0.96949   0.14387   0.13412   0.00000  Uiso   1.00
C49    C     0.02406   0.13890   0.08043   0.00000  Uiso   1.00
C50    C     0.07862   0.15122   0.13024   0.00000  Uiso   1.00
C51    C     0.17927   0.16637   0.17679   0.00000  Uiso   1.00
C52    C     0.87665   0.08934   0.16367   0.00000  Uiso   1.00
C53    C     0.85315   0.03852   0.13481   0.00000  Uiso   1.00
C54    C     0.82954   0.00494   0.20949   0.00000  Uiso   1.00
C55    C     0.78601   0.93544   0.30190   0.00000  Uiso   1.00
C56    C     0.86779   0.18524   0.11135   0.00000  Uiso   1.00
C57    C     0.83682   0.21505   0.03852   0.00000  Uiso   1.00
C58    C     0.80573   0.26221   0.06916   0.00000  Uiso   1.00
C59    C     0.74845   0.34161   0.08034   0.00000  Uiso   1.00
C60    C     0.90453   0.16320   0.27829   0.00000  Uiso   1.00
C61    C     0.96941   0.16056   0.23402   0.00000  Uiso   1.00
C62    C     0.02390   0.17290   0.28392   0.00000  Uiso   1.00
C63    C     0.07854   0.16795   0.23032   0.00000  Uiso   1.00
C64    C     0.87657   0.10603   0.26356   0.00000  Uiso   1.00
C65    C     0.85298   0.07252   0.33830   0.00000  Uiso   1.00
C66    C     0.82946   0.02166   0.30957   0.00000  Uiso   1.00
C67    C     0.86771   0.20194   0.21125   0.00000  Uiso   1.00
C68    C     0.83666   0.24905   0.24201   0.00000  Uiso   1.00
C69    C     0.80565   0.27893   0.16924   0.00000  Uiso   1.00
H70    H     0.90474   0.11947   0.01659   0.00000  Uiso   1.00
H71    H     0.02411   0.12597   0.00313   0.00000  Uiso   1.00
H72    H     0.85321   0.02561   0.05750   0.00000  Uiso   1.00
H73    H     0.83689   0.20212   0.96122   0.00000  Uiso   1.00
H74    H     0.15641   0.14053   0.03227   0.00000  Uiso   1.00
H75    H     0.79606   0.92892   0.14691   0.00000  Uiso   1.00
H76    H     0.76163   0.30112   0.94388   0.00000  Uiso   1.00
H77    H     0.90446   0.17619   0.35606   0.00000  Uiso   1.00
H78    H     0.02382   0.18582   0.36123   0.00000  Uiso   1.00
H79    H     0.85293   0.08545   0.41560   0.00000  Uiso   1.00
H80    H     0.83660   0.26196   0.31932   0.00000  Uiso   1.00
H81    H     0.15618   0.18910   0.32291   0.00000  Uiso   1.00
H82    H     0.79582   0.97749   0.43755   0.00000  Uiso   1.00
H83    H     0.76140   0.34969   0.23453   0.00000  Uiso   1.00
O84    O     0.23482   0.17010   0.17487   0.00000  Uiso   1.00
O85    O     0.76204   0.89248   0.32527   0.00000  Uiso   1.00
O86    O     0.71688   0.38080   0.05891   0.00000  Uiso   1.00
N87    N     0.13998   0.15065   0.09996   0.00000  Uiso   1.00
N88    N     0.80307   0.95280   0.20714   0.00000  Uiso   1.00
N89    N     0.77088   0.30077   0.01733   0.00000  Uiso   1.00
N90    N     0.13985   0.17679   0.25635   0.00000  Uiso   1.00
N91    N     0.80295   0.97894   0.36354   0.00000  Uiso   1.00
N92    N     0.77075   0.32691   0.17373   0.00000  Uiso   1.00
C93    C     0.40468   0.36753   0.90563   0.00000  Uiso   1.00
C94    C     0.46949   0.35613   0.86588   0.00000  Uiso   1.00
C95    C     0.52406   0.36110   0.91957   0.00000  Uiso   1.00
C96    C     0.57862   0.34878   0.86976   0.00000  Uiso   1.00
C97    C     0.67927   0.33363   0.82321   0.00000  Uiso   1.00
C98    C     0.37665   0.41066   0.83633   0.00000  Uiso   1.00
C99    C     0.35315   0.46148   0.86519   0.00000  Uiso   1.00
C100   C     0.32954   0.49506   0.79051   0.00000  Uiso   1.00
C101   C     0.28601   0.56456   0.69810   0.00000  Uiso   1.00
C102   C     0.36779   0.31476   0.88865   0.00000  Uiso   1.00
C103   C     0.33682   0.28495   0.96148   0.00000  Uiso   1.00
C104   C     0.30573   0.23779   0.93084   0.00000  Uiso   1.00
C105   C     0.24845   0.15839   0.91966   0.00000  Uiso   1.00
C106   C     0.40453   0.33680   0.72171   0.00000  Uiso   1.00
C107   C     0.46941   0.33944   0.76598   0.00000  Uiso   1.00
C108   C     0.52390   0.32710   0.71608   0.00000  Uiso   1.00
C109   C     0.57854   0.33205   0.76968   0.00000  Uiso   1.00
C110   C     0.37657   0.39397   0.73644   0.00000  Uiso   1.00
C111   C     0.35298   0.42748   0.66170   0.00000  Uiso   1.00
C112   C     0.32946   0.47834   0.69043   0.00000  Uiso   1.00
C113   C     0.36771   0.29806   0.78875   0.00000  Uiso   1.00
C114   C     0.33666   0.25095   0.75799   0.00000  Uiso   1.00
C115   C     0.30565   0.22107   0.83076   0.00000  Uiso   1.00
H116   H     0.40474   0.38053   0.98341   0.00000  Uiso   1.00
H117   H     0.52411   0.37403   0.99687   0.00000  Uiso   1.00
H118   H     0.35321   0.47439   0.94250   0.00000  Uiso   1.00
H119   H     0.33689   0.29788   0.03878   0.00000  Uiso   1.00
H120   H     0.65641   0.35947   0.96773   0.00000  Uiso   1.00
H121   H     0.29606   0.57108   0.85309   0.00000  Uiso   1.00
H122   H     0.26163   0.19888   0.05612   0.00000  Uiso   1.00
H123   H     0.40446   0.32381   0.64394   0.00000  Uiso   1.00
H124   H     0.52382   0.31418   0.63877   0.00000  Uiso   1.00
H125   H     0.35293   0.41455   0.58440   0.00000  Uiso   1.00
H126   H     0.33660   0.23804   0.68068   0.00000  Uiso   1.00
H127   H     0.65618   0.31090   0.67709   0.00000  Uiso   1.00
H128   H     0.29582   0.52251   0.56245   0.00000  Uiso   1.00
H129   H     0.26140   0.15031   0.76547   0.00000  Uiso   1.00
O130   O     0.73482   0.32990   0.82513   0.00000  Uiso   1.00
O131   O     0.26204   0.60752   0.67473   0.00000  Uiso   1.00
O132   O     0.21688   0.11920   0.94109   0.00000  Uiso   1.00
N133   N     0.63998   0.34935   0.90004   0.00000  Uiso   1.00
N134   N     0.30307   0.54720   0.79286   0.00000  Uiso   1.00
N135   N     0.27088   0.19923   0.98267   0.00000  Uiso   1.00
N136   N     0.63985   0.32321   0.74365   0.00000  Uiso   1.00
N137   N     0.30295   0.52106   0.63646   0.00000  Uiso   1.00
N138   N     0.27075   0.17309   0.82627   0.00000  Uiso   1.00
C139   C     0.09532   0.63247   0.40563   0.00000  Uiso   1.00
C140   C     0.03051   0.64387   0.36588   0.00000  Uiso   1.00
C141   C     0.97594   0.63890   0.41957   0.00000  Uiso   1.00
C142   C     0.92138   0.65122   0.36976   0.00000  Uiso   1.00
C143   C     0.82073   0.66637   0.32321   0.00000  Uiso   1.00
C144   C     0.12335   0.58934   0.33633   0.00000  Uiso   1.00
C145   C     0.14685   0.53852   0.36519   0.00000  Uiso   1.00
C146   C     0.17046   0.50494   0.29051   0.00000  Uiso   1.00
C147   C     0.21399   0.43544   0.19810   0.00000  Uiso   1.00
C148   C     0.13221   0.68524   0.38865   0.00000  Uiso   1.00
C149   C     0.16318   0.71505   0.46148   0.00000  Uiso   1.00
C150   C     0.19427   0.76221   0.43084   0.00000  Uiso   1.00
C151   C     0.25155   0.84161   0.41966   0.00000  Uiso   1.00
C152   C     0.09547   0.66320   0.22171   0.00000  Uiso   1.00
C153   C     0.03059   0.66056   0.26598   0.00000  Uiso   1.00
C154   C     0.97610   0.67290   0.21608   0.00000  Uiso   1.00
C155   C     0.92146   0.66795   0.26968   0.00000  Uiso   1.00
C156   C     0.12343   0.60603   0.23644   0.00000  Uiso   1.00
C157   C     0.14702   0.57252   0.16170   0.00000  Uiso   1.00
C158   C     0.17054   0.52166   0.19043   0.00000  Uiso   1.00
C159   C     0.13229   0.70194   0.28875   0.00000  Uiso   1.00
C160   C     0.16334   0.74905   0.25799   0.00000  Uiso   1.00
C161   C     0.19435   0.77893   0.33076   0.00000  Uiso   1.00
H162   H     0.09526   0.61947   0.48341   0.00000  Uiso   1.00
H163   H     0.97589   0.62597   0.49687   0.00000  Uiso   1.00
H164   H     0.14679   0.52561   0.44250   0.00000  Uiso   1.00
H165   H     0.16311   0.70212   0.53878   0.00000  Uiso   1.00
H166   H     0.84359   0.64053   0.46773   0.00000  Uiso   1.00
H167   H     0.20394   0.42892   0.35309   0.00000  Uiso   1.00
H168   H     0.23837   0.80112   0.55612   0.00000  Uiso   1.00
H169   H     0.09554   0.67619   0.14394   0.00000  Uiso   1.00
H170   H     0.97618   0.68582   0.13877   0.00000  Uiso   1.00
H171   H     0.14707   0.58545   0.08440   0.00000  Uiso   1.00
H172   H     0.16340   0.76196   0.18068   0.00000  Uiso   1.00
H173   H     0.84382   0.68910   0.17709   0.00000  Uiso   1.00
H174   H     0.20418   0.47749   0.06245   0.00000  Uiso   1.00
H175   H     0.23860   0.84969   0.26547   0.00000  Uiso   1.00
O176   O     0.76518   0.67010   0.32513   0.00000  Uiso   1.00
O177   O     0.23796   0.39248   0.17473   0.00000  Uiso   1.00
O178   O     0.28312   0.88080   0.44109   0.00000  Uiso   1.00
N179   N     0.86002   0.65065   0.40004   0.00000  Uiso   1.00
N180   N     0.19693   0.45280   0.29286   0.00000  Uiso   1.00
N181   N     0.22912   0.80077   0.48267   0.00000  Uiso   1.00
N182   N     0.86015   0.67679   0.24365   0.00000  Uiso   1.00
N183   N     0.19705   0.47894   0.13646   0.00000  Uiso   1.00
N184   N     0.22925   0.82691   0.32627   0.00000  Uiso   1.00
C185   C     0.40468   0.13247   0.40563   0.00000  Uiso   1.00
C186   C     0.46949   0.14387   0.36588   0.00000  Uiso   1.00
C187   C     0.52406   0.13890   0.41957   0.00000  Uiso   1.00
C188   C     0.57862   0.15122   0.36976   0.00000  Uiso   1.00
C189   C     0.67927   0.16637   0.32321   0.00000  Uiso   1.00
C190   C     0.37665   0.08934   0.33633   0.00000  Uiso   1.00
C191   C     0.35315   0.03852   0.36519   0.00000  Uiso   1.00
C192   C     0.32954   0.00494   0.29051   0.00000  Uiso   1.00
C193   C     0.28601   0.93544   0.19810   0.00000  Uiso   1.00
C194   C     0.36779   0.18524   0.38865   0.00000  Uiso   1.00
C195   C     0.33682   0.21505   0.46148   0.00000  Uiso   1.00
C196   C     0.30573   0.26221   0.43084   0.00000  Uiso   1.00
C197   C     0.24845   0.34161   0.41966   0.00000  Uiso   1.00
C198   C     0.40453   0.16320   0.22171   0.00000  Uiso   1.00
C199   C     0.46941   0.16056   0.26598   0.00000  Uiso   1.00
C200   C     0.52390   0.17290   0.21608   0.00000  Uiso   1.00
C201   C     0.57854   0.16795   0.26968   0.00000  Uiso   1.00
C202   C     0.37657   0.10603   0.23644   0.00000  Uiso   1.00
C203   C     0.35298   0.07252   0.16170   0.00000  Uiso   1.00
C204   C     0.32946   0.02166   0.19043   0.00000  Uiso   1.00
C205   C     0.36771   0.20194   0.28875   0.00000  Uiso   1.00
C206   C     0.33666   0.24905   0.25799   0.00000  Uiso   1.00
C207   C     0.30565   0.27893   0.33076   0.00000  Uiso   1.00
H208   H     0.40474   0.11947   0.48341   0.00000  Uiso   1.00
H209   H     0.52411   0.12597   0.49687   0.00000  Uiso   1.00
H210   H     0.35321   0.02561   0.44250   0.00000  Uiso   1.00
H211   H     0.33689   0.20212   0.53878   0.00000  Uiso   1.00
H212   H     0.65641   0.14053   0.46773   0.00000  Uiso   1.00
H213   H     0.29606   0.92892   0.35309   0.00000  Uiso   1.00
H214   H     0.26163   0.30112   0.55612   0.00000  Uiso   1.00
H215   H     0.40446   0.17619   0.14394   0.00000  Uiso   1.00
H216   H     0.52382   0.18582   0.13877   0.00000  Uiso   1.00
H217   H     0.35293   0.08545   0.08440   0.00000  Uiso   1.00
H218   H     0.33660   0.26196   0.18068   0.00000  Uiso   1.00
H219   H     0.65618   0.18910   0.17709   0.00000  Uiso   1.00
H220   H     0.29582   0.97749   0.06245   0.00000  Uiso   1.00
H221   H     0.26140   0.34969   0.26547   0.00000  Uiso   1.00
O222   O     0.73482   0.17010   0.32513   0.00000  Uiso   1.00
O223   O     0.26204   0.89248   0.17473   0.00000  Uiso   1.00
O224   O     0.21688   0.38080   0.44109   0.00000  Uiso   1.00
N225   N     0.63998   0.15065   0.40004   0.00000  Uiso   1.00
N226   N     0.30307   0.95280   0.29286   0.00000  Uiso   1.00
N227   N     0.27088   0.30077   0.48267   0.00000  Uiso   1.00
N228   N     0.63985   0.17679   0.24365   0.00000  Uiso   1.00
N229   N     0.30295   0.97894   0.13646   0.00000  Uiso   1.00
N230   N     0.27075   0.32691   0.32627   0.00000  Uiso   1.00
C231   C     0.09532   0.86753   0.90563   0.00000  Uiso   1.00
C232   C     0.03051   0.85613   0.86588   0.00000  Uiso   1.00
C233   C     0.97594   0.86110   0.91957   0.00000  Uiso   1.00
C234   C     0.92138   0.84878   0.86976   0.00000  Uiso   1.00
C235   C     0.82073   0.83363   0.82321   0.00000  Uiso   1.00
C236   C     0.12335   0.91066   0.83633   0.00000  Uiso   1.00
C237   C     0.14685   0.96148   0.86519   0.00000  Uiso   1.00
C238   C     0.17046   0.99506   0.79051   0.00000  Uiso   1.00
C239   C     0.21399   0.06456   0.69810   0.00000  Uiso   1.00
C240   C     0.13221   0.81476   0.88865   0.00000  Uiso   1.00
C241   C     0.16318   0.78495   0.96148   0.00000  Uiso   1.00
C242   C     0.19427   0.73779   0.93084   0.00000  Uiso   1.00
C243   C     0.25155   0.65839   0.91966   0.00000  Uiso   1.00
C244   C     0.09547   0.83680   0.72171   0.00000  Uiso   1.00
C245   C     0.03059   0.83944   0.76598   0.00000  Uiso   1.00
C246   C     0.97610   0.82710   0.71608   0.00000  Uiso   1.00
C247   C     0.92146   0.83205   0.76968   0.00000  Uiso   1.00
C248   C     0.12343   0.89397   0.73644   0.00000  Uiso   1.00
C249   C     0.14702   0.92748   0.66170   0.00000  Uiso   1.00
C250   C     0.17054   0.97834   0.69043   0.00000  Uiso   1.00
C251   C     0.13229   0.79806   0.78875   0.00000  Uiso   1.00
C252   C     0.16334   0.75095   0.75799   0.00000  Uiso   1.00
C253   C     0.19435   0.72107   0.83076   0.00000  Uiso   1.00
H254   H     0.09526   0.88053   0.98341   0.00000  Uiso   1.00
H255   H     0.97589   0.87403   0.99687   0.00000  Uiso   1.00
H256   H     0.14679   0.97439   0.94250   0.00000  Uiso   1.00
H257   H     0.16311   0.79788   0.03878   0.00000  Uiso   1.00
H258   H     0.84359   0.85947   0.96773   0.00000  Uiso   1.00
H259   H     0.20394   0.07108   0.85309   0.00000  Uiso   1.00
H260   H     0.23837   0.69888   0.05612   0.00000  Uiso   1.00
H261   H     0.09554   0.82381   0.64394   0.00000  Uiso   1.00
H262   H     0.97618   0.81418   0.63877   0.00000  Uiso   1.00
H263   H     0.14707   0.91455   0.58440   0.00000  Uiso   1.00
H264   H     0.16340   0.73804   0.68068   0.00000  Uiso   1.00
H265   H     0.84382   0.81090   0.67709   0.00000  Uiso   1.00
H266   H     0.20418   0.02251   0.56245   0.00000  Uiso   1.00
H267   H     0.23860   0.65031   0.76547   0.00000  Uiso   1.00
O268   O     0.76518   0.82990   0.82513   0.00000  Uiso   1.00
O269   O     0.23796   0.10752   0.67473   0.00000  Uiso   1.00
O270   O     0.28312   0.61920   0.94109   0.00000  Uiso   1.00
N271   N     0.86002   0.84935   0.90004   0.00000  Uiso   1.00
N272   N     0.19693   0.04720   0.79286   0.00000  Uiso   1.00
N273   N     0.22912   0.69923   0.98267   0.00000  Uiso   1.00
N274   N     0.86015   0.82321   0.74365   0.00000  Uiso   1.00
N275   N     0.19705   0.02106   0.63646   0.00000  Uiso   1.00
N276   N     0.22925   0.67309   0.82627   0.00000  Uiso   1.00
C277   C     0.59532   0.63247   0.09437   0.00000  Uiso   1.00
C278   C     0.53051   0.64387   0.13412   0.00000  Uiso   1.00
C279   C     0.47594   0.63890   0.08043   0.00000  Uiso   1.00
C280   C     0.42138   0.65122   0.13024   0.00000  Uiso   1.00
C281   C     0.32073   0.66637   0.17679   0.00000  Uiso   1.00
C282   C     0.62335   0.58934   0.16367   0.00000  Uiso   1.00
C283   C     0.64685   0.53852   0.13481   0.00000  Uiso   1.00
C284   C     0.67046   0.50494   0.20949   0.00000  Uiso   1.00
C285   C     0.71399   0.43544   0.30190   0.00000  Uiso   1.00
C286   C     0.63221   0.68524   0.11135   0.00000  Uiso   1.00
C287   C     0.66318   0.71505   0.03852   0.00000  Uiso   1.00
C288   C     0.69427   0.76221   0.06916   0.00000  Uiso   1.00
C289   C     0.75155   0.84161   0.08034   0.00000  Uiso   1.00
C290   C     0.59547   0.66320   0.27829   0.00000  Uiso   1.00
C291   C     0.53059   0.66056   0.23402   0.00000  Uiso   1.00
C292   C     0.47610   0.67290   0.28392   0.00000  Uiso   1.00
C293   C     0.42146   0.66795   0.23032   0.00000  Uiso   1.00
C294   C     0.62343   0.60603   0.26356   0.00000  Uiso   1.00
C295   C     0.64702   0.57252   0.33830   0.00000  Uiso   1.00
C296   C     0.67054   0.52166   0.30957   0.00000  Uiso   1.00
C297   C     0.63229   0.70194   0.21125   0.00000  Uiso   1.00
C298   C     0.66334   0.74905   0.24201   0.00000  Uiso   1.00
C299   C     0.69435   0.77893   0.16924   0.00000  Uiso   1.00
H300   H     0.59526   0.61947   0.01659   0.00000  Uiso   1.00
H301   H     0.47589   0.62597   0.00313   0.00000  Uiso   1.00
H302   H     0.64679   0.52561   0.05750   0.00000  Uiso   1.00
H303   H     0.66311   0.70212   0.96122   0.00000  Uiso   1.00
H304   H     0.34359   0.64053   0.03227   0.00000  Uiso   1.00
H305   H     0.70394   0.42892   0.14691   0.00000  Uiso   1.00
H306   H     0.73837   0.80112   0.94388   0.00000  Uiso   1.00
H307   H     0.59554   0.67619   0.35606   0.00000  Uiso   1.00
H308   H     0.47618   0.68582   0.36123   0.00000  Uiso   1.00
H309   H     0.64707   0.58545   0.41560   0.00000  Uiso   1.00
H310   H     0.66340   0.76196   0.31932   0.00000  Uiso   1.00
H311   H     0.34382   0.68910   0.32291   0.00000  Uiso   1.00
H312   H     0.70418   0.47749   0.43755   0.00000  Uiso   1.00
H313   H     0.73860   0.84969   0.23453   0.00000  Uiso   1.00
O314   O     0.26518   0.67010   0.17487   0.00000  Uiso   1.00
O315   O     0.73796   0.39248   0.32527   0.00000  Uiso   1.00
O316   O     0.78312   0.88080   0.05891   0.00000  Uiso   1.00
N317   N     0.36002   0.65065   0.09996   0.00000  Uiso   1.00
N318   N     0.69693   0.45280   0.20714   0.00000  Uiso   1.00
N319   N     0.72912   0.80077   0.01733   0.00000  Uiso   1.00
N320   N     0.36015   0.67679   0.25635   0.00000  Uiso   1.00
N321   N     0.69705   0.47894   0.36354   0.00000  Uiso   1.00
N322   N     0.72925   0.82691   0.17373   0.00000  Uiso   1.00
C323   C     0.90468   0.36753   0.59437   0.00000  Uiso   1.00
C324   C     0.96949   0.35613   0.63412   0.00000  Uiso   1.00
C325   C     0.02406   0.36110   0.58043   0.00000  Uiso   1.00
C326   C     0.07862   0.34878   0.63024   0.00000  Uiso   1.00
C327   C     0.17927   0.33363   0.67679   0.00000  Uiso   1.00
C328   C     0.87665   0.41066   0.66367   0.00000  Uiso   1.00
C329   C     0.85315   0.46148   0.63481   0.00000  Uiso   1.00
C330   C     0.82954   0.49506   0.70949   0.00000  Uiso   1.00
C331   C     0.78601   0.56456   0.80190   0.00000  Uiso   1.00
C332   C     0.86779   0.31476   0.61135   0.00000  Uiso   1.00
C333   C     0.83682   0.28495   0.53852   0.00000  Uiso   1.00
C334   C     0.80573   0.23779   0.56916   0.00000  Uiso   1.00
C335   C     0.74845   0.15839   0.58034   0.00000  Uiso   1.00
C336   C     0.90453   0.33680   0.77829   0.00000  Uiso   1.00
C337   C     0.96941   0.33944   0.73402   0.00000  Uiso   1.00
C338   C     0.02390   0.32710   0.78392   0.00000  Uiso   1.00
C339   C     0.07854   0.33205   0.73032   0.00000  Uiso   1.00
C340   C     0.87657   0.39397   0.76356   0.00000  Uiso   1.00
C341   C     0.85298   0.42748   0.83830   0.00000  Uiso   1.00
C342   C     0.82946   0.47834   0.80957   0.00000  Uiso   1.00
C343   C     0.86771   0.29806   0.71125   0.00000  Uiso   1.00
C344   C     0.83666   0.25095   0.74201   0.00000  Uiso   1.00
C345   C     0.80565   0.22107   0.66924   0.00000  Uiso   1.00
H346   H     0.90474   0.38053   0.51659   0.00000  Uiso   1.00
H347   H     0.02411   0.37403   0.50313   0.00000  Uiso   1.00
H348   H     0.85321   0.47439   0.55750   0.00000  Uiso   1.00
H349   H     0.83689   0.29788   0.46122   0.00000  Uiso   1.00
H350   H     0.15641   0.35947   0.53227   0.00000  Uiso   1.00
H351   H     0.79606   0.57108   0.64691   0.00000  Uiso   1.00
H352   H     0.76163   0.19888   0.44388   0.00000  Uiso   1.00
H353   H     0.90446   0.32381   0.85606   0.00000  Uiso   1.00
H354   H     0.02382   0.31418   0.86123   0.00000  Uiso   1.00
H355   H     0.85293   0.41455   0.91560   0.00000  Uiso   1.00
H356   H     0.83660   0.23804   0.81932   0.00000  Uiso   1.00
H357   H     0.15618   0.31090   0.82291   0.00000  Uiso   1.00
H358   H     0.79582   0.52251   0.93755   0.00000  Uiso   1.00
H359   H     0.76140   0.15031   0.73453   0.00000  Uiso   1.00
O360   O     0.23482   0.32990   0.67487   0.00000  Uiso   1.00
O361   O     0.76204   0.60752   0.82527   0.00000  Uiso   1.00
O362   O     0.71688   0.11920   0.55891   0.00000  Uiso   1.00
N363   N     0.13998   0.34935   0.59996   0.00000  Uiso   1.00
N364   N     0.80307   0.54720   0.70714   0.00000  Uiso   1.00
N365   N     0.77088   0.19923   0.51733   0.00000  Uiso   1.00
N366   N     0.13985   0.32321   0.75635   0.00000  Uiso   1.00
N367   N     0.80295   0.52106   0.86354   0.00000  Uiso   1.00
N368   N     0.77075   0.17309   0.67373   0.00000  Uiso   1.00
