data_job_02456
_audit_creation_date              2018-12-19
_audit_creation_method            'Materials Studio'
_symmetry_space_group_name_H-M    'P1'
_symmetry_Int_Tables_number       1
_symmetry_cell_setting            triclinic
loop_
_symmetry_equiv_pos_as_xyz
  x,y,z
_cell_length_a                    36.9035
_cell_length_b                    9.6093
_cell_length_c                    22.9302
_cell_angle_alpha                 90.0000
_cell_angle_beta                  90.0000
_cell_angle_gamma                 90.0000
loop_
_atom_site_label
_atom_site_type_symbol
_atom_site_fract_x
_atom_site_fract_y
_atom_site_fract_z
_atom_site_U_iso_or_equiv
_atom_site_adp_type
_atom_site_occupancy
C1     C     0.37033   0.53561   0.57168   0.00000  Uiso   1.00
C2     C     0.33934   0.50930   0.52910   0.00000  Uiso   1.00
C3     C     0.33710   0.39926   0.49006   0.00000  Uiso   1.00
C4     C     0.30655   0.39361   0.45481   0.00000  Uiso   1.00
C5     C     0.26259   0.33745   0.38811   0.00000  Uiso   1.00
C6     C     0.38409   0.68193   0.55855   0.00000  Uiso   1.00
C7     C     0.41948   0.71703   0.54428   0.00000  Uiso   1.00
C8     C     0.42660   0.85670   0.53383   0.00000  Uiso   1.00
C9     C     0.45213   0.06857   0.51289   0.00000  Uiso   1.00
C10    C     0.35311   0.54282   0.63206   0.00000  Uiso   1.00
C11    C     0.36246   0.46099   0.67961   0.00000  Uiso   1.00
C12    C     0.34350   0.48356   0.73105   0.00000  Uiso   1.00
C13    C     0.32093   0.47944   0.82424   0.00000  Uiso   1.00
C14    C     0.32006   0.72123   0.57849   0.00000  Uiso   1.00
C15    C     0.31204   0.61012   0.53279   0.00000  Uiso   1.00
C16    C     0.28148   0.60463   0.49759   0.00000  Uiso   1.00
C17    C     0.27919   0.49460   0.45852   0.00000  Uiso   1.00
C18    C     0.35679   0.78275   0.56224   0.00000  Uiso   1.00
C19    C     0.36386   0.92240   0.55181   0.00000  Uiso   1.00
C20    C     0.39925   0.95771   0.53754   0.00000  Uiso   1.00
C21    C     0.32581   0.64364   0.63575   0.00000  Uiso   1.00
C22    C     0.30684   0.66635   0.68713   0.00000  Uiso   1.00
C23    C     0.31615   0.58456   0.73475   0.00000  Uiso   1.00
H24    H     0.39159   0.45712   0.56880   0.00000  Uiso   1.00
H25    H     0.35824   0.32127   0.48721   0.00000  Uiso   1.00
H26    H     0.44061   0.63899   0.54143   0.00000  Uiso   1.00
H27    H     0.38359   0.38298   0.67673   0.00000  Uiso   1.00
H28    H     0.30922   0.21514   0.39837   0.00000  Uiso   1.00
H29    H     0.48290   0.88508   0.51271   0.00000  Uiso   1.00
H30    H     0.36268   0.34523   0.79802   0.00000  Uiso   1.00
H31    H     0.29880   0.79973   0.58137   0.00000  Uiso   1.00
H32    H     0.26035   0.68267   0.50047   0.00000  Uiso   1.00
H33    H     0.34272   0.00039   0.55468   0.00000  Uiso   1.00
H34    H     0.28571   0.74438   0.68998   0.00000  Uiso   1.00
H35    H     0.22977   0.50846   0.40913   0.00000  Uiso   1.00
H36    H     0.40346   0.17841   0.52347   0.00000  Uiso   1.00
H37    H     0.28323   0.63856   0.80877   0.00000  Uiso   1.00
O38    O     0.24588   0.27864   0.35029   0.00000  Uiso   1.00
O39    O     0.47375   0.15757   0.50031   0.00000  Uiso   1.00
O40    O     0.31601   0.44930   0.87462   0.00000  Uiso   1.00
N41    N     0.29580   0.30022   0.41201   0.00000  Uiso   1.00
N42    N     0.45818   0.92657   0.51891   0.00000  Uiso   1.00
N43    N     0.34578   0.42188   0.78565   0.00000  Uiso   1.00
N44    N     0.25305   0.45806   0.41780   0.00000  Uiso   1.00
N45    N     0.41543   0.08441   0.52469   0.00000  Uiso   1.00
N46    N     0.30303   0.57972   0.79144   0.00000  Uiso   1.00
C47    C     0.12967   0.46439   0.07168   0.00000  Uiso   1.00
C48    C     0.16066   0.49070   0.02910   0.00000  Uiso   1.00
C49    C     0.16290   0.60074   0.99006   0.00000  Uiso   1.00
C50    C     0.19345   0.60639   0.95481   0.00000  Uiso   1.00
C51    C     0.23741   0.66255   0.88811   0.00000  Uiso   1.00
C52    C     0.11591   0.31807   0.05855   0.00000  Uiso   1.00
C53    C     0.08052   0.28297   0.04428   0.00000  Uiso   1.00
C54    C     0.07340   0.14330   0.03383   0.00000  Uiso   1.00
C55    C     0.04787   0.93143   0.01289   0.00000  Uiso   1.00
C56    C     0.14689   0.45718   0.13206   0.00000  Uiso   1.00
C57    C     0.13754   0.53901   0.17961   0.00000  Uiso   1.00
C58    C     0.15650   0.51644   0.23105   0.00000  Uiso   1.00
C59    C     0.17907   0.52056   0.32424   0.00000  Uiso   1.00
C60    C     0.17994   0.27877   0.07849   0.00000  Uiso   1.00
C61    C     0.18796   0.38988   0.03279   0.00000  Uiso   1.00
C62    C     0.21852   0.39537   0.99759   0.00000  Uiso   1.00
C63    C     0.22081   0.50540   0.95852   0.00000  Uiso   1.00
C64    C     0.14321   0.21725   0.06224   0.00000  Uiso   1.00
C65    C     0.13614   0.07760   0.05181   0.00000  Uiso   1.00
C66    C     0.10075   0.04229   0.03754   0.00000  Uiso   1.00
C67    C     0.17419   0.35636   0.13575   0.00000  Uiso   1.00
C68    C     0.19316   0.33365   0.18713   0.00000  Uiso   1.00
C69    C     0.18385   0.41544   0.23475   0.00000  Uiso   1.00
H70    H     0.10841   0.54288   0.06880   0.00000  Uiso   1.00
H71    H     0.14176   0.67873   0.98721   0.00000  Uiso   1.00
H72    H     0.05939   0.36101   0.04143   0.00000  Uiso   1.00
H73    H     0.11641   0.61702   0.17673   0.00000  Uiso   1.00
H74    H     0.19078   0.78486   0.89837   0.00000  Uiso   1.00
H75    H     0.01710   0.11492   0.01271   0.00000  Uiso   1.00
H76    H     0.13732   0.65477   0.29802   0.00000  Uiso   1.00
H77    H     0.20120   0.20027   0.08137   0.00000  Uiso   1.00
H78    H     0.23965   0.31733   0.00047   0.00000  Uiso   1.00
H79    H     0.15728   0.99961   0.05468   0.00000  Uiso   1.00
H80    H     0.21429   0.25562   0.18998   0.00000  Uiso   1.00
H81    H     0.27023   0.49154   0.90913   0.00000  Uiso   1.00
H82    H     0.09654   0.82159   0.02347   0.00000  Uiso   1.00
H83    H     0.21677   0.36144   0.30877   0.00000  Uiso   1.00
O84    O     0.25412   0.72136   0.85029   0.00000  Uiso   1.00
O85    O     0.02625   0.84243   0.00031   0.00000  Uiso   1.00
O86    O     0.18399   0.55070   0.37462   0.00000  Uiso   1.00
N87    N     0.20420   0.69978   0.91201   0.00000  Uiso   1.00
N88    N     0.04182   0.07343   0.01891   0.00000  Uiso   1.00
N89    N     0.15422   0.57812   0.28565   0.00000  Uiso   1.00
N90    N     0.24695   0.54194   0.91780   0.00000  Uiso   1.00
N91    N     0.08457   0.91559   0.02469   0.00000  Uiso   1.00
N92    N     0.19697   0.42028   0.29144   0.00000  Uiso   1.00
C93    C     0.62967   0.03561   0.92832   0.00000  Uiso   1.00
C94    C     0.66066   0.00930   0.97090   0.00000  Uiso   1.00
C95    C     0.66290   0.89926   0.00994   0.00000  Uiso   1.00
C96    C     0.69345   0.89361   0.04519   0.00000  Uiso   1.00
C97    C     0.73741   0.83745   0.11189   0.00000  Uiso   1.00
C98    C     0.61591   0.18193   0.94145   0.00000  Uiso   1.00
C99    C     0.58052   0.21703   0.95572   0.00000  Uiso   1.00
C100   C     0.57340   0.35670   0.96617   0.00000  Uiso   1.00
C101   C     0.54787   0.56857   0.98711   0.00000  Uiso   1.00
C102   C     0.64689   0.04282   0.86794   0.00000  Uiso   1.00
C103   C     0.63754   0.96099   0.82039   0.00000  Uiso   1.00
C104   C     0.65650   0.98356   0.76895   0.00000  Uiso   1.00
C105   C     0.67907   0.97944   0.67576   0.00000  Uiso   1.00
C106   C     0.67994   0.22123   0.92151   0.00000  Uiso   1.00
C107   C     0.68796   0.11012   0.96721   0.00000  Uiso   1.00
C108   C     0.71852   0.10463   0.00241   0.00000  Uiso   1.00
C109   C     0.72081   0.99460   0.04148   0.00000  Uiso   1.00
C110   C     0.64321   0.28275   0.93776   0.00000  Uiso   1.00
C111   C     0.63614   0.42240   0.94819   0.00000  Uiso   1.00
C112   C     0.60075   0.45771   0.96246   0.00000  Uiso   1.00
C113   C     0.67419   0.14364   0.86425   0.00000  Uiso   1.00
C114   C     0.69316   0.16635   0.81287   0.00000  Uiso   1.00
C115   C     0.68385   0.08456   0.76525   0.00000  Uiso   1.00
H116   H     0.60841   0.95712   0.93120   0.00000  Uiso   1.00
H117   H     0.64176   0.82127   0.01279   0.00000  Uiso   1.00
H118   H     0.55939   0.13899   0.95857   0.00000  Uiso   1.00
H119   H     0.61641   0.88298   0.82327   0.00000  Uiso   1.00
H120   H     0.69078   0.71514   0.10163   0.00000  Uiso   1.00
H121   H     0.51710   0.38508   0.98729   0.00000  Uiso   1.00
H122   H     0.63732   0.84523   0.70198   0.00000  Uiso   1.00
H123   H     0.70120   0.29973   0.91863   0.00000  Uiso   1.00
H124   H     0.73965   0.18267   0.99953   0.00000  Uiso   1.00
H125   H     0.65728   0.50039   0.94532   0.00000  Uiso   1.00
H126   H     0.71429   0.24438   0.81002   0.00000  Uiso   1.00
H127   H     0.77023   0.00846   0.09087   0.00000  Uiso   1.00
H128   H     0.59654   0.67841   0.97653   0.00000  Uiso   1.00
H129   H     0.71677   0.13856   0.69123   0.00000  Uiso   1.00
O130   O     0.75412   0.77864   0.14971   0.00000  Uiso   1.00
O131   O     0.52625   0.65757   0.99969   0.00000  Uiso   1.00
O132   O     0.68399   0.94930   0.62538   0.00000  Uiso   1.00
N133   N     0.70420   0.80022   0.08799   0.00000  Uiso   1.00
N134   N     0.54182   0.42657   0.98109   0.00000  Uiso   1.00
N135   N     0.65422   0.92188   0.71435   0.00000  Uiso   1.00
N136   N     0.74695   0.95806   0.08220   0.00000  Uiso   1.00
N137   N     0.58457   0.58441   0.97531   0.00000  Uiso   1.00
N138   N     0.69697   0.07972   0.70856   0.00000  Uiso   1.00
C139   C     0.87033   0.96439   0.42832   0.00000  Uiso   1.00
C140   C     0.83934   0.99070   0.47090   0.00000  Uiso   1.00
C141   C     0.83710   0.10074   0.50994   0.00000  Uiso   1.00
C142   C     0.80655   0.10639   0.54519   0.00000  Uiso   1.00
C143   C     0.76259   0.16255   0.61189   0.00000  Uiso   1.00
C144   C     0.88409   0.81807   0.44145   0.00000  Uiso   1.00
C145   C     0.91948   0.78297   0.45572   0.00000  Uiso   1.00
C146   C     0.92660   0.64330   0.46617   0.00000  Uiso   1.00
C147   C     0.95213   0.43143   0.48711   0.00000  Uiso   1.00
C148   C     0.85311   0.95718   0.36794   0.00000  Uiso   1.00
C149   C     0.86246   0.03901   0.32039   0.00000  Uiso   1.00
C150   C     0.84350   0.01644   0.26895   0.00000  Uiso   1.00
C151   C     0.82093   0.02056   0.17576   0.00000  Uiso   1.00
C152   C     0.82006   0.77877   0.42151   0.00000  Uiso   1.00
C153   C     0.81204   0.88988   0.46721   0.00000  Uiso   1.00
C154   C     0.78148   0.89537   0.50241   0.00000  Uiso   1.00
C155   C     0.77919   0.00540   0.54148   0.00000  Uiso   1.00
C156   C     0.85679   0.71725   0.43776   0.00000  Uiso   1.00
C157   C     0.86386   0.57760   0.44819   0.00000  Uiso   1.00
C158   C     0.89925   0.54229   0.46246   0.00000  Uiso   1.00
C159   C     0.82581   0.85636   0.36425   0.00000  Uiso   1.00
C160   C     0.80684   0.83365   0.31287   0.00000  Uiso   1.00
C161   C     0.81615   0.91544   0.26525   0.00000  Uiso   1.00
H162   H     0.89159   0.04288   0.43120   0.00000  Uiso   1.00
H163   H     0.85824   0.17873   0.51279   0.00000  Uiso   1.00
H164   H     0.94061   0.86101   0.45857   0.00000  Uiso   1.00
H165   H     0.88359   0.11702   0.32327   0.00000  Uiso   1.00
H166   H     0.80922   0.28486   0.60163   0.00000  Uiso   1.00
H167   H     0.98290   0.61492   0.48729   0.00000  Uiso   1.00
H168   H     0.86268   0.15477   0.20198   0.00000  Uiso   1.00
H169   H     0.79880   0.70027   0.41863   0.00000  Uiso   1.00
H170   H     0.76035   0.81733   0.49953   0.00000  Uiso   1.00
H171   H     0.84272   0.49961   0.44532   0.00000  Uiso   1.00
H172   H     0.78571   0.75562   0.31002   0.00000  Uiso   1.00
H173   H     0.72977   0.99154   0.59087   0.00000  Uiso   1.00
H174   H     0.90346   0.32159   0.47653   0.00000  Uiso   1.00
H175   H     0.78323   0.86144   0.19123   0.00000  Uiso   1.00
O176   O     0.74588   0.22136   0.64971   0.00000  Uiso   1.00
O177   O     0.97375   0.34243   0.49969   0.00000  Uiso   1.00
O178   O     0.81601   0.05070   0.12538   0.00000  Uiso   1.00
N179   N     0.79580   0.19978   0.58799   0.00000  Uiso   1.00
N180   N     0.95818   0.57343   0.48109   0.00000  Uiso   1.00
N181   N     0.84578   0.07812   0.21435   0.00000  Uiso   1.00
N182   N     0.75305   0.04194   0.58220   0.00000  Uiso   1.00
N183   N     0.91543   0.41559   0.47531   0.00000  Uiso   1.00
N184   N     0.80303   0.92028   0.20856   0.00000  Uiso   1.00
C185   C     0.62967   0.46439   0.42832   0.00000  Uiso   1.00
C186   C     0.66066   0.49070   0.47090   0.00000  Uiso   1.00
C187   C     0.66290   0.60074   0.50994   0.00000  Uiso   1.00
C188   C     0.69345   0.60639   0.54519   0.00000  Uiso   1.00
C189   C     0.73741   0.66255   0.61189   0.00000  Uiso   1.00
C190   C     0.61591   0.31807   0.44145   0.00000  Uiso   1.00
C191   C     0.58052   0.28297   0.45572   0.00000  Uiso   1.00
C192   C     0.57340   0.14330   0.46617   0.00000  Uiso   1.00
C193   C     0.54787   0.93143   0.48711   0.00000  Uiso   1.00
C194   C     0.64689   0.45718   0.36794   0.00000  Uiso   1.00
C195   C     0.63754   0.53901   0.32039   0.00000  Uiso   1.00
C196   C     0.65650   0.51644   0.26895   0.00000  Uiso   1.00
C197   C     0.67907   0.52056   0.17576   0.00000  Uiso   1.00
C198   C     0.67994   0.27877   0.42151   0.00000  Uiso   1.00
C199   C     0.68796   0.38988   0.46721   0.00000  Uiso   1.00
C200   C     0.71852   0.39537   0.50240   0.00000  Uiso   1.00
C201   C     0.72081   0.50540   0.54148   0.00000  Uiso   1.00
C202   C     0.64321   0.21725   0.43776   0.00000  Uiso   1.00
C203   C     0.63614   0.07760   0.44819   0.00000  Uiso   1.00
C204   C     0.60075   0.04229   0.46246   0.00000  Uiso   1.00
C205   C     0.67419   0.35636   0.36425   0.00000  Uiso   1.00
C206   C     0.69316   0.33365   0.31287   0.00000  Uiso   1.00
C207   C     0.68385   0.41544   0.26525   0.00000  Uiso   1.00
H208   H     0.60841   0.54288   0.43120   0.00000  Uiso   1.00
H209   H     0.64176   0.67873   0.51279   0.00000  Uiso   1.00
H210   H     0.55939   0.36101   0.45857   0.00000  Uiso   1.00
H211   H     0.61641   0.61702   0.32327   0.00000  Uiso   1.00
H212   H     0.69078   0.78486   0.60163   0.00000  Uiso   1.00
H213   H     0.51710   0.11492   0.48729   0.00000  Uiso   1.00
H214   H     0.63732   0.65477   0.20198   0.00000  Uiso   1.00
H215   H     0.70120   0.20027   0.41863   0.00000  Uiso   1.00
H216   H     0.73965   0.31733   0.49953   0.00000  Uiso   1.00
H217   H     0.65728   0.99961   0.44532   0.00000  Uiso   1.00
H218   H     0.71429   0.25562   0.31002   0.00000  Uiso   1.00
H219   H     0.77023   0.49154   0.59087   0.00000  Uiso   1.00
H220   H     0.59654   0.82159   0.47653   0.00000  Uiso   1.00
H221   H     0.71677   0.36144   0.19123   0.00000  Uiso   1.00
O222   O     0.75412   0.72136   0.64971   0.00000  Uiso   1.00
O223   O     0.52625   0.84243   0.49969   0.00000  Uiso   1.00
O224   O     0.68399   0.55070   0.12538   0.00000  Uiso   1.00
N225   N     0.70420   0.69978   0.58799   0.00000  Uiso   1.00
N226   N     0.54182   0.07343   0.48109   0.00000  Uiso   1.00
N227   N     0.65422   0.57812   0.21435   0.00000  Uiso   1.00
N228   N     0.74695   0.54194   0.58220   0.00000  Uiso   1.00
N229   N     0.58457   0.91559   0.47531   0.00000  Uiso   1.00
N230   N     0.69697   0.42028   0.20856   0.00000  Uiso   1.00
C231   C     0.87033   0.53561   0.92832   0.00000  Uiso   1.00
C232   C     0.83934   0.50930   0.97090   0.00000  Uiso   1.00
C233   C     0.83710   0.39926   0.00994   0.00000  Uiso   1.00
C234   C     0.80655   0.39361   0.04519   0.00000  Uiso   1.00
C235   C     0.76259   0.33745   0.11189   0.00000  Uiso   1.00
C236   C     0.88409   0.68193   0.94145   0.00000  Uiso   1.00
C237   C     0.91948   0.71703   0.95572   0.00000  Uiso   1.00
C238   C     0.92660   0.85670   0.96617   0.00000  Uiso   1.00
C239   C     0.95213   0.06857   0.98711   0.00000  Uiso   1.00
C240   C     0.85311   0.54282   0.86794   0.00000  Uiso   1.00
C241   C     0.86246   0.46099   0.82039   0.00000  Uiso   1.00
C242   C     0.84350   0.48356   0.76895   0.00000  Uiso   1.00
C243   C     0.82093   0.47944   0.67576   0.00000  Uiso   1.00
C244   C     0.82006   0.72123   0.92151   0.00000  Uiso   1.00
C245   C     0.81204   0.61012   0.96721   0.00000  Uiso   1.00
C246   C     0.78148   0.60463   0.00241   0.00000  Uiso   1.00
C247   C     0.77919   0.49460   0.04148   0.00000  Uiso   1.00
C248   C     0.85679   0.78275   0.93776   0.00000  Uiso   1.00
C249   C     0.86386   0.92240   0.94819   0.00000  Uiso   1.00
C250   C     0.89925   0.95771   0.96246   0.00000  Uiso   1.00
C251   C     0.82581   0.64364   0.86425   0.00000  Uiso   1.00
C252   C     0.80684   0.66635   0.81287   0.00000  Uiso   1.00
C253   C     0.81615   0.58456   0.76525   0.00000  Uiso   1.00
H254   H     0.89159   0.45712   0.93120   0.00000  Uiso   1.00
H255   H     0.85824   0.32127   0.01279   0.00000  Uiso   1.00
H256   H     0.94061   0.63899   0.95857   0.00000  Uiso   1.00
H257   H     0.88359   0.38298   0.82327   0.00000  Uiso   1.00
H258   H     0.80922   0.21514   0.10163   0.00000  Uiso   1.00
H259   H     0.98290   0.88508   0.98729   0.00000  Uiso   1.00
H260   H     0.86268   0.34523   0.70198   0.00000  Uiso   1.00
H261   H     0.79880   0.79973   0.91863   0.00000  Uiso   1.00
H262   H     0.76035   0.68267   0.99953   0.00000  Uiso   1.00
H263   H     0.84272   0.00039   0.94532   0.00000  Uiso   1.00
H264   H     0.78571   0.74438   0.81002   0.00000  Uiso   1.00
H265   H     0.72977   0.50846   0.09087   0.00000  Uiso   1.00
H266   H     0.90346   0.17841   0.97653   0.00000  Uiso   1.00
H267   H     0.78323   0.63856   0.69123   0.00000  Uiso   1.00
O268   O     0.74588   0.27864   0.14971   0.00000  Uiso   1.00
O269   O     0.97375   0.15757   0.99969   0.00000  Uiso   1.00
O270   O     0.81601   0.44930   0.62538   0.00000  Uiso   1.00
N271   N     0.79580   0.30022   0.08799   0.00000  Uiso   1.00
N272   N     0.95818   0.92657   0.98109   0.00000  Uiso   1.00
N273   N     0.84578   0.42188   0.71435   0.00000  Uiso   1.00
N274   N     0.75305   0.45806   0.08220   0.00000  Uiso   1.00
N275   N     0.91543   0.08441   0.97531   0.00000  Uiso   1.00
N276   N     0.80303   0.57972   0.70856   0.00000  Uiso   1.00
C277   C     0.37033   0.96439   0.07168   0.00000  Uiso   1.00
C278   C     0.33934   0.99070   0.02910   0.00000  Uiso   1.00
C279   C     0.33710   0.10074   0.99006   0.00000  Uiso   1.00
C280   C     0.30655   0.10639   0.95481   0.00000  Uiso   1.00
C281   C     0.26259   0.16255   0.88811   0.00000  Uiso   1.00
C282   C     0.38409   0.81807   0.05855   0.00000  Uiso   1.00
C283   C     0.41948   0.78297   0.04428   0.00000  Uiso   1.00
C284   C     0.42660   0.64330   0.03383   0.00000  Uiso   1.00
C285   C     0.45213   0.43143   0.01289   0.00000  Uiso   1.00
C286   C     0.35311   0.95718   0.13206   0.00000  Uiso   1.00
C287   C     0.36246   0.03901   0.17961   0.00000  Uiso   1.00
C288   C     0.34350   0.01644   0.23105   0.00000  Uiso   1.00
C289   C     0.32093   0.02056   0.32424   0.00000  Uiso   1.00
C290   C     0.32006   0.77877   0.07849   0.00000  Uiso   1.00
C291   C     0.31204   0.88988   0.03279   0.00000  Uiso   1.00
C292   C     0.28148   0.89537   0.99759   0.00000  Uiso   1.00
C293   C     0.27919   0.00540   0.95852   0.00000  Uiso   1.00
C294   C     0.35679   0.71725   0.06224   0.00000  Uiso   1.00
C295   C     0.36386   0.57760   0.05181   0.00000  Uiso   1.00
C296   C     0.39925   0.54229   0.03754   0.00000  Uiso   1.00
C297   C     0.32581   0.85636   0.13575   0.00000  Uiso   1.00
C298   C     0.30684   0.83365   0.18713   0.00000  Uiso   1.00
C299   C     0.31615   0.91544   0.23475   0.00000  Uiso   1.00
H300   H     0.39159   0.04288   0.06880   0.00000  Uiso   1.00
H301   H     0.35824   0.17873   0.98721   0.00000  Uiso   1.00
H302   H     0.44061   0.86101   0.04143   0.00000  Uiso   1.00
H303   H     0.38359   0.11702   0.17673   0.00000  Uiso   1.00
H304   H     0.30922   0.28486   0.89837   0.00000  Uiso   1.00
H305   H     0.48290   0.61492   0.01271   0.00000  Uiso   1.00
H306   H     0.36268   0.15477   0.29802   0.00000  Uiso   1.00
H307   H     0.29880   0.70027   0.08137   0.00000  Uiso   1.00
H308   H     0.26035   0.81733   0.00047   0.00000  Uiso   1.00
H309   H     0.34272   0.49961   0.05468   0.00000  Uiso   1.00
H310   H     0.28571   0.75562   0.18998   0.00000  Uiso   1.00
H311   H     0.22977   0.99154   0.90913   0.00000  Uiso   1.00
H312   H     0.40346   0.32159   0.02347   0.00000  Uiso   1.00
H313   H     0.28323   0.86144   0.30877   0.00000  Uiso   1.00
O314   O     0.24588   0.22136   0.85029   0.00000  Uiso   1.00
O315   O     0.47375   0.34243   0.00031   0.00000  Uiso   1.00
O316   O     0.31601   0.05070   0.37462   0.00000  Uiso   1.00
N317   N     0.29580   0.19978   0.91201   0.00000  Uiso   1.00
N318   N     0.45818   0.57343   0.01891   0.00000  Uiso   1.00
N319   N     0.34578   0.07812   0.28565   0.00000  Uiso   1.00
N320   N     0.25305   0.04194   0.91780   0.00000  Uiso   1.00
N321   N     0.41543   0.41559   0.02469   0.00000  Uiso   1.00
N322   N     0.30303   0.92028   0.29144   0.00000  Uiso   1.00
C323   C     0.12967   0.03561   0.57168   0.00000  Uiso   1.00
C324   C     0.16066   0.00930   0.52910   0.00000  Uiso   1.00
C325   C     0.16290   0.89926   0.49006   0.00000  Uiso   1.00
C326   C     0.19345   0.89361   0.45481   0.00000  Uiso   1.00
C327   C     0.23741   0.83745   0.38811   0.00000  Uiso   1.00
C328   C     0.11591   0.18193   0.55855   0.00000  Uiso   1.00
C329   C     0.08052   0.21703   0.54428   0.00000  Uiso   1.00
C330   C     0.07340   0.35670   0.53383   0.00000  Uiso   1.00
C331   C     0.04787   0.56857   0.51289   0.00000  Uiso   1.00
C332   C     0.14689   0.04282   0.63206   0.00000  Uiso   1.00
C333   C     0.13754   0.96099   0.67961   0.00000  Uiso   1.00
C334   C     0.15650   0.98356   0.73105   0.00000  Uiso   1.00
C335   C     0.17907   0.97944   0.82424   0.00000  Uiso   1.00
C336   C     0.17994   0.22123   0.57849   0.00000  Uiso   1.00
C337   C     0.18796   0.11012   0.53279   0.00000  Uiso   1.00
C338   C     0.21852   0.10463   0.49759   0.00000  Uiso   1.00
C339   C     0.22081   0.99460   0.45852   0.00000  Uiso   1.00
C340   C     0.14321   0.28275   0.56224   0.00000  Uiso   1.00
C341   C     0.13614   0.42240   0.55181   0.00000  Uiso   1.00
C342   C     0.10075   0.45771   0.53754   0.00000  Uiso   1.00
C343   C     0.17419   0.14364   0.63575   0.00000  Uiso   1.00
C344   C     0.19316   0.16635   0.68713   0.00000  Uiso   1.00
C345   C     0.18385   0.08456   0.73475   0.00000  Uiso   1.00
H346   H     0.10841   0.95712   0.56880   0.00000  Uiso   1.00
H347   H     0.14176   0.82127   0.48721   0.00000  Uiso   1.00
H348   H     0.05939   0.13899   0.54143   0.00000  Uiso   1.00
H349   H     0.11641   0.88298   0.67673   0.00000  Uiso   1.00
H350   H     0.19078   0.71514   0.39837   0.00000  Uiso   1.00
H351   H     0.01710   0.38508   0.51271   0.00000  Uiso   1.00
H352   H     0.13732   0.84523   0.79802   0.00000  Uiso   1.00
H353   H     0.20120   0.29973   0.58137   0.00000  Uiso   1.00
H354   H     0.23965   0.18267   0.50047   0.00000  Uiso   1.00
H355   H     0.15728   0.50039   0.55468   0.00000  Uiso   1.00
H356   H     0.21429   0.24438   0.68998   0.00000  Uiso   1.00
H357   H     0.27023   0.00846   0.40913   0.00000  Uiso   1.00
H358   H     0.09654   0.67841   0.52347   0.00000  Uiso   1.00
H359   H     0.21677   0.13856   0.80877   0.00000  Uiso   1.00
O360   O     0.25412   0.77864   0.35029   0.00000  Uiso   1.00
O361   O     0.02625   0.65757   0.50031   0.00000  Uiso   1.00
O362   O     0.18399   0.94930   0.87462   0.00000  Uiso   1.00
N363   N     0.20420   0.80022   0.41201   0.00000  Uiso   1.00
N364   N     0.04182   0.42657   0.51891   0.00000  Uiso   1.00
N365   N     0.15422   0.92188   0.78565   0.00000  Uiso   1.00
N366   N     0.24695   0.95806   0.41780   0.00000  Uiso   1.00
N367   N     0.08457   0.58441   0.52469   0.00000  Uiso   1.00
N368   N     0.19697   0.07972   0.79144   0.00000  Uiso   1.00
