data_job_06491
_audit_creation_date              2018-12-19
_audit_creation_method            'Materials Studio'
_symmetry_space_group_name_H-M    'P1'
_symmetry_Int_Tables_number       1
_symmetry_cell_setting            triclinic
loop_
_symmetry_equiv_pos_as_xyz
  x,y,z
_cell_length_a                    19.7160
_cell_length_b                    18.8954
_cell_length_c                    20.9811
_cell_angle_alpha                 110.2680
_cell_angle_beta                  100.9260
_cell_angle_gamma                 101.5860
loop_
_atom_site_label
_atom_site_type_symbol
_atom_site_fract_x
_atom_site_fract_y
_atom_site_fract_z
_atom_site_U_iso_or_equiv
_atom_site_adp_type
_atom_site_occupancy
C1     C     0.11217   0.81259   0.83501   0.00000  Uiso   1.00
C2     C     0.05940   0.83147   0.78451   0.00000  Uiso   1.00
C3     C     0.00235   0.86064   0.79916   0.00000  Uiso   1.00
C4     C     0.96029   0.87402   0.74594   0.00000  Uiso   1.00
C5     C     0.87611   0.90562   0.67748   0.00000  Uiso   1.00
C6     C     0.10821   0.72646   0.79612   0.00000  Uiso   1.00
C7     C     0.09221   0.66734   0.82053   0.00000  Uiso   1.00
C8     C     0.09125   0.59233   0.77708   0.00000  Uiso   1.00
C9     C     0.08290   0.46090   0.72666   0.00000  Uiso   1.00
C10    C     0.18724   0.86059   0.84177   0.00000  Uiso   1.00
C11    C     0.23770   0.91424   0.90457   0.00000  Uiso   1.00
C12    C     0.30328   0.95215   0.89955   0.00000  Uiso   1.00
C13    C     0.41764   0.02899   0.92001   0.00000  Uiso   1.00
C14    C     0.13892   0.78451   0.71444   0.00000  Uiso   1.00
C15    C     0.07393   0.81621   0.71902   0.00000  Uiso   1.00
C16    C     0.03195   0.82956   0.66576   0.00000  Uiso   1.00
C17    C     0.97485   0.85874   0.68033   0.00000  Uiso   1.00
C18    C     0.12274   0.71120   0.73063   0.00000  Uiso   1.00
C19    C     0.12180   0.63626   0.68713   0.00000  Uiso   1.00
C20    C     0.10580   0.57704   0.71147   0.00000  Uiso   1.00
C21    C     0.20177   0.84534   0.77628   0.00000  Uiso   1.00
C22    C     0.26729   0.88317   0.77116   0.00000  Uiso   1.00
C23    C     0.31784   0.93686   0.83394   0.00000  Uiso   1.00
H24    H     0.10086   0.82446   0.88600   0.00000  Uiso   1.00
H25    H     0.99112   0.87243   0.84985   0.00000  Uiso   1.00
H26    H     0.08098   0.67916   0.87122   0.00000  Uiso   1.00
H27    H     0.22644   0.92603   0.95524   0.00000  Uiso   1.00
H28    H     0.87585   0.91885   0.78089   0.00000  Uiso   1.00
H29    H     0.06533   0.51134   0.82595   0.00000  Uiso   1.00
H30    H     0.37207   0.03191   0.00313   0.00000  Uiso   1.00
H31    H     0.15023   0.77263   0.66344   0.00000  Uiso   1.00
H32    H     0.04320   0.81775   0.61508   0.00000  Uiso   1.00
H33    H     0.13305   0.62448   0.63645   0.00000  Uiso   1.00
H34    H     0.27851   0.87135   0.72047   0.00000  Uiso   1.00
H35    H     0.91811   0.87446   0.59034   0.00000  Uiso   1.00
H36    H     0.10759   0.46696   0.63541   0.00000  Uiso   1.00
H37    H     0.41433   0.98752   0.81258   0.00000  Uiso   1.00
O38    O     0.82567   0.92725   0.65781   0.00000  Uiso   1.00
O39    O     0.07427   0.39262   0.71694   0.00000  Uiso   1.00
O40    O     0.47670   0.07559   0.94939   0.00000  Uiso   1.00
N41    N     0.90049   0.90223   0.74268   0.00000  Uiso   1.00
N42    N     0.07763   0.52123   0.78481   0.00000  Uiso   1.00
N43    N     0.36442   0.00790   0.95046   0.00000  Uiso   1.00
N44    N     0.92324   0.87834   0.64015   0.00000  Uiso   1.00
N45    N     0.10038   0.49735   0.68228   0.00000  Uiso   1.00
N46    N     0.38716   0.98402   0.84793   0.00000  Uiso   1.00
C47    C     0.73849   0.99020   0.87553   0.00000  Uiso   1.00
C48    C     0.69562   0.94740   0.91145   0.00000  Uiso   1.00
C49    C     0.69139   0.87136   0.90642   0.00000  Uiso   1.00
C50    C     0.64932   0.84283   0.94325   0.00000  Uiso   1.00
C51    C     0.58828   0.76938   0.99285   0.00000  Uiso   1.00
C52    C     0.68450   0.01477   0.83149   0.00000  Uiso   1.00
C53    C     0.67094   0.99539   0.75923   0.00000  Uiso   1.00
C54    C     0.61952   0.02358   0.72876   0.00000  Uiso   1.00
C55    C     0.54125   0.05478   0.65423   0.00000  Uiso   1.00
C56    C     0.78930   0.06636   0.93460   0.00000  Uiso   1.00
C57    C     0.86385   0.09037   0.94903   0.00000  Uiso   1.00
C58    C     0.90066   0.16201   0.00536   0.00000  Uiso   1.00
C59    C     0.98511   0.27330   0.09093   0.00000  Uiso   1.00
C60    C     0.67130   0.07475   0.94988   0.00000  Uiso   1.00
C61    C     0.65913   0.99333   0.95183   0.00000  Uiso   1.00
C62    C     0.61706   0.96491   0.98868   0.00000  Uiso   1.00
C63    C     0.61277   0.88884   0.98371   0.00000  Uiso   1.00
C64    C     0.64801   0.06070   0.87187   0.00000  Uiso   1.00
C65    C     0.59660   0.08893   0.84150   0.00000  Uiso   1.00
C66    C     0.58296   0.06959   0.76922   0.00000  Uiso   1.00
C67    C     0.75281   0.11229   0.97499   0.00000  Uiso   1.00
C68    C     0.78951   0.18391   0.03130   0.00000  Uiso   1.00
C69    C     0.86410   0.20802   0.04582   0.00000  Uiso   1.00
H70    H     0.76690   0.95444   0.84408   0.00000  Uiso   1.00
H71    H     0.71964   0.83584   0.87515   0.00000  Uiso   1.00
H72    H     0.69919   0.95985   0.72799   0.00000  Uiso   1.00
H73    H     0.89207   0.05481   0.91777   0.00000  Uiso   1.00
H74    H     0.65112   0.72458   0.92739   0.00000  Uiso   1.00
H75    H     0.60803   0.98610   0.61710   0.00000  Uiso   1.00
H76    H     0.01475   0.18634   0.01728   0.00000  Uiso   1.00
H77    H     0.64289   0.11051   0.98133   0.00000  Uiso   1.00
H78    H     0.58882   0.00046   0.01993   0.00000  Uiso   1.00
H79    H     0.56837   0.12448   0.87277   0.00000  Uiso   1.00
H80    H     0.76126   0.21944   0.06254   0.00000  Uiso   1.00
H81    H     0.54494   0.85820   0.04489   0.00000  Uiso   1.00
H82    H     0.50185   0.11971   0.73461   0.00000  Uiso   1.00
H83    H     0.90858   0.31996   0.13478   0.00000  Uiso   1.00
O84    O     0.56468   0.71617   0.00904   0.00000  Uiso   1.00
O85    O     0.50816   0.05928   0.60196   0.00000  Uiso   1.00
O86    O     0.04177   0.32200   0.12698   0.00000  Uiso   1.00
N87    N     0.63356   0.77114   0.94976   0.00000  Uiso   1.00
N88    N     0.59326   0.01563   0.65965   0.00000  Uiso   1.00
N89    N     0.97352   0.20285   0.03377   0.00000  Uiso   1.00
N90    N     0.57643   0.84303   0.01299   0.00000  Uiso   1.00
N91    N     0.53613   0.08752   0.72288   0.00000  Uiso   1.00
N92    N     0.91639   0.27475   0.09700   0.00000  Uiso   1.00
C93    C     0.90150   0.90675   0.24790   0.00000  Uiso   1.00
C94    C     0.89511   0.88705   0.16971   0.00000  Uiso   1.00
C95    C     0.90718   0.94134   0.13937   0.00000  Uiso   1.00
C96    C     0.89851   0.91147   0.06691   0.00000  Uiso   1.00
C97    C     0.89159   0.89324   0.95167   0.00000  Uiso   1.00
C98    C     0.82871   0.86356   0.25075   0.00000  Uiso   1.00
C99    C     0.78495   0.89809   0.28856   0.00000  Uiso   1.00
C100   C     0.72039   0.84844   0.28432   0.00000  Uiso   1.00
C101   C     0.61041   0.79372   0.29493   0.00000  Uiso   1.00
C102   C     0.95544   0.86714   0.27203   0.00000  Uiso   1.00
C103   C     0.01823   0.90469   0.32773   0.00000  Uiso   1.00
C104   C     0.06036   0.85805   0.34142   0.00000  Uiso   1.00
C105   C     0.14714   0.80890   0.38507   0.00000  Uiso   1.00
C106   C     0.86467   0.75718   0.17317   0.00000  Uiso   1.00
C107   C     0.87510   0.80581   0.12912   0.00000  Uiso   1.00
C108   C     0.86642   0.77585   0.05668   0.00000  Uiso   1.00
C109   C     0.87847   0.83008   0.02624   0.00000  Uiso   1.00
C110   C     0.80870   0.78232   0.21016   0.00000  Uiso   1.00
C111   C     0.74419   0.73260   0.20587   0.00000  Uiso   1.00
C112   C     0.70035   0.76705   0.24365   0.00000  Uiso   1.00
C113   C     0.93543   0.78590   0.23144   0.00000  Uiso   1.00
C114   C     0.97747   0.73920   0.24504   0.00000  Uiso   1.00
C115   C     0.04031   0.77666   0.30075   0.00000  Uiso   1.00
H116   H     0.91708   0.97000   0.27951   0.00000  Uiso   1.00
H117   H     0.92265   0.00421   0.17080   0.00000  Uiso   1.00
H118   H     0.80045   0.96096   0.31997   0.00000  Uiso   1.00
H119   H     0.03369   0.96756   0.35913   0.00000  Uiso   1.00
H120   H     0.91998   0.00630   0.03238   0.00000  Uiso   1.00
H121   H     0.66233   0.91511   0.34692   0.00000  Uiso   1.00
H122   H     0.15416   0.92902   0.42951   0.00000  Uiso   1.00
H123   H     0.84909   0.69392   0.14157   0.00000  Uiso   1.00
H124   H     0.85093   0.71297   0.02528   0.00000  Uiso   1.00
H125   H     0.72873   0.66973   0.17445   0.00000  Uiso   1.00
H126   H     0.96197   0.67633   0.21362   0.00000  Uiso   1.00
H127   H     0.86177   0.76992   0.91427   0.00000  Uiso   1.00
H128   H     0.60411   0.67874   0.22882   0.00000  Uiso   1.00
H129   H     0.09595   0.69264   0.31140   0.00000  Uiso   1.00
O130   O     0.89329   0.90563   0.89931   0.00000  Uiso   1.00
O131   O     0.55527   0.78599   0.31200   0.00000  Uiso   1.00
O132   O     0.20055   0.80424   0.42035   0.00000  Uiso   1.00
N133   N     0.90604   0.94806   0.02054   0.00000  Uiso   1.00
N134   N     0.66514   0.86280   0.31461   0.00000  Uiso   1.00
N135   N     0.12496   0.87580   0.39184   0.00000  Uiso   1.00
N136   N     0.87472   0.82086   0.95699   0.00000  Uiso   1.00
N137   N     0.63382   0.73561   0.25106   0.00000  Uiso   1.00
N138   N     0.09364   0.74861   0.32829   0.00000  Uiso   1.00
C139   C     0.73272   0.45945   0.48360   0.00000  Uiso   1.00
C140   C     0.65095   0.42753   0.46547   0.00000  Uiso   1.00
C141   C     0.60351   0.47261   0.47764   0.00000  Uiso   1.00
C142   C     0.53067   0.43226   0.45722   0.00000  Uiso   1.00
C143   C     0.40742   0.39525   0.43382   0.00000  Uiso   1.00
C144   C     0.75216   0.42512   0.41456   0.00000  Uiso   1.00
C145   C     0.78982   0.46817   0.38394   0.00000  Uiso   1.00
C146   C     0.80219   0.42578   0.32067   0.00000  Uiso   1.00
C147   C     0.83611   0.38502   0.21826   0.00000  Uiso   1.00
C148   C     0.76423   0.42165   0.53109   0.00000  Uiso   1.00
C149   C     0.81205   0.46178   0.59844   0.00000  Uiso   1.00
C150   C     0.83459   0.41647   0.63327   0.00000  Uiso   1.00
C151   C     0.88725   0.37032   0.71178   0.00000  Uiso   1.00
C152   C     0.68775   0.30762   0.42569   0.00000  Uiso   1.00
C153   C     0.62653   0.34506   0.43401   0.00000  Uiso   1.00
C154   C     0.55375   0.30463   0.41357   0.00000  Uiso   1.00
C155   C     0.50620   0.34965   0.42571   0.00000  Uiso   1.00
C156   C     0.72773   0.34265   0.38311   0.00000  Uiso   1.00
C157   C     0.74006   0.30019   0.31987   0.00000  Uiso   1.00
C158   C     0.77772   0.34317   0.28916   0.00000  Uiso   1.00
C159   C     0.73980   0.33918   0.49963   0.00000  Uiso   1.00
C160   C     0.76228   0.29380   0.53437   0.00000  Uiso   1.00
C161   C     0.81012   0.33385   0.60176   0.00000  Uiso   1.00
H162   H     0.75174   0.52365   0.50809   0.00000  Uiso   1.00
H163   H     0.62243   0.53643   0.50198   0.00000  Uiso   1.00
H164   H     0.80872   0.53199   0.40830   0.00000  Uiso   1.00
H165   H     0.83094   0.52560   0.62276   0.00000  Uiso   1.00
H166   H     0.46829   0.51424   0.48131   0.00000  Uiso   1.00
H167   H     0.86111   0.50487   0.28379   0.00000  Uiso   1.00
H168   H     0.90797   0.49139   0.73603   0.00000  Uiso   1.00
H169   H     0.66873   0.24341   0.40120   0.00000  Uiso   1.00
H170   H     0.53486   0.24081   0.38923   0.00000  Uiso   1.00
H171   H     0.72115   0.23637   0.29555   0.00000  Uiso   1.00
H172   H     0.74337   0.22998   0.51001   0.00000  Uiso   1.00
H173   H     0.39721   0.27430   0.38980   0.00000  Uiso   1.00
H174   H     0.79004   0.26493   0.19227   0.00000  Uiso   1.00
H175   H     0.83689   0.25145   0.64451   0.00000  Uiso   1.00
O176   O     0.34618   0.39762   0.42959   0.00000  Uiso   1.00
O177   O     0.86157   0.38533   0.17045   0.00000  Uiso   1.00
O178   O     0.92303   0.36764   0.76378   0.00000  Uiso   1.00
N179   N     0.46993   0.45812   0.46143   0.00000  Uiso   1.00
N180   N     0.83719   0.44936   0.27675   0.00000  Uiso   1.00
N181   N     0.88101   0.43676   0.69955   0.00000  Uiso   1.00
N182   N     0.43169   0.32902   0.41219   0.00000  Uiso   1.00
N183   N     0.79895   0.32026   0.22751   0.00000  Uiso   1.00
N184   N     0.84276   0.30766   0.65031   0.00000  Uiso   1.00
C185   C     0.30297   0.28407   0.67541   0.00000  Uiso   1.00
C186   C     0.25518   0.30184   0.62019   0.00000  Uiso   1.00
C187   C     0.27645   0.32369   0.56868   0.00000  Uiso   1.00
C188   C     0.22470   0.33734   0.52314   0.00000  Uiso   1.00
C189   C     0.16120   0.36610   0.43649   0.00000  Uiso   1.00
C190   C     0.26461   0.20109   0.66616   0.00000  Uiso   1.00
C191   C     0.29382   0.13824   0.65332   0.00000  Uiso   1.00
C192   C     0.25000   0.06708   0.64649   0.00000  Uiso   1.00
C193   C     0.20117   0.93944   0.63126   0.00000  Uiso   1.00
C194   C     0.30020   0.33924   0.74721   0.00000  Uiso   1.00
C195   C     0.35933   0.39255   0.80252   0.00000  Uiso   1.00
C196   C     0.34548   0.43770   0.86393   0.00000  Uiso   1.00
C197   C     0.35190   0.52457   0.97454   0.00000  Uiso   1.00
C198   C     0.17322   0.26943   0.68612   0.00000  Uiso   1.00
C199   C     0.18471   0.29388   0.62601   0.00000  Uiso   1.00
C200   C     0.13290   0.30751   0.58053   0.00000  Uiso   1.00
C201   C     0.15410   0.32938   0.52897   0.00000  Uiso   1.00
C202   C     0.19414   0.19314   0.67198   0.00000  Uiso   1.00
C203   C     0.15027   0.12205   0.66517   0.00000  Uiso   1.00
C204   C     0.17940   0.05912   0.65231   0.00000  Uiso   1.00
C205   C     0.22972   0.33130   0.75303   0.00000  Uiso   1.00
C206   C     0.21578   0.37636   0.81437   0.00000  Uiso   1.00
C207   C     0.27488   0.42973   0.86976   0.00000  Uiso   1.00
H208   H     0.35783   0.29025   0.67088   0.00000  Uiso   1.00
H209   H     0.33100   0.32983   0.56419   0.00000  Uiso   1.00
H210   H     0.34836   0.14441   0.64883   0.00000  Uiso   1.00
H211   H     0.41386   0.39868   0.79800   0.00000  Uiso   1.00
H212   H     0.27015   0.37018   0.44846   0.00000  Uiso   1.00
H213   H     0.30678   0.97922   0.62694   0.00000  Uiso   1.00
H214   H     0.44489   0.51540   0.94150   0.00000  Uiso   1.00
H215   H     0.11835   0.26324   0.69065   0.00000  Uiso   1.00
H216   H     0.07837   0.30135   0.58505   0.00000  Uiso   1.00
H217   H     0.09574   0.11593   0.66968   0.00000  Uiso   1.00
H218   H     0.16123   0.37020   0.81885   0.00000  Uiso   1.00
H219   H     0.06512   0.34706   0.46539   0.00000  Uiso   1.00
H220   H     0.10174   0.95610   0.64387   0.00000  Uiso   1.00
H221   H     0.23985   0.49228   0.95842   0.00000  Uiso   1.00
O222   O     0.14565   0.38415   0.38709   0.00000  Uiso   1.00
O223   O     0.19370   0.87123   0.62125   0.00000  Uiso   1.00
O224   O     0.37491   0.57469   0.03394   0.00000  Uiso   1.00
N225   N     0.22739   0.35953   0.46695   0.00000  Uiso   1.00
N226   N     0.26162   0.99400   0.63380   0.00000  Uiso   1.00
N227   N     0.39075   0.49527   0.92789   0.00000  Uiso   1.00
N228   N     0.11706   0.34709   0.47606   0.00000  Uiso   1.00
N229   N     0.15130   0.98156   0.64291   0.00000  Uiso   1.00
N230   N     0.28042   0.48283   0.93700   0.00000  Uiso   1.00
C231   C     0.26399   0.47385   0.26409   0.00000  Uiso   1.00
C232   C     0.29180   0.41214   0.21616   0.00000  Uiso   1.00
C233   C     0.28496   0.33650   0.21338   0.00000  Uiso   1.00
C234   C     0.31403   0.28899   0.16599   0.00000  Uiso   1.00
C235   C     0.35192   0.18900   0.09809   0.00000  Uiso   1.00
C236   C     0.21466   0.49782   0.21516   0.00000  Uiso   1.00
C237   C     0.14296   0.49424   0.21154   0.00000  Uiso   1.00
C238   C     0.10710   0.51887   0.16331   0.00000  Uiso   1.00
C239   C     0.02525   0.55196   0.09389   0.00000  Uiso   1.00
C240   C     0.32922   0.54595   0.30666   0.00000  Uiso   1.00
C241   C     0.35382   0.58285   0.37998   0.00000  Uiso   1.00
C242   C     0.41440   0.64801   0.40878   0.00000  Uiso   1.00
C243   C     0.51040   0.75583   0.48142   0.00000  Uiso   1.00
C244   C     0.32780   0.52398   0.18487   0.00000  Uiso   1.00
C245   C     0.32646   0.43936   0.17313   0.00000  Uiso   1.00
C246   C     0.35556   0.39195   0.12573   0.00000  Uiso   1.00
C247   C     0.34876   0.31626   0.12288   0.00000  Uiso   1.00
C248   C     0.24932   0.52505   0.17213   0.00000  Uiso   1.00
C249   C     0.21356   0.54969   0.12389   0.00000  Uiso   1.00
C250   C     0.14183   0.54614   0.12020   0.00000  Uiso   1.00
C251   C     0.36388   0.57317   0.26363   0.00000  Uiso   1.00
C252   C     0.42443   0.63830   0.29232   0.00000  Uiso   1.00
C253   C     0.44912   0.67528   0.36567   0.00000  Uiso   1.00
H254   H     0.23700   0.45266   0.29759   0.00000  Uiso   1.00
H255   H     0.25812   0.31545   0.24669   0.00000  Uiso   1.00
H256   H     0.11616   0.47318   0.24486   0.00000  Uiso   1.00
H257   H     0.32699   0.56176   0.41326   0.00000  Uiso   1.00
H258   H     0.29681   0.17533   0.17126   0.00000  Uiso   1.00
H259   H     0.99747   0.50792   0.16741   0.00000  Uiso   1.00
H260   H     0.44204   0.69473   0.52252   0.00000  Uiso   1.00
H261   H     0.35478   0.54517   0.15136   0.00000  Uiso   1.00
H262   H     0.38238   0.41304   0.09244   0.00000  Uiso   1.00
H263   H     0.24040   0.57076   0.09060   0.00000  Uiso   1.00
H264   H     0.45123   0.65935   0.25901   0.00000  Uiso   1.00
H265   H     0.39765   0.25453   0.04606   0.00000  Uiso   1.00
H266   H     0.09831   0.58712   0.04221   0.00000  Uiso   1.00
H267   H     0.54289   0.77393   0.39732   0.00000  Uiso   1.00
O268   O     0.36323   0.12633   0.07252   0.00000  Uiso   1.00
O269   O     0.97052   0.56269   0.06748   0.00000  Uiso   1.00
O270   O     0.55379   0.80777   0.53338   0.00000  Uiso   1.00
N271   N     0.31677   0.21211   0.14989   0.00000  Uiso   1.00
N272   N     0.03690   0.52305   0.14628   0.00000  Uiso   1.00
N273   N     0.45253   0.69771   0.47829   0.00000  Uiso   1.00
N274   N     0.37103   0.25473   0.08252   0.00000  Uiso   1.00
N275   N     0.09116   0.56567   0.07892   0.00000  Uiso   1.00
N276   N     0.50679   0.74033   0.41092   0.00000  Uiso   1.00
C277   C     0.94827   0.20376   0.30624   0.00000  Uiso   1.00
C278   C     0.99015   0.17600   0.35714   0.00000  Uiso   1.00
C279   C     0.04720   0.14461   0.34788   0.00000  Uiso   1.00
C280   C     0.07837   0.12276   0.40050   0.00000  Uiso   1.00
C281   C     0.14723   0.07829   0.47048   0.00000  Uiso   1.00
C282   C     0.95382   0.28935   0.34952   0.00000  Uiso   1.00
C283   C     0.98031   0.35324   0.33383   0.00000  Uiso   1.00
C284   C     0.98089   0.42681   0.38003   0.00000  Uiso   1.00
C285   C     0.99330   0.55829   0.43813   0.00000  Uiso   1.00
C286   C     0.86926   0.15762   0.28740   0.00000  Uiso   1.00
C287   C     0.82465   0.11078   0.21948   0.00000  Uiso   1.00
C288   C     0.75403   0.07345   0.21338   0.00000  Uiso   1.00
C289   C     0.63515   0.00041   0.17504   0.00000  Uiso   1.00
C290   C     0.90218   0.22079   0.41618   0.00000  Uiso   1.00
C291   C     0.96512   0.18526   0.41686   0.00000  Uiso   1.00
C292   C     0.99621   0.16345   0.46951   0.00000  Uiso   1.00
C293   C     0.05329   0.13203   0.46032   0.00000  Uiso   1.00
C294   C     0.92879   0.29860   0.40923   0.00000  Uiso   1.00
C295   C     0.92932   0.37208   0.45546   0.00000  Uiso   1.00
C296   C     0.95581   0.43607   0.43985   0.00000  Uiso   1.00
C297   C     0.84423   0.16687   0.34711   0.00000  Uiso   1.00
C298   C     0.77366   0.12961   0.34112   0.00000  Uiso   1.00
C299   C     0.72895   0.08272   0.27320   0.00000  Uiso   1.00
H300   H     0.96776   0.19657   0.25975   0.00000  Uiso   1.00
H301   H     0.06656   0.13747   0.30166   0.00000  Uiso   1.00
H302   H     0.99968   0.34606   0.28761   0.00000  Uiso   1.00
H303   H     0.84404   0.10363   0.17328   0.00000  Uiso   1.00
H304   H     0.16508   0.07605   0.37447   0.00000  Uiso   1.00
H305   H     0.02403   0.51588   0.34483   0.00000  Uiso   1.00
H306   H     0.69584   0.00467   0.10375   0.00000  Uiso   1.00
H307   H     0.88269   0.22800   0.46267   0.00000  Uiso   1.00
H308   H     0.97682   0.17062   0.51571   0.00000  Uiso   1.00
H309   H     0.90994   0.37922   0.50166   0.00000  Uiso   1.00
H310   H     0.75431   0.13679   0.38734   0.00000  Uiso   1.00
H311   H     0.09224   0.10296   0.54821   0.00000  Uiso   1.00
H312   H     0.95119   0.54280   0.51856   0.00000  Uiso   1.00
H313   H     0.62300   0.03158   0.27749   0.00000  Uiso   1.00
O314   O     0.19214   0.05121   0.49258   0.00000  Uiso   1.00
O315   O     0.00707   0.62826   0.45369   0.00000  Uiso   1.00
O316   O     0.57650   0.95756   0.13740   0.00000  Uiso   1.00
N317   N     0.13501   0.09024   0.40807   0.00000  Uiso   1.00
N318   N     0.00315   0.50146   0.38037   0.00000  Uiso   1.00
N319   N     0.69631   0.02354   0.15498   0.00000  Uiso   1.00
N320   N     0.09582   0.10472   0.50156   0.00000  Uiso   1.00
N321   N     0.96395   0.51594   0.47385   0.00000  Uiso   1.00
N322   N     0.65712   0.03802   0.24846   0.00000  Uiso   1.00
C323   C     0.28348   0.02492   0.27118   0.00000  Uiso   1.00
C324   C     0.35104   0.05642   0.25243   0.00000  Uiso   1.00
C325   C     0.37658   0.13245   0.25684   0.00000  Uiso   1.00
C326   C     0.43932   0.14968   0.23729   0.00000  Uiso   1.00
C327   C     0.53879   0.20725   0.21173   0.00000  Uiso   1.00
C328   C     0.30815   0.99360   0.32676   0.00000  Uiso   1.00
C329   C     0.29762   0.01681   0.39367   0.00000  Uiso   1.00
C330   C     0.32425   0.98115   0.43668   0.00000  Uiso   1.00
C331   C     0.35708   0.94115   0.52650   0.00000  Uiso   1.00
C332   C     0.23649   0.95306   0.20518   0.00000  Uiso   1.00
C333   C     0.16570   0.94216   0.16987   0.00000  Uiso   1.00
C334   C     0.13199   0.87236   0.11053   0.00000  Uiso   1.00
C335   C     0.05356   0.76941   0.01158   0.00000  Uiso   1.00
C336   C     0.34947   0.92031   0.22861   0.00000  Uiso   1.00
C337   C     0.38688   0.99960   0.22932   0.00000  Uiso   1.00
C338   C     0.44960   0.01672   0.20975   0.00000  Uiso   1.00
C339   C     0.47523   0.09277   0.21413   0.00000  Uiso   1.00
C340   C     0.34399   0.93678   0.30365   0.00000  Uiso   1.00
C341   C     0.37063   0.90108   0.34657   0.00000  Uiso   1.00
C342   C     0.36016   0.92423   0.41352   0.00000  Uiso   1.00
C343   C     0.27233   0.89624   0.18206   0.00000  Uiso   1.00
C344   C     0.23872   0.82644   0.12277   0.00000  Uiso   1.00
C345   C     0.16790   0.81544   0.08737   0.00000  Uiso   1.00
H346   H     0.25557   0.06915   0.28919   0.00000  Uiso   1.00
H347   H     0.34883   0.17640   0.27475   0.00000  Uiso   1.00
H348   H     0.26987   0.06077   0.41154   0.00000  Uiso   1.00
H349   H     0.13798   0.98614   0.18778   0.00000  Uiso   1.00
H350   H     0.46805   0.27027   0.24857   0.00000  Uiso   1.00
H351   H     0.30154   0.02644   0.53699   0.00000  Uiso   1.00
H352   H     0.02342   0.86906   0.06514   0.00000  Uiso   1.00
H353   H     0.37738   0.87608   0.21061   0.00000  Uiso   1.00
H354   H     0.47733   0.97274   0.19186   0.00000  Uiso   1.00
H355   H     0.39837   0.85711   0.32866   0.00000  Uiso   1.00
H356   H     0.26648   0.78248   0.10489   0.00000  Uiso   1.00
H357   H     0.57234   0.10497   0.18129   0.00000  Uiso   1.00
H358   H     0.40583   0.86113   0.46972   0.00000  Uiso   1.00
H359   H     0.12771   0.70377   0.99787   0.00000  Uiso   1.00
O360   O     0.58376   0.25470   0.20403   0.00000  Uiso   1.00
O361   O     0.36529   0.93479   0.58243   0.00000  Uiso   1.00
O362   O     0.00040   0.72833   0.96338   0.00000  Uiso   1.00
N363   N     0.47887   0.21810   0.23529   0.00000  Uiso   1.00
N364   N     0.32320   0.99014   0.50496   0.00000  Uiso   1.00
N365   N     0.06318   0.84300   0.06383   0.00000  Uiso   1.00
N366   N     0.53499   0.12915   0.19909   0.00000  Uiso   1.00
N367   N     0.37932   0.90119   0.46876   0.00000  Uiso   1.00
N368   N     0.11930   0.75405   0.02763   0.00000  Uiso   1.00
C369   C     0.12793   0.08562   0.85529   0.00000  Uiso   1.00
C370   C     0.12909   0.11074   0.93293   0.00000  Uiso   1.00
C371   C     0.11479   0.06044   0.96684   0.00000  Uiso   1.00
C372   C     0.11864   0.09497   0.03809   0.00000  Uiso   1.00
C373   C     0.11782   0.12152   0.15318   0.00000  Uiso   1.00
C374   C     0.20212   0.12843   0.85502   0.00000  Uiso   1.00
C375   C     0.24923   0.09300   0.82340   0.00000  Uiso   1.00
C376   C     0.31456   0.14244   0.82906   0.00000  Uiso   1.00
C377   C     0.42710   0.19646   0.82314   0.00000  Uiso   1.00
C378   C     0.07469   0.12103   0.82332   0.00000  Uiso   1.00
C379   C     0.01466   0.07938   0.76503   0.00000  Uiso   1.00
C380   C     0.97271   0.12258   0.74399   0.00000  Uiso   1.00
C381   C     0.88739   0.16510   0.68886   0.00000  Uiso   1.00
C382   C     0.16020   0.23641   0.92153   0.00000  Uiso   1.00
C383   C     0.14662   0.19264   0.96891   0.00000  Uiso   1.00
C384   C     0.15049   0.22727   0.04013   0.00000  Uiso   1.00
C385   C     0.13620   0.17702   0.07414   0.00000  Uiso   1.00
C386   C     0.21965   0.21033   0.89100   0.00000  Uiso   1.00
C387   C     0.28493   0.25983   0.89669   0.00000  Uiso   1.00
C388   C     0.33212   0.22449   0.86510   0.00000  Uiso   1.00
C389   C     0.09222   0.20293   0.85930   0.00000  Uiso   1.00
C390   C     0.05036   0.24621   0.83833   0.00000  Uiso   1.00
C391   C     0.99027   0.20463   0.78004   0.00000  Uiso   1.00
H392   H     0.11429   0.02186   0.82727   0.00000  Uiso   1.00
H393   H     0.10123   0.99705   0.93897   0.00000  Uiso   1.00
H394   H     0.23564   0.02962   0.79555   0.00000  Uiso   1.00
H395   H     0.00111   0.01600   0.73720   0.00000  Uiso   1.00
H396   H     0.09452   0.00568   0.07869   0.00000  Uiso   1.00
H397   H     0.37792   0.07435   0.77626   0.00000  Uiso   1.00
H398   H     0.88336   0.04561   0.65321   0.00000  Uiso   1.00
H399   H     0.17385   0.30018   0.94955   0.00000  Uiso   1.00
H400   H     0.16406   0.29065   0.06796   0.00000  Uiso   1.00
H401   H     0.29847   0.32321   0.92454   0.00000  Uiso   1.00
H402   H     0.06394   0.30959   0.86619   0.00000  Uiso   1.00
H403   H     0.14551   0.24397   0.18338   0.00000  Uiso   1.00
H404   H     0.42892   0.31264   0.88095   0.00000  Uiso   1.00
H405   H     0.93436   0.28390   0.75791   0.00000  Uiso   1.00
O406   O     0.11253   0.11353   0.20673   0.00000  Uiso   1.00
O407   O     0.48433   0.20362   0.80994   0.00000  Uiso   1.00
O408   O     0.83548   0.16592   0.64851   0.00000  Uiso   1.00
N409   N     0.10785   0.06307   0.08707   0.00000  Uiso   1.00
N410   N     0.37282   0.12727   0.80433   0.00000  Uiso   1.00
N411   N     0.91046   0.10040   0.68928   0.00000  Uiso   1.00
N412   N     0.13529   0.19129   0.14341   0.00000  Uiso   1.00
N413   N     0.40026   0.25549   0.86066   0.00000  Uiso   1.00
N414   N     0.93790   0.22863   0.74562   0.00000  Uiso   1.00
C415   C     0.34618   0.58398   0.67186   0.00000  Uiso   1.00
C416   C     0.42594   0.62778   0.69118   0.00000  Uiso   1.00
C417   C     0.48167   0.59327   0.68662   0.00000  Uiso   1.00
C418   C     0.55094   0.64352   0.70680   0.00000  Uiso   1.00
C419   C     0.67282   0.69908   0.73320   0.00000  Uiso   1.00
C420   C     0.32183   0.61878   0.73781   0.00000  Uiso   1.00
C421   C     0.29002   0.57669   0.77244   0.00000  Uiso   1.00
C422   C     0.27165   0.61936   0.83186   0.00000  Uiso   1.00
C423   C     0.23185   0.66094   0.93062   0.00000  Uiso   1.00
C424   C     0.30716   0.60859   0.61673   0.00000  Uiso   1.00
C425   C     0.26300   0.55795   0.54955   0.00000  Uiso   1.00
C426   C     0.23226   0.59205   0.50704   0.00000  Uiso   1.00
C427   C     0.16968   0.61781   0.41780   0.00000  Uiso   1.00
C428   C     0.37011   0.73458   0.71582   0.00000  Uiso   1.00
C429   C     0.43894   0.70958   0.71506   0.00000  Uiso   1.00
C430   C     0.50815   0.75989   0.73525   0.00000  Uiso   1.00
C431   C     0.56397   0.72546   0.73072   0.00000  Uiso   1.00
C432   C     0.33483   0.70057   0.76169   0.00000  Uiso   1.00
C433   C     0.31650   0.74331   0.82108   0.00000  Uiso   1.00
C434   C     0.28467   0.70130   0.85579   0.00000  Uiso   1.00
C435   C     0.32016   0.69039   0.64060   0.00000  Uiso   1.00
C436   C     0.28948   0.72457   0.59819   0.00000  Uiso   1.00
C437   C     0.24528   0.67399   0.53096   0.00000  Uiso   1.00
H438   H     0.33605   0.52030   0.65328   0.00000  Uiso   1.00
H439   H     0.47159   0.52997   0.66814   0.00000  Uiso   1.00
H440   H     0.27996   0.51339   0.75394   0.00000  Uiso   1.00
H441   H     0.25295   0.49466   0.53109   0.00000  Uiso   1.00
H442   H     0.62758   0.57676   0.69517   0.00000  Uiso   1.00
H443   H     0.22350   0.54181   0.87608   0.00000  Uiso   1.00
H444   H     0.16654   0.50230   0.40616   0.00000  Uiso   1.00
H445   H     0.38023   0.79826   0.73442   0.00000  Uiso   1.00
H446   H     0.51819   0.82318   0.75373   0.00000  Uiso   1.00
H447   H     0.32656   0.80661   0.83954   0.00000  Uiso   1.00
H448   H     0.29955   0.78787   0.61669   0.00000  Uiso   1.00
H449   H     0.66541   0.81474   0.76465   0.00000  Uiso   1.00
H450   H     0.26133   0.77979   0.94555   0.00000  Uiso   1.00
H451   H     0.20437   0.74028   0.47563   0.00000  Uiso   1.00
O452   O     0.73646   0.70713   0.74118   0.00000  Uiso   1.00
O453   O     0.20631   0.66127   0.97851   0.00000  Uiso   1.00
O454   O     0.13158   0.60943   0.36198   0.00000  Uiso   1.00
N455   N     0.61755   0.62935   0.70886   0.00000  Uiso   1.00
N456   N     0.23977   0.59667   0.87800   0.00000  Uiso   1.00
N457   N     0.18650   0.55973   0.43867   0.00000  Uiso   1.00
N458   N     0.63791   0.75741   0.74624   0.00000  Uiso   1.00
N459   N     0.26013   0.72473   0.91539   0.00000  Uiso   1.00
N460   N     0.20686   0.68779   0.47605   0.00000  Uiso   1.00
C461   C     0.71304   0.72785   0.48981   0.00000  Uiso   1.00
C462   C     0.77106   0.70921   0.53533   0.00000  Uiso   1.00
C463   C     0.76868   0.70011   0.59780   0.00000  Uiso   1.00
C464   C     0.82713   0.68321   0.63160   0.00000  Uiso   1.00
C465   C     0.90831   0.65546   0.70652   0.00000  Uiso   1.00
C466   C     0.75075   0.80265   0.48312   0.00000  Uiso   1.00
C467   C     0.73128   0.87211   0.50168   0.00000  Uiso   1.00
C468   C     0.77263   0.93386   0.49151   0.00000  Uiso   1.00
C469   C     0.82225   0.05115   0.48532   0.00000  Uiso   1.00
C470   C     0.69134   0.66220   0.41599   0.00000  Uiso   1.00
C471   C     0.62191   0.61357   0.37809   0.00000  Uiso   1.00
C472   C     0.61324   0.55709   0.31139   0.00000  Uiso   1.00
C473   C     0.57061   0.45631   0.20097   0.00000  Uiso   1.00
C474   C     0.82107   0.71401   0.43874   0.00000  Uiso   1.00
C475   C     0.82974   0.70170   0.50759   0.00000  Uiso   1.00
C476   C     0.88820   0.68480   0.54130   0.00000  Uiso   1.00
C477   C     0.88591   0.67568   0.60381   0.00000  Uiso   1.00
C478   C     0.80943   0.79514   0.45538   0.00000  Uiso   1.00
C479   C     0.85081   0.85680   0.44518   0.00000  Uiso   1.00
C480   C     0.83141   0.92633   0.46372   0.00000  Uiso   1.00
C481   C     0.75002   0.65468   0.38825   0.00000  Uiso   1.00
C482   C     0.74144   0.59827   0.32159   0.00000  Uiso   1.00
C483   C     0.67202   0.54956   0.28360   0.00000  Uiso   1.00
H484   H     0.66736   0.73370   0.51141   0.00000  Uiso   1.00
H485   H     0.72326   0.70594   0.61925   0.00000  Uiso   1.00
H486   H     0.68587   0.87790   0.52314   0.00000  Uiso   1.00
H487   H     0.57652   0.61941   0.39957   0.00000  Uiso   1.00
H488   H     0.81114   0.67187   0.72660   0.00000  Uiso   1.00
H489   H     0.73227   0.03446   0.52392   0.00000  Uiso   1.00
H490   H     0.50169   0.48937   0.26335   0.00000  Uiso   1.00
H491   H     0.86675   0.70816   0.41714   0.00000  Uiso   1.00
H492   H     0.93360   0.67899   0.51982   0.00000  Uiso   1.00
H493   H     0.89621   0.85096   0.42371   0.00000  Uiso   1.00
H494   H     0.78686   0.59247   0.30014   0.00000  Uiso   1.00
H495   H     0.98186   0.65001   0.64590   0.00000  Uiso   1.00
H496   H     0.90299   0.01260   0.44322   0.00000  Uiso   1.00
H497   H     0.67241   0.46751   0.18265   0.00000  Uiso   1.00
O498   O     0.93689   0.64224   0.75551   0.00000  Uiso   1.00
O499   O     0.83341   0.11793   0.48958   0.00000  Uiso   1.00
O500   O     0.53089   0.40279   0.14773   0.00000  Uiso   1.00
N501   N     0.84214   0.67071   0.69351   0.00000  Uiso   1.00
N502   N     0.76841   0.00972   0.50403   0.00000  Uiso   1.00
N503   N     0.55283   0.50012   0.26041   0.00000  Uiso   1.00
N504   N     0.93400   0.65895   0.65009   0.00000  Uiso   1.00
N505   N     0.86027   0.99795   0.46060   0.00000  Uiso   1.00
N506   N     0.64469   0.48835   0.21698   0.00000  Uiso   1.00
C507   C     0.66369   0.49774   0.83646   0.00000  Uiso   1.00
C508   C     0.63239   0.49371   0.89666   0.00000  Uiso   1.00
C509   C     0.60550   0.55032   0.93756   0.00000  Uiso   1.00
C510   C     0.57926   0.53568   0.99007   0.00000  Uiso   1.00
C511   C     0.53058   0.53990   0.08187   0.00000  Uiso   1.00
C512   C     0.73953   0.48964   0.85530   0.00000  Uiso   1.00
C513   C     0.80274   0.54283   0.86142   0.00000  Uiso   1.00
C514   C     0.86669   0.52476   0.87911   0.00000  Uiso   1.00
C515   C     0.98436   0.52264   0.90666   0.00000  Uiso   1.00
C516   C     0.61999   0.42308   0.77148   0.00000  Uiso   1.00
C517   C     0.58270   0.42029   0.70711   0.00000  Uiso   1.00
C518   C     0.54603   0.34618   0.65422   0.00000  Uiso   1.00
C519   C     0.47809   0.24071   0.55163   0.00000  Uiso   1.00
C520   C     0.66490   0.37107   0.85698   0.00000  Uiso   1.00
C521   C     0.63305   0.42491   0.90780   0.00000  Uiso   1.00
C522   C     0.60684   0.41018   0.96026   0.00000  Uiso   1.00
C523   C     0.57992   0.46676   0.00123   0.00000  Uiso   1.00
C524   C     0.74019   0.42084   0.86645   0.00000  Uiso   1.00
C525   C     0.80407   0.40269   0.88413   0.00000  Uiso   1.00
C526   C     0.86735   0.45584   0.89028   0.00000  Uiso   1.00
C527   C     0.62065   0.35427   0.78262   0.00000  Uiso   1.00
C528   C     0.58403   0.28015   0.72982   0.00000  Uiso   1.00
C529   C     0.54669   0.27725   0.66539   0.00000  Uiso   1.00
H530   H     0.66319   0.55131   0.82778   0.00000  Uiso   1.00
H531   H     0.60501   0.60356   0.92892   0.00000  Uiso   1.00
H532   H     0.80221   0.59607   0.85279   0.00000  Uiso   1.00
H533   H     0.58220   0.47355   0.69851   0.00000  Uiso   1.00
H534   H     0.54082   0.63117   0.04598   0.00000  Uiso   1.00
H535   H     0.95663   0.61535   0.88543   0.00000  Uiso   1.00
H536   H     0.49270   0.35700   0.56010   0.00000  Uiso   1.00
H537   H     0.66541   0.31751   0.86565   0.00000  Uiso   1.00
H538   H     0.60735   0.35693   0.96887   0.00000  Uiso   1.00
H539   H     0.80456   0.34944   0.89274   0.00000  Uiso   1.00
H540   H     0.58455   0.22692   0.73846   0.00000  Uiso   1.00
H541   H     0.54273   0.43099   0.07842   0.00000  Uiso   1.00
H542   H     0.95854   0.41517   0.91786   0.00000  Uiso   1.00
H543   H     0.49461   0.15682   0.59253   0.00000  Uiso   1.00
O544   O     0.50356   0.56124   0.12943   0.00000  Uiso   1.00
O545   O     0.04908   0.54049   0.91878   0.00000  Uiso   1.00
O546   O     0.44043   0.20153   0.49196   0.00000  Uiso   1.00
N547   N     0.54922   0.57864   0.03944   0.00000  Uiso   1.00
N548   N     0.93798   0.56386   0.88935   0.00000  Uiso   1.00
N549   N     0.50427   0.32232   0.58518   0.00000  Uiso   1.00
N550   N     0.55025   0.47092   0.05689   0.00000  Uiso   1.00
N551   N     0.93901   0.45614   0.90680   0.00000  Uiso   1.00
N552   N     0.50529   0.21460   0.60263   0.00000  Uiso   1.00
