data_job_02154
_audit_creation_date              2018-12-19
_audit_creation_method            'Materials Studio'
_symmetry_space_group_name_H-M    'P1'
_symmetry_Int_Tables_number       1
_symmetry_cell_setting            triclinic
loop_
_symmetry_equiv_pos_as_xyz
  x,y,z
_cell_length_a                    15.9740
_cell_length_b                    12.2994
_cell_length_c                    32.5853
_cell_angle_alpha                 90.0000
_cell_angle_beta                  66.0649
_cell_angle_gamma                 90.0000
loop_
_atom_site_label
_atom_site_type_symbol
_atom_site_fract_x
_atom_site_fract_y
_atom_site_fract_z
_atom_site_U_iso_or_equiv
_atom_site_adp_type
_atom_site_occupancy
C1     C     0.16528   0.55461   0.15774   0.00000  Uiso   1.00
C2     C     0.19199   0.66691   0.16824   0.00000  Uiso   1.00
C3     C     0.13848   0.73308   0.20369   0.00000  Uiso   1.00
C4     C     0.17519   0.83293   0.20754   0.00000  Uiso   1.00
C5     C     0.20339   0.00240   0.22848   0.00000  Uiso   1.00
C6     C     0.17301   0.56029   0.10958   0.00000  Uiso   1.00
C7     C     0.10354   0.53680   0.09571   0.00000  Uiso   1.00
C8     C     0.12429   0.54688   0.05018   0.00000  Uiso   1.00
C9     C     0.12305   0.55074   0.98004   0.00000  Uiso   1.00
C10    C     0.24074   0.47752   0.15688   0.00000  Uiso   1.00
C11    C     0.22822   0.38441   0.18277   0.00000  Uiso   1.00
C12    C     0.30599   0.32479   0.17704   0.00000  Uiso   1.00
C13    C     0.40990   0.20013   0.18034   0.00000  Uiso   1.00
C14    C     0.32564   0.61427   0.10154   0.00000  Uiso   1.00
C15    C     0.27909   0.69932   0.13772   0.00000  Uiso   1.00
C16    C     0.31590   0.79909   0.14151   0.00000  Uiso   1.00
C17    C     0.26245   0.86539   0.17696   0.00000  Uiso   1.00
C18    C     0.26011   0.59270   0.07906   0.00000  Uiso   1.00
C19    C     0.28096   0.60281   0.03353   0.00000  Uiso   1.00
C20    C     0.21155   0.57935   0.01960   0.00000  Uiso   1.00
C21    C     0.32784   0.50992   0.12636   0.00000  Uiso   1.00
C22    C     0.40564   0.45043   0.12059   0.00000  Uiso   1.00
C23    C     0.39325   0.35725   0.14646   0.00000  Uiso   1.00
H24    H     0.09747   0.52938   0.18150   0.00000  Uiso   1.00
H25    H     0.07107   0.70797   0.22730   0.00000  Uiso   1.00
H26    H     0.03615   0.51171   0.11934   0.00000  Uiso   1.00
H27    H     0.16081   0.35935   0.20638   0.00000  Uiso   1.00
H28    H     0.08020   0.92028   0.26461   0.00000  Uiso   1.00
H29    H     0.00658   0.50643   0.03696   0.00000  Uiso   1.00
H30    H     0.26944   0.18514   0.22051   0.00000  Uiso   1.00
H31    H     0.39346   0.63950   0.07778   0.00000  Uiso   1.00
H32    H     0.38331   0.82415   0.11789   0.00000  Uiso   1.00
H33    H     0.34838   0.62789   0.00992   0.00000  Uiso   1.00
H34    H     0.47304   0.47553   0.09697   0.00000  Uiso   1.00
H35    H     0.33362   0.01458   0.17580   0.00000  Uiso   1.00
H36    H     0.25999   0.60071   0.94815   0.00000  Uiso   1.00
H37    H     0.52286   0.27944   0.13170   0.00000  Uiso   1.00
O38    O     0.19488   0.08693   0.24845   0.00000  Uiso   1.00
O39    O     0.09829   0.54393   0.94979   0.00000  Uiso   1.00
O40    O     0.44316   0.12243   0.19060   0.00000  Uiso   1.00
N41    N     0.14125   0.91713   0.23821   0.00000  Uiso   1.00
N42    N     0.07240   0.53021   0.02537   0.00000  Uiso   1.00
N43    N     0.31816   0.22982   0.19697   0.00000  Uiso   1.00
N44    N     0.27761   0.96787   0.19042   0.00000  Uiso   1.00
N45    N     0.20877   0.58095   0.97759   0.00000  Uiso   1.00
N46    N     0.45452   0.28056   0.14918   0.00000  Uiso   1.00
C47    C     0.66528   0.05461   0.15774   0.00000  Uiso   1.00
C48    C     0.69199   0.16691   0.16824   0.00000  Uiso   1.00
C49    C     0.63848   0.23308   0.20369   0.00000  Uiso   1.00
C50    C     0.67519   0.33293   0.20754   0.00000  Uiso   1.00
C51    C     0.70339   0.50240   0.22848   0.00000  Uiso   1.00
C52    C     0.67301   0.06029   0.10958   0.00000  Uiso   1.00
C53    C     0.60354   0.03680   0.09571   0.00000  Uiso   1.00
C54    C     0.62429   0.04688   0.05018   0.00000  Uiso   1.00
C55    C     0.62305   0.05074   0.98004   0.00000  Uiso   1.00
C56    C     0.74074   0.97752   0.15688   0.00000  Uiso   1.00
C57    C     0.72822   0.88441   0.18277   0.00000  Uiso   1.00
C58    C     0.80599   0.82479   0.17704   0.00000  Uiso   1.00
C59    C     0.90990   0.70013   0.18034   0.00000  Uiso   1.00
C60    C     0.82564   0.11427   0.10154   0.00000  Uiso   1.00
C61    C     0.77909   0.19932   0.13772   0.00000  Uiso   1.00
C62    C     0.81590   0.29909   0.14151   0.00000  Uiso   1.00
C63    C     0.76245   0.36539   0.17696   0.00000  Uiso   1.00
C64    C     0.76011   0.09270   0.07906   0.00000  Uiso   1.00
C65    C     0.78096   0.10281   0.03353   0.00000  Uiso   1.00
C66    C     0.71155   0.07935   0.01960   0.00000  Uiso   1.00
C67    C     0.82784   0.00992   0.12636   0.00000  Uiso   1.00
C68    C     0.90564   0.95043   0.12059   0.00000  Uiso   1.00
C69    C     0.89325   0.85725   0.14646   0.00000  Uiso   1.00
H70    H     0.59747   0.02938   0.18150   0.00000  Uiso   1.00
H71    H     0.57107   0.20797   0.22730   0.00000  Uiso   1.00
H72    H     0.53615   0.01171   0.11934   0.00000  Uiso   1.00
H73    H     0.66081   0.85935   0.20638   0.00000  Uiso   1.00
H74    H     0.58020   0.42028   0.26461   0.00000  Uiso   1.00
H75    H     0.50658   0.00643   0.03696   0.00000  Uiso   1.00
H76    H     0.76944   0.68514   0.22051   0.00000  Uiso   1.00
H77    H     0.89346   0.13950   0.07778   0.00000  Uiso   1.00
H78    H     0.88331   0.32415   0.11789   0.00000  Uiso   1.00
H79    H     0.84838   0.12789   0.00992   0.00000  Uiso   1.00
H80    H     0.97304   0.97553   0.09697   0.00000  Uiso   1.00
H81    H     0.83362   0.51458   0.17580   0.00000  Uiso   1.00
H82    H     0.75999   0.10071   0.94815   0.00000  Uiso   1.00
H83    H     0.02286   0.77944   0.13170   0.00000  Uiso   1.00
O84    O     0.69488   0.58693   0.24845   0.00000  Uiso   1.00
O85    O     0.59829   0.04393   0.94979   0.00000  Uiso   1.00
O86    O     0.94316   0.62243   0.19060   0.00000  Uiso   1.00
N87    N     0.64125   0.41713   0.23821   0.00000  Uiso   1.00
N88    N     0.57240   0.03021   0.02537   0.00000  Uiso   1.00
N89    N     0.81816   0.72982   0.19697   0.00000  Uiso   1.00
N90    N     0.77761   0.46787   0.19042   0.00000  Uiso   1.00
N91    N     0.70877   0.08095   0.97759   0.00000  Uiso   1.00
N92    N     0.95452   0.78056   0.14918   0.00000  Uiso   1.00
C93    C     0.83472   0.55461   0.34226   0.00000  Uiso   1.00
C94    C     0.80801   0.66691   0.33176   0.00000  Uiso   1.00
C95    C     0.86152   0.73308   0.29631   0.00000  Uiso   1.00
C96    C     0.82481   0.83293   0.29246   0.00000  Uiso   1.00
C97    C     0.79661   0.00240   0.27152   0.00000  Uiso   1.00
C98    C     0.82699   0.56029   0.39042   0.00000  Uiso   1.00
C99    C     0.89646   0.53680   0.40429   0.00000  Uiso   1.00
C100   C     0.87571   0.54688   0.44982   0.00000  Uiso   1.00
C101   C     0.87695   0.55074   0.51996   0.00000  Uiso   1.00
C102   C     0.75926   0.47752   0.34312   0.00000  Uiso   1.00
C103   C     0.77178   0.38441   0.31723   0.00000  Uiso   1.00
C104   C     0.69401   0.32479   0.32296   0.00000  Uiso   1.00
C105   C     0.59010   0.20013   0.31966   0.00000  Uiso   1.00
C106   C     0.67436   0.61427   0.39846   0.00000  Uiso   1.00
C107   C     0.72091   0.69932   0.36228   0.00000  Uiso   1.00
C108   C     0.68410   0.79909   0.35849   0.00000  Uiso   1.00
C109   C     0.73755   0.86539   0.32304   0.00000  Uiso   1.00
C110   C     0.73989   0.59270   0.42094   0.00000  Uiso   1.00
C111   C     0.71904   0.60281   0.46647   0.00000  Uiso   1.00
C112   C     0.78845   0.57935   0.48040   0.00000  Uiso   1.00
C113   C     0.67216   0.50992   0.37364   0.00000  Uiso   1.00
C114   C     0.59436   0.45043   0.37941   0.00000  Uiso   1.00
C115   C     0.60675   0.35725   0.35354   0.00000  Uiso   1.00
H116   H     0.90253   0.52938   0.31850   0.00000  Uiso   1.00
H117   H     0.92893   0.70797   0.27270   0.00000  Uiso   1.00
H118   H     0.96385   0.51171   0.38066   0.00000  Uiso   1.00
H119   H     0.83919   0.35935   0.29362   0.00000  Uiso   1.00
H120   H     0.91980   0.92028   0.23539   0.00000  Uiso   1.00
H121   H     0.99342   0.50643   0.46304   0.00000  Uiso   1.00
H122   H     0.73056   0.18514   0.27949   0.00000  Uiso   1.00
H123   H     0.60654   0.63950   0.42222   0.00000  Uiso   1.00
H124   H     0.61669   0.82415   0.38211   0.00000  Uiso   1.00
H125   H     0.65162   0.62789   0.49008   0.00000  Uiso   1.00
H126   H     0.52696   0.47553   0.40303   0.00000  Uiso   1.00
H127   H     0.66638   0.01458   0.32420   0.00000  Uiso   1.00
H128   H     0.74001   0.60071   0.55185   0.00000  Uiso   1.00
H129   H     0.47714   0.27944   0.36830   0.00000  Uiso   1.00
O130   O     0.80512   0.08693   0.25155   0.00000  Uiso   1.00
O131   O     0.90171   0.54393   0.55021   0.00000  Uiso   1.00
O132   O     0.55684   0.12243   0.30940   0.00000  Uiso   1.00
N133   N     0.85875   0.91713   0.26179   0.00000  Uiso   1.00
N134   N     0.92760   0.53021   0.47463   0.00000  Uiso   1.00
N135   N     0.68184   0.22982   0.30303   0.00000  Uiso   1.00
N136   N     0.72239   0.96787   0.30958   0.00000  Uiso   1.00
N137   N     0.79123   0.58095   0.52241   0.00000  Uiso   1.00
N138   N     0.54548   0.28056   0.35082   0.00000  Uiso   1.00
C139   C     0.33472   0.05461   0.34226   0.00000  Uiso   1.00
C140   C     0.30801   0.16691   0.33176   0.00000  Uiso   1.00
C141   C     0.36152   0.23308   0.29631   0.00000  Uiso   1.00
C142   C     0.32481   0.33293   0.29246   0.00000  Uiso   1.00
C143   C     0.29661   0.50240   0.27152   0.00000  Uiso   1.00
C144   C     0.32699   0.06029   0.39042   0.00000  Uiso   1.00
C145   C     0.39646   0.03680   0.40429   0.00000  Uiso   1.00
C146   C     0.37571   0.04688   0.44982   0.00000  Uiso   1.00
C147   C     0.37695   0.05074   0.51996   0.00000  Uiso   1.00
C148   C     0.25926   0.97752   0.34312   0.00000  Uiso   1.00
C149   C     0.27178   0.88441   0.31723   0.00000  Uiso   1.00
C150   C     0.19401   0.82479   0.32296   0.00000  Uiso   1.00
C151   C     0.09010   0.70013   0.31966   0.00000  Uiso   1.00
C152   C     0.17436   0.11427   0.39846   0.00000  Uiso   1.00
C153   C     0.22091   0.19932   0.36228   0.00000  Uiso   1.00
C154   C     0.18410   0.29909   0.35849   0.00000  Uiso   1.00
C155   C     0.23755   0.36539   0.32304   0.00000  Uiso   1.00
C156   C     0.23989   0.09270   0.42094   0.00000  Uiso   1.00
C157   C     0.21904   0.10281   0.46647   0.00000  Uiso   1.00
C158   C     0.28845   0.07935   0.48040   0.00000  Uiso   1.00
C159   C     0.17216   0.00992   0.37364   0.00000  Uiso   1.00
C160   C     0.09436   0.95043   0.37941   0.00000  Uiso   1.00
C161   C     0.10675   0.85725   0.35354   0.00000  Uiso   1.00
H162   H     0.40253   0.02938   0.31850   0.00000  Uiso   1.00
H163   H     0.42893   0.20797   0.27270   0.00000  Uiso   1.00
H164   H     0.46385   0.01171   0.38066   0.00000  Uiso   1.00
H165   H     0.33919   0.85935   0.29362   0.00000  Uiso   1.00
H166   H     0.41980   0.42028   0.23539   0.00000  Uiso   1.00
H167   H     0.49342   0.00643   0.46304   0.00000  Uiso   1.00
H168   H     0.23056   0.68514   0.27949   0.00000  Uiso   1.00
H169   H     0.10654   0.13950   0.42222   0.00000  Uiso   1.00
H170   H     0.11669   0.32415   0.38211   0.00000  Uiso   1.00
H171   H     0.15162   0.12789   0.49008   0.00000  Uiso   1.00
H172   H     0.02696   0.97553   0.40303   0.00000  Uiso   1.00
H173   H     0.16638   0.51458   0.32420   0.00000  Uiso   1.00
H174   H     0.24001   0.10071   0.55185   0.00000  Uiso   1.00
H175   H     0.97714   0.77944   0.36830   0.00000  Uiso   1.00
O176   O     0.30512   0.58693   0.25155   0.00000  Uiso   1.00
O177   O     0.40171   0.04393   0.55021   0.00000  Uiso   1.00
O178   O     0.05684   0.62243   0.30940   0.00000  Uiso   1.00
N179   N     0.35875   0.41713   0.26179   0.00000  Uiso   1.00
N180   N     0.42760   0.03021   0.47463   0.00000  Uiso   1.00
N181   N     0.18184   0.72982   0.30303   0.00000  Uiso   1.00
N182   N     0.22239   0.46787   0.30958   0.00000  Uiso   1.00
N183   N     0.29123   0.08095   0.52241   0.00000  Uiso   1.00
N184   N     0.04548   0.78056   0.35082   0.00000  Uiso   1.00
C185   C     0.83472   0.44539   0.84226   0.00000  Uiso   1.00
C186   C     0.80801   0.33309   0.83176   0.00000  Uiso   1.00
C187   C     0.86152   0.26692   0.79631   0.00000  Uiso   1.00
C188   C     0.82481   0.16707   0.79246   0.00000  Uiso   1.00
C189   C     0.79661   0.99760   0.77152   0.00000  Uiso   1.00
C190   C     0.82699   0.43971   0.89042   0.00000  Uiso   1.00
C191   C     0.89646   0.46320   0.90429   0.00000  Uiso   1.00
C192   C     0.87571   0.45312   0.94982   0.00000  Uiso   1.00
C193   C     0.87695   0.44926   0.01996   0.00000  Uiso   1.00
C194   C     0.75926   0.52248   0.84312   0.00000  Uiso   1.00
C195   C     0.77178   0.61559   0.81723   0.00000  Uiso   1.00
C196   C     0.69401   0.67521   0.82296   0.00000  Uiso   1.00
C197   C     0.59010   0.79987   0.81966   0.00000  Uiso   1.00
C198   C     0.67436   0.38573   0.89846   0.00000  Uiso   1.00
C199   C     0.72091   0.30068   0.86228   0.00000  Uiso   1.00
C200   C     0.68410   0.20091   0.85849   0.00000  Uiso   1.00
C201   C     0.73755   0.13461   0.82304   0.00000  Uiso   1.00
C202   C     0.73989   0.40730   0.92094   0.00000  Uiso   1.00
C203   C     0.71904   0.39719   0.96647   0.00000  Uiso   1.00
C204   C     0.78845   0.42065   0.98040   0.00000  Uiso   1.00
C205   C     0.67216   0.49008   0.87364   0.00000  Uiso   1.00
C206   C     0.59436   0.54957   0.87941   0.00000  Uiso   1.00
C207   C     0.60675   0.64275   0.85354   0.00000  Uiso   1.00
H208   H     0.90253   0.47062   0.81850   0.00000  Uiso   1.00
H209   H     0.92893   0.29203   0.77270   0.00000  Uiso   1.00
H210   H     0.96385   0.48829   0.88066   0.00000  Uiso   1.00
H211   H     0.83919   0.64065   0.79362   0.00000  Uiso   1.00
H212   H     0.91980   0.07972   0.73539   0.00000  Uiso   1.00
H213   H     0.99342   0.49357   0.96304   0.00000  Uiso   1.00
H214   H     0.73056   0.81486   0.77949   0.00000  Uiso   1.00
H215   H     0.60654   0.36050   0.92222   0.00000  Uiso   1.00
H216   H     0.61669   0.17585   0.88211   0.00000  Uiso   1.00
H217   H     0.65162   0.37211   0.99008   0.00000  Uiso   1.00
H218   H     0.52696   0.52447   0.90303   0.00000  Uiso   1.00
H219   H     0.66638   0.98542   0.82420   0.00000  Uiso   1.00
H220   H     0.74001   0.39929   0.05185   0.00000  Uiso   1.00
H221   H     0.47714   0.72056   0.86830   0.00000  Uiso   1.00
O222   O     0.80512   0.91307   0.75155   0.00000  Uiso   1.00
O223   O     0.90171   0.45607   0.05021   0.00000  Uiso   1.00
O224   O     0.55684   0.87757   0.80940   0.00000  Uiso   1.00
N225   N     0.85875   0.08287   0.76179   0.00000  Uiso   1.00
N226   N     0.92760   0.46979   0.97463   0.00000  Uiso   1.00
N227   N     0.68184   0.77018   0.80303   0.00000  Uiso   1.00
N228   N     0.72239   0.03213   0.80958   0.00000  Uiso   1.00
N229   N     0.79123   0.41905   0.02241   0.00000  Uiso   1.00
N230   N     0.54548   0.71944   0.85082   0.00000  Uiso   1.00
C231   C     0.33472   0.94539   0.84226   0.00000  Uiso   1.00
C232   C     0.30801   0.83309   0.83176   0.00000  Uiso   1.00
C233   C     0.36152   0.76692   0.79631   0.00000  Uiso   1.00
C234   C     0.32481   0.66707   0.79246   0.00000  Uiso   1.00
C235   C     0.29661   0.49760   0.77152   0.00000  Uiso   1.00
C236   C     0.32699   0.93971   0.89042   0.00000  Uiso   1.00
C237   C     0.39646   0.96320   0.90429   0.00000  Uiso   1.00
C238   C     0.37571   0.95312   0.94982   0.00000  Uiso   1.00
C239   C     0.37695   0.94926   0.01996   0.00000  Uiso   1.00
C240   C     0.25926   0.02248   0.84312   0.00000  Uiso   1.00
C241   C     0.27178   0.11559   0.81723   0.00000  Uiso   1.00
C242   C     0.19401   0.17521   0.82296   0.00000  Uiso   1.00
C243   C     0.09010   0.29987   0.81966   0.00000  Uiso   1.00
C244   C     0.17436   0.88573   0.89846   0.00000  Uiso   1.00
C245   C     0.22091   0.80068   0.86228   0.00000  Uiso   1.00
C246   C     0.18410   0.70091   0.85849   0.00000  Uiso   1.00
C247   C     0.23755   0.63461   0.82304   0.00000  Uiso   1.00
C248   C     0.23989   0.90730   0.92094   0.00000  Uiso   1.00
C249   C     0.21904   0.89719   0.96647   0.00000  Uiso   1.00
C250   C     0.28845   0.92065   0.98040   0.00000  Uiso   1.00
C251   C     0.17216   0.99008   0.87364   0.00000  Uiso   1.00
C252   C     0.09436   0.04957   0.87941   0.00000  Uiso   1.00
C253   C     0.10675   0.14275   0.85354   0.00000  Uiso   1.00
H254   H     0.40253   0.97062   0.81850   0.00000  Uiso   1.00
H255   H     0.42893   0.79203   0.77270   0.00000  Uiso   1.00
H256   H     0.46385   0.98829   0.88066   0.00000  Uiso   1.00
H257   H     0.33919   0.14065   0.79362   0.00000  Uiso   1.00
H258   H     0.41980   0.57972   0.73539   0.00000  Uiso   1.00
H259   H     0.49342   0.99357   0.96304   0.00000  Uiso   1.00
H260   H     0.23056   0.31486   0.77949   0.00000  Uiso   1.00
H261   H     0.10654   0.86050   0.92222   0.00000  Uiso   1.00
H262   H     0.11669   0.67585   0.88211   0.00000  Uiso   1.00
H263   H     0.15162   0.87211   0.99008   0.00000  Uiso   1.00
H264   H     0.02696   0.02447   0.90303   0.00000  Uiso   1.00
H265   H     0.16638   0.48542   0.82420   0.00000  Uiso   1.00
H266   H     0.24001   0.89929   0.05185   0.00000  Uiso   1.00
H267   H     0.97714   0.22056   0.86830   0.00000  Uiso   1.00
O268   O     0.30512   0.41307   0.75155   0.00000  Uiso   1.00
O269   O     0.40171   0.95607   0.05021   0.00000  Uiso   1.00
O270   O     0.05684   0.37757   0.80940   0.00000  Uiso   1.00
N271   N     0.35875   0.58287   0.76179   0.00000  Uiso   1.00
N272   N     0.42760   0.96979   0.97463   0.00000  Uiso   1.00
N273   N     0.18184   0.27018   0.80303   0.00000  Uiso   1.00
N274   N     0.22239   0.53213   0.80958   0.00000  Uiso   1.00
N275   N     0.29123   0.91905   0.02241   0.00000  Uiso   1.00
N276   N     0.04548   0.21944   0.85082   0.00000  Uiso   1.00
C277   C     0.16528   0.44539   0.65774   0.00000  Uiso   1.00
C278   C     0.19199   0.33309   0.66824   0.00000  Uiso   1.00
C279   C     0.13848   0.26692   0.70369   0.00000  Uiso   1.00
C280   C     0.17519   0.16707   0.70754   0.00000  Uiso   1.00
C281   C     0.20339   0.99760   0.72848   0.00000  Uiso   1.00
C282   C     0.17301   0.43971   0.60958   0.00000  Uiso   1.00
C283   C     0.10354   0.46320   0.59571   0.00000  Uiso   1.00
C284   C     0.12429   0.45312   0.55018   0.00000  Uiso   1.00
C285   C     0.12305   0.44926   0.48004   0.00000  Uiso   1.00
C286   C     0.24074   0.52248   0.65688   0.00000  Uiso   1.00
C287   C     0.22822   0.61559   0.68277   0.00000  Uiso   1.00
C288   C     0.30599   0.67521   0.67704   0.00000  Uiso   1.00
C289   C     0.40990   0.79987   0.68034   0.00000  Uiso   1.00
C290   C     0.32564   0.38573   0.60154   0.00000  Uiso   1.00
C291   C     0.27909   0.30068   0.63772   0.00000  Uiso   1.00
C292   C     0.31590   0.20091   0.64151   0.00000  Uiso   1.00
C293   C     0.26245   0.13461   0.67696   0.00000  Uiso   1.00
C294   C     0.26011   0.40730   0.57906   0.00000  Uiso   1.00
C295   C     0.28096   0.39719   0.53353   0.00000  Uiso   1.00
C296   C     0.21155   0.42065   0.51960   0.00000  Uiso   1.00
C297   C     0.32784   0.49008   0.62636   0.00000  Uiso   1.00
C298   C     0.40564   0.54957   0.62059   0.00000  Uiso   1.00
C299   C     0.39325   0.64275   0.64646   0.00000  Uiso   1.00
H300   H     0.09747   0.47062   0.68150   0.00000  Uiso   1.00
H301   H     0.07107   0.29203   0.72730   0.00000  Uiso   1.00
H302   H     0.03615   0.48829   0.61934   0.00000  Uiso   1.00
H303   H     0.16081   0.64065   0.70638   0.00000  Uiso   1.00
H304   H     0.08020   0.07972   0.76461   0.00000  Uiso   1.00
H305   H     0.00658   0.49357   0.53696   0.00000  Uiso   1.00
H306   H     0.26944   0.81486   0.72051   0.00000  Uiso   1.00
H307   H     0.39346   0.36050   0.57778   0.00000  Uiso   1.00
H308   H     0.38331   0.17585   0.61789   0.00000  Uiso   1.00
H309   H     0.34838   0.37211   0.50992   0.00000  Uiso   1.00
H310   H     0.47304   0.52447   0.59697   0.00000  Uiso   1.00
H311   H     0.33362   0.98542   0.67580   0.00000  Uiso   1.00
H312   H     0.25999   0.39929   0.44815   0.00000  Uiso   1.00
H313   H     0.52286   0.72056   0.63170   0.00000  Uiso   1.00
O314   O     0.19488   0.91307   0.74845   0.00000  Uiso   1.00
O315   O     0.09829   0.45607   0.44979   0.00000  Uiso   1.00
O316   O     0.44316   0.87757   0.69060   0.00000  Uiso   1.00
N317   N     0.14125   0.08287   0.73821   0.00000  Uiso   1.00
N318   N     0.07240   0.46979   0.52537   0.00000  Uiso   1.00
N319   N     0.31816   0.77018   0.69697   0.00000  Uiso   1.00
N320   N     0.27761   0.03213   0.69042   0.00000  Uiso   1.00
N321   N     0.20877   0.41905   0.47759   0.00000  Uiso   1.00
N322   N     0.45452   0.71944   0.64918   0.00000  Uiso   1.00
C323   C     0.66528   0.94539   0.65774   0.00000  Uiso   1.00
C324   C     0.69199   0.83309   0.66824   0.00000  Uiso   1.00
C325   C     0.63848   0.76692   0.70369   0.00000  Uiso   1.00
C326   C     0.67519   0.66707   0.70754   0.00000  Uiso   1.00
C327   C     0.70339   0.49760   0.72848   0.00000  Uiso   1.00
C328   C     0.67301   0.93971   0.60958   0.00000  Uiso   1.00
C329   C     0.60354   0.96320   0.59571   0.00000  Uiso   1.00
C330   C     0.62429   0.95312   0.55018   0.00000  Uiso   1.00
C331   C     0.62305   0.94926   0.48004   0.00000  Uiso   1.00
C332   C     0.74074   0.02248   0.65688   0.00000  Uiso   1.00
C333   C     0.72822   0.11559   0.68277   0.00000  Uiso   1.00
C334   C     0.80599   0.17521   0.67704   0.00000  Uiso   1.00
C335   C     0.90990   0.29987   0.68034   0.00000  Uiso   1.00
C336   C     0.82564   0.88573   0.60154   0.00000  Uiso   1.00
C337   C     0.77909   0.80068   0.63772   0.00000  Uiso   1.00
C338   C     0.81590   0.70091   0.64151   0.00000  Uiso   1.00
C339   C     0.76245   0.63461   0.67696   0.00000  Uiso   1.00
C340   C     0.76011   0.90730   0.57906   0.00000  Uiso   1.00
C341   C     0.78096   0.89719   0.53353   0.00000  Uiso   1.00
C342   C     0.71155   0.92065   0.51960   0.00000  Uiso   1.00
C343   C     0.82784   0.99008   0.62636   0.00000  Uiso   1.00
C344   C     0.90564   0.04957   0.62059   0.00000  Uiso   1.00
C345   C     0.89325   0.14275   0.64646   0.00000  Uiso   1.00
H346   H     0.59747   0.97062   0.68150   0.00000  Uiso   1.00
H347   H     0.57107   0.79203   0.72730   0.00000  Uiso   1.00
H348   H     0.53615   0.98829   0.61934   0.00000  Uiso   1.00
H349   H     0.66081   0.14065   0.70638   0.00000  Uiso   1.00
H350   H     0.58020   0.57972   0.76461   0.00000  Uiso   1.00
H351   H     0.50658   0.99357   0.53696   0.00000  Uiso   1.00
H352   H     0.76944   0.31486   0.72051   0.00000  Uiso   1.00
H353   H     0.89346   0.86050   0.57778   0.00000  Uiso   1.00
H354   H     0.88331   0.67585   0.61789   0.00000  Uiso   1.00
H355   H     0.84838   0.87211   0.50992   0.00000  Uiso   1.00
H356   H     0.97304   0.02447   0.59697   0.00000  Uiso   1.00
H357   H     0.83362   0.48542   0.67580   0.00000  Uiso   1.00
H358   H     0.75999   0.89929   0.44815   0.00000  Uiso   1.00
H359   H     0.02286   0.22056   0.63170   0.00000  Uiso   1.00
O360   O     0.69488   0.41307   0.74845   0.00000  Uiso   1.00
O361   O     0.59829   0.95607   0.44979   0.00000  Uiso   1.00
O362   O     0.94316   0.37757   0.69060   0.00000  Uiso   1.00
N363   N     0.64125   0.58287   0.73821   0.00000  Uiso   1.00
N364   N     0.57240   0.96979   0.52537   0.00000  Uiso   1.00
N365   N     0.81816   0.27018   0.69697   0.00000  Uiso   1.00
N366   N     0.77761   0.53213   0.69042   0.00000  Uiso   1.00
N367   N     0.70877   0.91905   0.47759   0.00000  Uiso   1.00
N368   N     0.95452   0.21944   0.64918   0.00000  Uiso   1.00
