data_job_05145
_audit_creation_date              2018-12-19
_audit_creation_method            'Materials Studio'
_symmetry_space_group_name_H-M    'P1'
_symmetry_Int_Tables_number       1
_symmetry_cell_setting            triclinic
loop_
_symmetry_equiv_pos_as_xyz
  x,y,z
_cell_length_a                    27.7229
_cell_length_b                    15.4115
_cell_length_c                    22.7895
_cell_angle_alpha                 90.0000
_cell_angle_beta                  141.6390
_cell_angle_gamma                 90.0000
loop_
_atom_site_label
_atom_site_type_symbol
_atom_site_fract_x
_atom_site_fract_y
_atom_site_fract_z
_atom_site_U_iso_or_equiv
_atom_site_adp_type
_atom_site_occupancy
C1     C     0.71304   0.48228   0.73395   0.00000  Uiso   1.00
C2     C     0.78378   0.43294   0.77879   0.00000  Uiso   1.00
C3     C     0.80214   0.34736   0.80921   0.00000  Uiso   1.00
C4     C     0.86941   0.31409   0.84834   0.00000  Uiso   1.00
C5     C     0.97209   0.22979   0.91674   0.00000  Uiso   1.00
C6     C     0.74467   0.56281   0.79481   0.00000  Uiso   1.00
C7     C     0.73014   0.58642   0.83869   0.00000  Uiso   1.00
C8     C     0.76447   0.66248   0.89129   0.00000  Uiso   1.00
C9     C     0.80639   0.77983   0.98451   0.00000  Uiso   1.00
C10    C     0.67017   0.51491   0.63880   0.00000  Uiso   1.00
C11    C     0.59299   0.49827   0.55151   0.00000  Uiso   1.00
C12    C     0.56460   0.53402   0.47277   0.00000  Uiso   1.00
C13    C     0.49084   0.57701   0.32377   0.00000  Uiso   1.00
C14    C     0.79984   0.57538   0.74935   0.00000  Uiso   1.00
C15    C     0.83092   0.48351   0.78715   0.00000  Uiso   1.00
C16    C     0.89818   0.45036   0.82625   0.00000  Uiso   1.00
C17    C     0.91664   0.36474   0.85672   0.00000  Uiso   1.00
C18    C     0.79181   0.61337   0.80317   0.00000  Uiso   1.00
C19    C     0.82617   0.68942   0.85572   0.00000  Uiso   1.00
C20    C     0.81170   0.71313   0.89967   0.00000  Uiso   1.00
C21    C     0.71731   0.56547   0.64717   0.00000  Uiso   1.00
C22    C     0.68903   0.60127   0.56855   0.00000  Uiso   1.00
C23    C     0.61183   0.58468   0.48115   0.00000  Uiso   1.00
H24    H     0.67634   0.44292   0.72744   0.00000  Uiso   1.00
H25    H     0.76565   0.30825   0.80273   0.00000  Uiso   1.00
H26    H     0.69365   0.54728   0.83219   0.00000  Uiso   1.00
H27    H     0.55653   0.45914   0.54507   0.00000  Uiso   1.00
H28    H     0.88547   0.18125   0.88993   0.00000  Uiso   1.00
H29    H     0.73363   0.68527   0.95203   0.00000  Uiso   1.00
H30    H     0.44448   0.49941   0.34656   0.00000  Uiso   1.00
H31    H     0.83655   0.61475   0.75586   0.00000  Uiso   1.00
H32    H     0.93465   0.48951   0.83271   0.00000  Uiso   1.00
H33    H     0.86265   0.72853   0.86218   0.00000  Uiso   1.00
H34    H     0.72553   0.64039   0.57505   0.00000  Uiso   1.00
H35    H     0.02264   0.32837   0.91427   0.00000  Uiso   1.00
H36    H     0.87080   0.83239   0.97636   0.00000  Uiso   1.00
H37    H     0.58165   0.64653   0.37089   0.00000  Uiso   1.00
O38    O     0.01571   0.16933   0.95217   0.00000  Uiso   1.00
O39    O     0.81649   0.83058   0.03362   0.00000  Uiso   1.00
O40    O     0.43714   0.58674   0.23926   0.00000  Uiso   1.00
N41    N     0.90428   0.23306   0.88510   0.00000  Uiso   1.00
N42    N     0.76233   0.70428   0.94316   0.00000  Uiso   1.00
N43    N     0.49199   0.53053   0.37710   0.00000  Uiso   1.00
N44    N     0.97809   0.31222   0.89819   0.00000  Uiso   1.00
N45    N     0.83614   0.78344   0.95626   0.00000  Uiso   1.00
N46    N     0.56580   0.60970   0.39020   0.00000  Uiso   1.00
C47    C     0.21304   0.98228   0.73395   0.00000  Uiso   1.00
C48    C     0.28378   0.93294   0.77879   0.00000  Uiso   1.00
C49    C     0.30214   0.84736   0.80921   0.00000  Uiso   1.00
C50    C     0.36941   0.81409   0.84834   0.00000  Uiso   1.00
C51    C     0.47209   0.72979   0.91674   0.00000  Uiso   1.00
C52    C     0.24467   0.06281   0.79481   0.00000  Uiso   1.00
C53    C     0.23014   0.08642   0.83869   0.00000  Uiso   1.00
C54    C     0.26447   0.16248   0.89129   0.00000  Uiso   1.00
C55    C     0.30639   0.27983   0.98451   0.00000  Uiso   1.00
C56    C     0.17017   0.01491   0.63880   0.00000  Uiso   1.00
C57    C     0.09299   0.99827   0.55151   0.00000  Uiso   1.00
C58    C     0.06460   0.03402   0.47277   0.00000  Uiso   1.00
C59    C     0.99084   0.07701   0.32377   0.00000  Uiso   1.00
C60    C     0.29984   0.07538   0.74935   0.00000  Uiso   1.00
C61    C     0.33092   0.98351   0.78715   0.00000  Uiso   1.00
C62    C     0.39818   0.95036   0.82625   0.00000  Uiso   1.00
C63    C     0.41664   0.86474   0.85672   0.00000  Uiso   1.00
C64    C     0.29181   0.11337   0.80317   0.00000  Uiso   1.00
C65    C     0.32617   0.18942   0.85572   0.00000  Uiso   1.00
C66    C     0.31170   0.21313   0.89967   0.00000  Uiso   1.00
C67    C     0.21731   0.06547   0.64717   0.00000  Uiso   1.00
C68    C     0.18903   0.10127   0.56855   0.00000  Uiso   1.00
C69    C     0.11183   0.08468   0.48115   0.00000  Uiso   1.00
H70    H     0.17634   0.94292   0.72744   0.00000  Uiso   1.00
H71    H     0.26565   0.80825   0.80273   0.00000  Uiso   1.00
H72    H     0.19365   0.04728   0.83219   0.00000  Uiso   1.00
H73    H     0.05653   0.95914   0.54507   0.00000  Uiso   1.00
H74    H     0.38547   0.68125   0.88993   0.00000  Uiso   1.00
H75    H     0.23363   0.18527   0.95203   0.00000  Uiso   1.00
H76    H     0.94448   0.99941   0.34656   0.00000  Uiso   1.00
H77    H     0.33655   0.11475   0.75586   0.00000  Uiso   1.00
H78    H     0.43465   0.98951   0.83271   0.00000  Uiso   1.00
H79    H     0.36265   0.22853   0.86218   0.00000  Uiso   1.00
H80    H     0.22553   0.14039   0.57505   0.00000  Uiso   1.00
H81    H     0.52264   0.82837   0.91427   0.00000  Uiso   1.00
H82    H     0.37080   0.33239   0.97636   0.00000  Uiso   1.00
H83    H     0.08165   0.14653   0.37089   0.00000  Uiso   1.00
O84    O     0.51571   0.66933   0.95217   0.00000  Uiso   1.00
O85    O     0.31649   0.33058   0.03362   0.00000  Uiso   1.00
O86    O     0.93714   0.08674   0.23926   0.00000  Uiso   1.00
N87    N     0.40428   0.73306   0.88510   0.00000  Uiso   1.00
N88    N     0.26233   0.20428   0.94316   0.00000  Uiso   1.00
N89    N     0.99199   0.03053   0.37710   0.00000  Uiso   1.00
N90    N     0.47809   0.81222   0.89819   0.00000  Uiso   1.00
N91    N     0.33614   0.28344   0.95626   0.00000  Uiso   1.00
N92    N     0.06580   0.10970   0.39020   0.00000  Uiso   1.00
C93    C     0.28696   0.48228   0.76605   0.00000  Uiso   1.00
C94    C     0.21622   0.43294   0.72121   0.00000  Uiso   1.00
C95    C     0.19786   0.34736   0.69079   0.00000  Uiso   1.00
C96    C     0.13059   0.31409   0.65166   0.00000  Uiso   1.00
C97    C     0.02791   0.22979   0.58326   0.00000  Uiso   1.00
C98    C     0.25533   0.56281   0.70519   0.00000  Uiso   1.00
C99    C     0.26986   0.58642   0.66131   0.00000  Uiso   1.00
C100   C     0.23553   0.66248   0.60871   0.00000  Uiso   1.00
C101   C     0.19361   0.77983   0.51549   0.00000  Uiso   1.00
C102   C     0.32983   0.51491   0.86120   0.00000  Uiso   1.00
C103   C     0.40701   0.49827   0.94849   0.00000  Uiso   1.00
C104   C     0.43540   0.53402   0.02723   0.00000  Uiso   1.00
C105   C     0.50916   0.57701   0.17623   0.00000  Uiso   1.00
C106   C     0.20016   0.57538   0.75065   0.00000  Uiso   1.00
C107   C     0.16908   0.48351   0.71285   0.00000  Uiso   1.00
C108   C     0.10182   0.45036   0.67375   0.00000  Uiso   1.00
C109   C     0.08336   0.36474   0.64328   0.00000  Uiso   1.00
C110   C     0.20819   0.61337   0.69683   0.00000  Uiso   1.00
C111   C     0.17383   0.68942   0.64428   0.00000  Uiso   1.00
C112   C     0.18830   0.71313   0.60033   0.00000  Uiso   1.00
C113   C     0.28269   0.56547   0.85283   0.00000  Uiso   1.00
C114   C     0.31097   0.60127   0.93145   0.00000  Uiso   1.00
C115   C     0.38817   0.58468   0.01885   0.00000  Uiso   1.00
H116   H     0.32366   0.44292   0.77256   0.00000  Uiso   1.00
H117   H     0.23435   0.30825   0.69727   0.00000  Uiso   1.00
H118   H     0.30635   0.54728   0.66781   0.00000  Uiso   1.00
H119   H     0.44347   0.45914   0.95493   0.00000  Uiso   1.00
H120   H     0.11453   0.18125   0.61007   0.00000  Uiso   1.00
H121   H     0.26637   0.68527   0.54797   0.00000  Uiso   1.00
H122   H     0.55552   0.49941   0.15344   0.00000  Uiso   1.00
H123   H     0.16345   0.61475   0.74414   0.00000  Uiso   1.00
H124   H     0.06535   0.48951   0.66729   0.00000  Uiso   1.00
H125   H     0.13735   0.72853   0.63782   0.00000  Uiso   1.00
H126   H     0.27447   0.64039   0.92495   0.00000  Uiso   1.00
H127   H     0.97736   0.32837   0.58573   0.00000  Uiso   1.00
H128   H     0.12920   0.83239   0.52364   0.00000  Uiso   1.00
H129   H     0.41835   0.64653   0.12911   0.00000  Uiso   1.00
O130   O     0.98429   0.16933   0.54783   0.00000  Uiso   1.00
O131   O     0.18351   0.83058   0.46638   0.00000  Uiso   1.00
O132   O     0.56286   0.58674   0.26074   0.00000  Uiso   1.00
N133   N     0.09572   0.23306   0.61490   0.00000  Uiso   1.00
N134   N     0.23767   0.70428   0.55684   0.00000  Uiso   1.00
N135   N     0.50801   0.53053   0.12290   0.00000  Uiso   1.00
N136   N     0.02191   0.31222   0.60181   0.00000  Uiso   1.00
N137   N     0.16386   0.78344   0.54374   0.00000  Uiso   1.00
N138   N     0.43420   0.60970   0.10980   0.00000  Uiso   1.00
C139   C     0.78696   0.98228   0.76605   0.00000  Uiso   1.00
C140   C     0.71622   0.93294   0.72121   0.00000  Uiso   1.00
C141   C     0.69786   0.84736   0.69079   0.00000  Uiso   1.00
C142   C     0.63059   0.81409   0.65166   0.00000  Uiso   1.00
C143   C     0.52791   0.72979   0.58326   0.00000  Uiso   1.00
C144   C     0.75533   0.06281   0.70519   0.00000  Uiso   1.00
C145   C     0.76986   0.08642   0.66131   0.00000  Uiso   1.00
C146   C     0.73553   0.16248   0.60871   0.00000  Uiso   1.00
C147   C     0.69361   0.27983   0.51549   0.00000  Uiso   1.00
C148   C     0.82983   0.01491   0.86120   0.00000  Uiso   1.00
C149   C     0.90701   0.99827   0.94849   0.00000  Uiso   1.00
C150   C     0.93540   0.03402   0.02723   0.00000  Uiso   1.00
C151   C     0.00916   0.07701   0.17623   0.00000  Uiso   1.00
C152   C     0.70016   0.07538   0.75065   0.00000  Uiso   1.00
C153   C     0.66908   0.98351   0.71285   0.00000  Uiso   1.00
C154   C     0.60182   0.95036   0.67375   0.00000  Uiso   1.00
C155   C     0.58336   0.86474   0.64328   0.00000  Uiso   1.00
C156   C     0.70819   0.11337   0.69683   0.00000  Uiso   1.00
C157   C     0.67383   0.18942   0.64428   0.00000  Uiso   1.00
C158   C     0.68830   0.21313   0.60033   0.00000  Uiso   1.00
C159   C     0.78269   0.06547   0.85283   0.00000  Uiso   1.00
C160   C     0.81097   0.10127   0.93145   0.00000  Uiso   1.00
C161   C     0.88817   0.08468   0.01885   0.00000  Uiso   1.00
H162   H     0.82366   0.94292   0.77256   0.00000  Uiso   1.00
H163   H     0.73435   0.80825   0.69727   0.00000  Uiso   1.00
H164   H     0.80635   0.04728   0.66781   0.00000  Uiso   1.00
H165   H     0.94347   0.95914   0.95493   0.00000  Uiso   1.00
H166   H     0.61453   0.68125   0.61007   0.00000  Uiso   1.00
H167   H     0.76637   0.18527   0.54797   0.00000  Uiso   1.00
H168   H     0.05552   0.99941   0.15344   0.00000  Uiso   1.00
H169   H     0.66345   0.11475   0.74414   0.00000  Uiso   1.00
H170   H     0.56535   0.98951   0.66729   0.00000  Uiso   1.00
H171   H     0.63735   0.22853   0.63782   0.00000  Uiso   1.00
H172   H     0.77447   0.14039   0.92495   0.00000  Uiso   1.00
H173   H     0.47736   0.82837   0.58573   0.00000  Uiso   1.00
H174   H     0.62920   0.33239   0.52364   0.00000  Uiso   1.00
H175   H     0.91835   0.14653   0.12911   0.00000  Uiso   1.00
O176   O     0.48429   0.66933   0.54783   0.00000  Uiso   1.00
O177   O     0.68351   0.33058   0.46638   0.00000  Uiso   1.00
O178   O     0.06286   0.08674   0.26074   0.00000  Uiso   1.00
N179   N     0.59572   0.73306   0.61490   0.00000  Uiso   1.00
N180   N     0.73767   0.20428   0.55684   0.00000  Uiso   1.00
N181   N     0.00801   0.03053   0.12290   0.00000  Uiso   1.00
N182   N     0.52191   0.81222   0.60181   0.00000  Uiso   1.00
N183   N     0.66386   0.28344   0.54374   0.00000  Uiso   1.00
N184   N     0.93420   0.10970   0.10980   0.00000  Uiso   1.00
C185   C     0.28696   0.51772   0.26605   0.00000  Uiso   1.00
C186   C     0.21622   0.56706   0.22121   0.00000  Uiso   1.00
C187   C     0.19786   0.65264   0.19079   0.00000  Uiso   1.00
C188   C     0.13059   0.68591   0.15166   0.00000  Uiso   1.00
C189   C     0.02791   0.77021   0.08326   0.00000  Uiso   1.00
C190   C     0.25533   0.43719   0.20519   0.00000  Uiso   1.00
C191   C     0.26986   0.41358   0.16131   0.00000  Uiso   1.00
C192   C     0.23553   0.33752   0.10871   0.00000  Uiso   1.00
C193   C     0.19361   0.22017   0.01549   0.00000  Uiso   1.00
C194   C     0.32983   0.48509   0.36120   0.00000  Uiso   1.00
C195   C     0.40701   0.50173   0.44849   0.00000  Uiso   1.00
C196   C     0.43540   0.46598   0.52723   0.00000  Uiso   1.00
C197   C     0.50916   0.42299   0.67623   0.00000  Uiso   1.00
C198   C     0.20016   0.42462   0.25065   0.00000  Uiso   1.00
C199   C     0.16908   0.51649   0.21285   0.00000  Uiso   1.00
C200   C     0.10182   0.54964   0.17375   0.00000  Uiso   1.00
C201   C     0.08336   0.63526   0.14328   0.00000  Uiso   1.00
C202   C     0.20819   0.38663   0.19683   0.00000  Uiso   1.00
C203   C     0.17383   0.31058   0.14428   0.00000  Uiso   1.00
C204   C     0.18830   0.28687   0.10033   0.00000  Uiso   1.00
C205   C     0.28269   0.43453   0.35283   0.00000  Uiso   1.00
C206   C     0.31097   0.39873   0.43145   0.00000  Uiso   1.00
C207   C     0.38817   0.41532   0.51885   0.00000  Uiso   1.00
H208   H     0.32366   0.55708   0.27256   0.00000  Uiso   1.00
H209   H     0.23435   0.69175   0.19727   0.00000  Uiso   1.00
H210   H     0.30635   0.45272   0.16781   0.00000  Uiso   1.00
H211   H     0.44347   0.54086   0.45493   0.00000  Uiso   1.00
H212   H     0.11453   0.81875   0.11007   0.00000  Uiso   1.00
H213   H     0.26637   0.31473   0.04797   0.00000  Uiso   1.00
H214   H     0.55552   0.50059   0.65344   0.00000  Uiso   1.00
H215   H     0.16345   0.38525   0.24414   0.00000  Uiso   1.00
H216   H     0.06535   0.51049   0.16729   0.00000  Uiso   1.00
H217   H     0.13735   0.27147   0.13782   0.00000  Uiso   1.00
H218   H     0.27447   0.35961   0.42495   0.00000  Uiso   1.00
H219   H     0.97736   0.67163   0.08573   0.00000  Uiso   1.00
H220   H     0.12920   0.16761   0.02364   0.00000  Uiso   1.00
H221   H     0.41835   0.35347   0.62911   0.00000  Uiso   1.00
O222   O     0.98429   0.83067   0.04783   0.00000  Uiso   1.00
O223   O     0.18351   0.16942   0.96638   0.00000  Uiso   1.00
O224   O     0.56286   0.41326   0.76074   0.00000  Uiso   1.00
N225   N     0.09572   0.76694   0.11490   0.00000  Uiso   1.00
N226   N     0.23767   0.29572   0.05684   0.00000  Uiso   1.00
N227   N     0.50801   0.46947   0.62290   0.00000  Uiso   1.00
N228   N     0.02191   0.68778   0.10181   0.00000  Uiso   1.00
N229   N     0.16386   0.21656   0.04374   0.00000  Uiso   1.00
N230   N     0.43420   0.39030   0.60980   0.00000  Uiso   1.00
C231   C     0.78696   0.01772   0.26605   0.00000  Uiso   1.00
C232   C     0.71622   0.06706   0.22121   0.00000  Uiso   1.00
C233   C     0.69786   0.15264   0.19079   0.00000  Uiso   1.00
C234   C     0.63059   0.18591   0.15166   0.00000  Uiso   1.00
C235   C     0.52791   0.27021   0.08326   0.00000  Uiso   1.00
C236   C     0.75533   0.93719   0.20519   0.00000  Uiso   1.00
C237   C     0.76986   0.91358   0.16131   0.00000  Uiso   1.00
C238   C     0.73553   0.83752   0.10871   0.00000  Uiso   1.00
C239   C     0.69361   0.72017   0.01549   0.00000  Uiso   1.00
C240   C     0.82983   0.98509   0.36120   0.00000  Uiso   1.00
C241   C     0.90701   0.00173   0.44849   0.00000  Uiso   1.00
C242   C     0.93540   0.96598   0.52723   0.00000  Uiso   1.00
C243   C     0.00916   0.92299   0.67623   0.00000  Uiso   1.00
C244   C     0.70016   0.92462   0.25065   0.00000  Uiso   1.00
C245   C     0.66908   0.01649   0.21285   0.00000  Uiso   1.00
C246   C     0.60182   0.04964   0.17375   0.00000  Uiso   1.00
C247   C     0.58336   0.13526   0.14328   0.00000  Uiso   1.00
C248   C     0.70819   0.88663   0.19683   0.00000  Uiso   1.00
C249   C     0.67383   0.81058   0.14428   0.00000  Uiso   1.00
C250   C     0.68830   0.78687   0.10033   0.00000  Uiso   1.00
C251   C     0.78269   0.93453   0.35283   0.00000  Uiso   1.00
C252   C     0.81097   0.89873   0.43145   0.00000  Uiso   1.00
C253   C     0.88817   0.91532   0.51885   0.00000  Uiso   1.00
H254   H     0.82366   0.05708   0.27256   0.00000  Uiso   1.00
H255   H     0.73435   0.19175   0.19727   0.00000  Uiso   1.00
H256   H     0.80635   0.95272   0.16781   0.00000  Uiso   1.00
H257   H     0.94347   0.04086   0.45493   0.00000  Uiso   1.00
H258   H     0.61453   0.31875   0.11007   0.00000  Uiso   1.00
H259   H     0.76637   0.81473   0.04797   0.00000  Uiso   1.00
H260   H     0.05552   0.00059   0.65344   0.00000  Uiso   1.00
H261   H     0.66345   0.88525   0.24414   0.00000  Uiso   1.00
H262   H     0.56535   0.01049   0.16729   0.00000  Uiso   1.00
H263   H     0.63735   0.77147   0.13782   0.00000  Uiso   1.00
H264   H     0.77447   0.85961   0.42495   0.00000  Uiso   1.00
H265   H     0.47736   0.17163   0.08573   0.00000  Uiso   1.00
H266   H     0.62920   0.66761   0.02364   0.00000  Uiso   1.00
H267   H     0.91835   0.85347   0.62911   0.00000  Uiso   1.00
O268   O     0.48429   0.33067   0.04783   0.00000  Uiso   1.00
O269   O     0.68351   0.66942   0.96638   0.00000  Uiso   1.00
O270   O     0.06286   0.91326   0.76074   0.00000  Uiso   1.00
N271   N     0.59572   0.26694   0.11490   0.00000  Uiso   1.00
N272   N     0.73767   0.79572   0.05684   0.00000  Uiso   1.00
N273   N     0.00801   0.96947   0.62290   0.00000  Uiso   1.00
N274   N     0.52191   0.18778   0.10181   0.00000  Uiso   1.00
N275   N     0.66386   0.71656   0.04374   0.00000  Uiso   1.00
N276   N     0.93420   0.89030   0.60980   0.00000  Uiso   1.00
C277   C     0.71304   0.51772   0.23395   0.00000  Uiso   1.00
C278   C     0.78378   0.56706   0.27879   0.00000  Uiso   1.00
C279   C     0.80214   0.65264   0.30921   0.00000  Uiso   1.00
C280   C     0.86941   0.68591   0.34834   0.00000  Uiso   1.00
C281   C     0.97209   0.77021   0.41674   0.00000  Uiso   1.00
C282   C     0.74467   0.43719   0.29481   0.00000  Uiso   1.00
C283   C     0.73014   0.41358   0.33869   0.00000  Uiso   1.00
C284   C     0.76447   0.33752   0.39129   0.00000  Uiso   1.00
C285   C     0.80639   0.22017   0.48451   0.00000  Uiso   1.00
C286   C     0.67017   0.48509   0.13880   0.00000  Uiso   1.00
C287   C     0.59299   0.50173   0.05151   0.00000  Uiso   1.00
C288   C     0.56460   0.46598   0.97277   0.00000  Uiso   1.00
C289   C     0.49084   0.42299   0.82377   0.00000  Uiso   1.00
C290   C     0.79984   0.42462   0.24935   0.00000  Uiso   1.00
C291   C     0.83092   0.51649   0.28715   0.00000  Uiso   1.00
C292   C     0.89818   0.54964   0.32625   0.00000  Uiso   1.00
C293   C     0.91664   0.63526   0.35672   0.00000  Uiso   1.00
C294   C     0.79181   0.38663   0.30317   0.00000  Uiso   1.00
C295   C     0.82617   0.31058   0.35572   0.00000  Uiso   1.00
C296   C     0.81170   0.28687   0.39967   0.00000  Uiso   1.00
C297   C     0.71731   0.43453   0.14717   0.00000  Uiso   1.00
C298   C     0.68903   0.39873   0.06855   0.00000  Uiso   1.00
C299   C     0.61183   0.41532   0.98115   0.00000  Uiso   1.00
H300   H     0.67634   0.55708   0.22744   0.00000  Uiso   1.00
H301   H     0.76565   0.69175   0.30273   0.00000  Uiso   1.00
H302   H     0.69365   0.45272   0.33219   0.00000  Uiso   1.00
H303   H     0.55653   0.54086   0.04507   0.00000  Uiso   1.00
H304   H     0.88547   0.81875   0.38993   0.00000  Uiso   1.00
H305   H     0.73363   0.31473   0.45203   0.00000  Uiso   1.00
H306   H     0.44448   0.50059   0.84656   0.00000  Uiso   1.00
H307   H     0.83655   0.38525   0.25586   0.00000  Uiso   1.00
H308   H     0.93465   0.51049   0.33271   0.00000  Uiso   1.00
H309   H     0.86265   0.27147   0.36218   0.00000  Uiso   1.00
H310   H     0.72553   0.35961   0.07505   0.00000  Uiso   1.00
H311   H     0.02264   0.67163   0.41427   0.00000  Uiso   1.00
H312   H     0.87080   0.16761   0.47636   0.00000  Uiso   1.00
H313   H     0.58165   0.35347   0.87089   0.00000  Uiso   1.00
O314   O     0.01571   0.83067   0.45217   0.00000  Uiso   1.00
O315   O     0.81649   0.16942   0.53362   0.00000  Uiso   1.00
O316   O     0.43714   0.41326   0.73926   0.00000  Uiso   1.00
N317   N     0.90428   0.76694   0.38510   0.00000  Uiso   1.00
N318   N     0.76233   0.29572   0.44316   0.00000  Uiso   1.00
N319   N     0.49199   0.46947   0.87710   0.00000  Uiso   1.00
N320   N     0.97809   0.68778   0.39819   0.00000  Uiso   1.00
N321   N     0.83614   0.21656   0.45626   0.00000  Uiso   1.00
N322   N     0.56580   0.39030   0.89020   0.00000  Uiso   1.00
C323   C     0.21304   0.01772   0.23395   0.00000  Uiso   1.00
C324   C     0.28378   0.06706   0.27879   0.00000  Uiso   1.00
C325   C     0.30214   0.15264   0.30921   0.00000  Uiso   1.00
C326   C     0.36941   0.18591   0.34834   0.00000  Uiso   1.00
C327   C     0.47209   0.27021   0.41674   0.00000  Uiso   1.00
C328   C     0.24467   0.93719   0.29481   0.00000  Uiso   1.00
C329   C     0.23014   0.91358   0.33869   0.00000  Uiso   1.00
C330   C     0.26447   0.83752   0.39129   0.00000  Uiso   1.00
C331   C     0.30639   0.72017   0.48451   0.00000  Uiso   1.00
C332   C     0.17017   0.98509   0.13880   0.00000  Uiso   1.00
C333   C     0.09299   0.00173   0.05151   0.00000  Uiso   1.00
C334   C     0.06460   0.96598   0.97277   0.00000  Uiso   1.00
C335   C     0.99084   0.92299   0.82377   0.00000  Uiso   1.00
C336   C     0.29984   0.92462   0.24935   0.00000  Uiso   1.00
C337   C     0.33092   0.01649   0.28715   0.00000  Uiso   1.00
C338   C     0.39818   0.04964   0.32625   0.00000  Uiso   1.00
C339   C     0.41664   0.13526   0.35672   0.00000  Uiso   1.00
C340   C     0.29181   0.88663   0.30317   0.00000  Uiso   1.00
C341   C     0.32617   0.81058   0.35572   0.00000  Uiso   1.00
C342   C     0.31170   0.78687   0.39967   0.00000  Uiso   1.00
C343   C     0.21731   0.93453   0.14717   0.00000  Uiso   1.00
C344   C     0.18903   0.89873   0.06855   0.00000  Uiso   1.00
C345   C     0.11183   0.91532   0.98115   0.00000  Uiso   1.00
H346   H     0.17634   0.05708   0.22744   0.00000  Uiso   1.00
H347   H     0.26565   0.19175   0.30273   0.00000  Uiso   1.00
H348   H     0.19365   0.95272   0.33219   0.00000  Uiso   1.00
H349   H     0.05653   0.04086   0.04507   0.00000  Uiso   1.00
H350   H     0.38547   0.31875   0.38993   0.00000  Uiso   1.00
H351   H     0.23363   0.81473   0.45203   0.00000  Uiso   1.00
H352   H     0.94448   0.00059   0.84656   0.00000  Uiso   1.00
H353   H     0.33655   0.88525   0.25586   0.00000  Uiso   1.00
H354   H     0.43465   0.01049   0.33271   0.00000  Uiso   1.00
H355   H     0.36265   0.77147   0.36218   0.00000  Uiso   1.00
H356   H     0.22553   0.85961   0.07505   0.00000  Uiso   1.00
H357   H     0.52264   0.17163   0.41427   0.00000  Uiso   1.00
H358   H     0.37080   0.66761   0.47636   0.00000  Uiso   1.00
H359   H     0.08165   0.85347   0.87089   0.00000  Uiso   1.00
O360   O     0.51571   0.33067   0.45217   0.00000  Uiso   1.00
O361   O     0.31649   0.66942   0.53362   0.00000  Uiso   1.00
O362   O     0.93714   0.91326   0.73926   0.00000  Uiso   1.00
N363   N     0.40428   0.26694   0.38510   0.00000  Uiso   1.00
N364   N     0.26233   0.79572   0.44316   0.00000  Uiso   1.00
N365   N     0.99199   0.96947   0.87710   0.00000  Uiso   1.00
N366   N     0.47809   0.18778   0.39819   0.00000  Uiso   1.00
N367   N     0.33614   0.71656   0.45626   0.00000  Uiso   1.00
N368   N     0.06580   0.89030   0.89020   0.00000  Uiso   1.00
