data_job_00314
_audit_creation_date              2018-12-19
_audit_creation_method            'Materials Studio'
_symmetry_space_group_name_H-M    'P1'
_symmetry_Int_Tables_number       1
_symmetry_cell_setting            triclinic
loop_
_symmetry_equiv_pos_as_xyz
  x,y,z
_cell_length_a                    12.5508
_cell_length_b                    16.3129
_cell_length_c                    26.0493
_cell_angle_alpha                 90.0000
_cell_angle_beta                  125.9514
_cell_angle_gamma                 90.0000
loop_
_atom_site_label
_atom_site_type_symbol
_atom_site_fract_x
_atom_site_fract_y
_atom_site_fract_z
_atom_site_U_iso_or_equiv
_atom_site_adp_type
_atom_site_occupancy
C1     C     0.29219   0.72980   0.79097   0.00000  Uiso   1.00
C2     C     0.43518   0.75526   0.83933   0.00000  Uiso   1.00
C3     C     0.54423   0.71701   0.84884   0.00000  Uiso   1.00
C4     C     0.66670   0.74961   0.89541   0.00000  Uiso   1.00
C5     C     0.88678   0.77871   0.96509   0.00000  Uiso   1.00
C6     C     0.23592   0.71518   0.82855   0.00000  Uiso   1.00
C7     C     0.17743   0.64323   0.82898   0.00000  Uiso   1.00
C8     C     0.13215   0.64211   0.86646   0.00000  Uiso   1.00
C9     C     0.04279   0.60900   0.91935   0.00000  Uiso   1.00
C10    C     0.22163   0.80525   0.75012   0.00000  Uiso   1.00
C11    C     0.15109   0.80905   0.68460   0.00000  Uiso   1.00
C12    C     0.09375   0.88376   0.65604   0.00000  Uiso   1.00
C13    C     0.98221   0.99051   0.58717   0.00000  Uiso   1.00
C14    C     0.31576   0.85572   0.85675   0.00000  Uiso   1.00
C15    C     0.44798   0.82365   0.87506   0.00000  Uiso   1.00
C16    C     0.57032   0.85632   0.92162   0.00000  Uiso   1.00
C17    C     0.67953   0.81813   0.93120   0.00000  Uiso   1.00
C18    C     0.24872   0.78357   0.86427   0.00000  Uiso   1.00
C19    C     0.20351   0.78255   0.90176   0.00000  Uiso   1.00
C20    C     0.14498   0.71062   0.90225   0.00000  Uiso   1.00
C21    C     0.23444   0.87365   0.78584   0.00000  Uiso   1.00
C22    C     0.17718   0.94836   0.75738   0.00000  Uiso   1.00
C23    C     0.10658   0.95227   0.69184   0.00000  Uiso   1.00
H24    H     0.28221   0.67655   0.76316   0.00000  Uiso   1.00
H25    H     0.53428   0.66408   0.82119   0.00000  Uiso   1.00
H26    H     0.16752   0.59032   0.80132   0.00000  Uiso   1.00
H27    H     0.14120   0.75611   0.65697   0.00000  Uiso   1.00
H28    H     0.81939   0.68039   0.90130   0.00000  Uiso   1.00
H29    H     0.04602   0.52488   0.85939   0.00000  Uiso   1.00
H30    H     0.99051   0.87447   0.55499   0.00000  Uiso   1.00
H31    H     0.32573   0.90897   0.88457   0.00000  Uiso   1.00
H32    H     0.58020   0.90925   0.94926   0.00000  Uiso   1.00
H33    H     0.21343   0.83549   0.92940   0.00000  Uiso   1.00
H34    H     0.18711   0.00128   0.78504   0.00000  Uiso   1.00
H35    H     0.85666   0.87938   0.00525   0.00000  Uiso   1.00
H36    H     0.08328   0.72387   0.96334   0.00000  Uiso   1.00
H37    H     0.02778   0.07346   0.65895   0.00000  Uiso   1.00
O38    O     0.00463   0.77586   0.99366   0.00000  Uiso   1.00
O39    O     0.98998   0.57184   0.93866   0.00000  Uiso   1.00
O40    O     0.91716   0.03050   0.53931   0.00000  Uiso   1.00
N41    N     0.79324   0.72719   0.91688   0.00000  Uiso   1.00
N42    N     0.07020   0.58179   0.87770   0.00000  Uiso   1.00
N43    N     0.01827   0.90863   0.59312   0.00000  Uiso   1.00
N44    N     0.81329   0.83427   0.97281   0.00000  Uiso   1.00
N45    N     0.09025   0.68887   0.93364   0.00000  Uiso   1.00
N46    N     0.03833   0.01571   0.64905   0.00000  Uiso   1.00
C47    C     0.79219   0.22980   0.79097   0.00000  Uiso   1.00
C48    C     0.93518   0.25526   0.83933   0.00000  Uiso   1.00
C49    C     0.04423   0.21701   0.84884   0.00000  Uiso   1.00
C50    C     0.16670   0.24961   0.89541   0.00000  Uiso   1.00
C51    C     0.38678   0.27871   0.96509   0.00000  Uiso   1.00
C52    C     0.73592   0.21518   0.82855   0.00000  Uiso   1.00
C53    C     0.67743   0.14323   0.82898   0.00000  Uiso   1.00
C54    C     0.63215   0.14211   0.86646   0.00000  Uiso   1.00
C55    C     0.54279   0.10900   0.91935   0.00000  Uiso   1.00
C56    C     0.72163   0.30525   0.75012   0.00000  Uiso   1.00
C57    C     0.65109   0.30905   0.68460   0.00000  Uiso   1.00
C58    C     0.59375   0.38376   0.65604   0.00000  Uiso   1.00
C59    C     0.48221   0.49051   0.58717   0.00000  Uiso   1.00
C60    C     0.81576   0.35572   0.85675   0.00000  Uiso   1.00
C61    C     0.94798   0.32365   0.87506   0.00000  Uiso   1.00
C62    C     0.07032   0.35632   0.92162   0.00000  Uiso   1.00
C63    C     0.17953   0.31813   0.93120   0.00000  Uiso   1.00
C64    C     0.74872   0.28357   0.86427   0.00000  Uiso   1.00
C65    C     0.70351   0.28255   0.90176   0.00000  Uiso   1.00
C66    C     0.64498   0.21062   0.90225   0.00000  Uiso   1.00
C67    C     0.73444   0.37365   0.78584   0.00000  Uiso   1.00
C68    C     0.67718   0.44836   0.75738   0.00000  Uiso   1.00
C69    C     0.60658   0.45227   0.69184   0.00000  Uiso   1.00
H70    H     0.78221   0.17655   0.76316   0.00000  Uiso   1.00
H71    H     0.03428   0.16408   0.82119   0.00000  Uiso   1.00
H72    H     0.66752   0.09032   0.80132   0.00000  Uiso   1.00
H73    H     0.64120   0.25611   0.65697   0.00000  Uiso   1.00
H74    H     0.31939   0.18039   0.90130   0.00000  Uiso   1.00
H75    H     0.54602   0.02488   0.85939   0.00000  Uiso   1.00
H76    H     0.49051   0.37447   0.55499   0.00000  Uiso   1.00
H77    H     0.82573   0.40897   0.88457   0.00000  Uiso   1.00
H78    H     0.08020   0.40925   0.94926   0.00000  Uiso   1.00
H79    H     0.71343   0.33549   0.92940   0.00000  Uiso   1.00
H80    H     0.68711   0.50128   0.78504   0.00000  Uiso   1.00
H81    H     0.35666   0.37938   0.00525   0.00000  Uiso   1.00
H82    H     0.58328   0.22387   0.96334   0.00000  Uiso   1.00
H83    H     0.52778   0.57346   0.65895   0.00000  Uiso   1.00
O84    O     0.50463   0.27586   0.99366   0.00000  Uiso   1.00
O85    O     0.48998   0.07184   0.93866   0.00000  Uiso   1.00
O86    O     0.41716   0.53050   0.53931   0.00000  Uiso   1.00
N87    N     0.29324   0.22719   0.91688   0.00000  Uiso   1.00
N88    N     0.57020   0.08179   0.87770   0.00000  Uiso   1.00
N89    N     0.51827   0.40863   0.59312   0.00000  Uiso   1.00
N90    N     0.31329   0.33427   0.97281   0.00000  Uiso   1.00
N91    N     0.59025   0.18887   0.93364   0.00000  Uiso   1.00
N92    N     0.53833   0.51571   0.64905   0.00000  Uiso   1.00
C93    C     0.70781   0.72980   0.70903   0.00000  Uiso   1.00
C94    C     0.56482   0.75526   0.66067   0.00000  Uiso   1.00
C95    C     0.45577   0.71701   0.65116   0.00000  Uiso   1.00
C96    C     0.33330   0.74961   0.60459   0.00000  Uiso   1.00
C97    C     0.11322   0.77871   0.53491   0.00000  Uiso   1.00
C98    C     0.76408   0.71518   0.67145   0.00000  Uiso   1.00
C99    C     0.82257   0.64323   0.67102   0.00000  Uiso   1.00
C100   C     0.86785   0.64211   0.63354   0.00000  Uiso   1.00
C101   C     0.95721   0.60900   0.58065   0.00000  Uiso   1.00
C102   C     0.77837   0.80525   0.74988   0.00000  Uiso   1.00
C103   C     0.84891   0.80905   0.81540   0.00000  Uiso   1.00
C104   C     0.90625   0.88376   0.84396   0.00000  Uiso   1.00
C105   C     0.01779   0.99051   0.91283   0.00000  Uiso   1.00
C106   C     0.68424   0.85572   0.64325   0.00000  Uiso   1.00
C107   C     0.55202   0.82365   0.62494   0.00000  Uiso   1.00
C108   C     0.42968   0.85632   0.57838   0.00000  Uiso   1.00
C109   C     0.32047   0.81813   0.56880   0.00000  Uiso   1.00
C110   C     0.75128   0.78357   0.63573   0.00000  Uiso   1.00
C111   C     0.79649   0.78255   0.59824   0.00000  Uiso   1.00
C112   C     0.85502   0.71062   0.59775   0.00000  Uiso   1.00
C113   C     0.76556   0.87365   0.71416   0.00000  Uiso   1.00
C114   C     0.82282   0.94836   0.74262   0.00000  Uiso   1.00
C115   C     0.89342   0.95227   0.80816   0.00000  Uiso   1.00
H116   H     0.71779   0.67655   0.73684   0.00000  Uiso   1.00
H117   H     0.46572   0.66408   0.67881   0.00000  Uiso   1.00
H118   H     0.83248   0.59032   0.69868   0.00000  Uiso   1.00
H119   H     0.85880   0.75611   0.84303   0.00000  Uiso   1.00
H120   H     0.18061   0.68039   0.59870   0.00000  Uiso   1.00
H121   H     0.95398   0.52488   0.64061   0.00000  Uiso   1.00
H122   H     0.00949   0.87447   0.94501   0.00000  Uiso   1.00
H123   H     0.67427   0.90897   0.61543   0.00000  Uiso   1.00
H124   H     0.41980   0.90925   0.55074   0.00000  Uiso   1.00
H125   H     0.78657   0.83549   0.57060   0.00000  Uiso   1.00
H126   H     0.81289   0.00128   0.71496   0.00000  Uiso   1.00
H127   H     0.14334   0.87938   0.49475   0.00000  Uiso   1.00
H128   H     0.91672   0.72387   0.53666   0.00000  Uiso   1.00
H129   H     0.97222   0.07346   0.84105   0.00000  Uiso   1.00
O130   O     0.99537   0.77586   0.50634   0.00000  Uiso   1.00
O131   O     0.01002   0.57184   0.56134   0.00000  Uiso   1.00
O132   O     0.08284   0.03050   0.96069   0.00000  Uiso   1.00
N133   N     0.20676   0.72719   0.58312   0.00000  Uiso   1.00
N134   N     0.92980   0.58179   0.62230   0.00000  Uiso   1.00
N135   N     0.98173   0.90863   0.90688   0.00000  Uiso   1.00
N136   N     0.18671   0.83427   0.52719   0.00000  Uiso   1.00
N137   N     0.90975   0.68887   0.56636   0.00000  Uiso   1.00
N138   N     0.96167   0.01571   0.85095   0.00000  Uiso   1.00
C139   C     0.20781   0.22980   0.70903   0.00000  Uiso   1.00
C140   C     0.06482   0.25526   0.66067   0.00000  Uiso   1.00
C141   C     0.95577   0.21701   0.65116   0.00000  Uiso   1.00
C142   C     0.83330   0.24961   0.60459   0.00000  Uiso   1.00
C143   C     0.61322   0.27871   0.53491   0.00000  Uiso   1.00
C144   C     0.26408   0.21518   0.67145   0.00000  Uiso   1.00
C145   C     0.32257   0.14323   0.67102   0.00000  Uiso   1.00
C146   C     0.36785   0.14211   0.63354   0.00000  Uiso   1.00
C147   C     0.45721   0.10900   0.58065   0.00000  Uiso   1.00
C148   C     0.27837   0.30525   0.74988   0.00000  Uiso   1.00
C149   C     0.34891   0.30905   0.81540   0.00000  Uiso   1.00
C150   C     0.40625   0.38376   0.84396   0.00000  Uiso   1.00
C151   C     0.51779   0.49051   0.91283   0.00000  Uiso   1.00
C152   C     0.18424   0.35572   0.64325   0.00000  Uiso   1.00
C153   C     0.05202   0.32365   0.62494   0.00000  Uiso   1.00
C154   C     0.92968   0.35632   0.57838   0.00000  Uiso   1.00
C155   C     0.82047   0.31813   0.56880   0.00000  Uiso   1.00
C156   C     0.25128   0.28357   0.63573   0.00000  Uiso   1.00
C157   C     0.29649   0.28255   0.59824   0.00000  Uiso   1.00
C158   C     0.35502   0.21062   0.59775   0.00000  Uiso   1.00
C159   C     0.26556   0.37365   0.71416   0.00000  Uiso   1.00
C160   C     0.32282   0.44836   0.74262   0.00000  Uiso   1.00
C161   C     0.39342   0.45227   0.80816   0.00000  Uiso   1.00
H162   H     0.21779   0.17655   0.73684   0.00000  Uiso   1.00
H163   H     0.96572   0.16408   0.67881   0.00000  Uiso   1.00
H164   H     0.33248   0.09032   0.69868   0.00000  Uiso   1.00
H165   H     0.35880   0.25611   0.84303   0.00000  Uiso   1.00
H166   H     0.68061   0.18039   0.59870   0.00000  Uiso   1.00
H167   H     0.45398   0.02488   0.64061   0.00000  Uiso   1.00
H168   H     0.50949   0.37447   0.94501   0.00000  Uiso   1.00
H169   H     0.17427   0.40897   0.61543   0.00000  Uiso   1.00
H170   H     0.91980   0.40925   0.55074   0.00000  Uiso   1.00
H171   H     0.28657   0.33549   0.57060   0.00000  Uiso   1.00
H172   H     0.31289   0.50128   0.71496   0.00000  Uiso   1.00
H173   H     0.64334   0.37938   0.49475   0.00000  Uiso   1.00
H174   H     0.41672   0.22387   0.53666   0.00000  Uiso   1.00
H175   H     0.47222   0.57346   0.84105   0.00000  Uiso   1.00
O176   O     0.49537   0.27586   0.50634   0.00000  Uiso   1.00
O177   O     0.51002   0.07184   0.56134   0.00000  Uiso   1.00
O178   O     0.58284   0.53050   0.96069   0.00000  Uiso   1.00
N179   N     0.70676   0.22719   0.58312   0.00000  Uiso   1.00
N180   N     0.42980   0.08179   0.62230   0.00000  Uiso   1.00
N181   N     0.48173   0.40863   0.90688   0.00000  Uiso   1.00
N182   N     0.68671   0.33427   0.52719   0.00000  Uiso   1.00
N183   N     0.40975   0.18887   0.56636   0.00000  Uiso   1.00
N184   N     0.46167   0.51571   0.85095   0.00000  Uiso   1.00
C185   C     0.70781   0.27020   0.20903   0.00000  Uiso   1.00
C186   C     0.56482   0.24474   0.16067   0.00000  Uiso   1.00
C187   C     0.45577   0.28299   0.15116   0.00000  Uiso   1.00
C188   C     0.33330   0.25039   0.10459   0.00000  Uiso   1.00
C189   C     0.11322   0.22129   0.03491   0.00000  Uiso   1.00
C190   C     0.76408   0.28482   0.17145   0.00000  Uiso   1.00
C191   C     0.82257   0.35677   0.17102   0.00000  Uiso   1.00
C192   C     0.86785   0.35789   0.13354   0.00000  Uiso   1.00
C193   C     0.95721   0.39100   0.08065   0.00000  Uiso   1.00
C194   C     0.77837   0.19475   0.24988   0.00000  Uiso   1.00
C195   C     0.84891   0.19095   0.31540   0.00000  Uiso   1.00
C196   C     0.90625   0.11624   0.34396   0.00000  Uiso   1.00
C197   C     0.01779   0.00949   0.41283   0.00000  Uiso   1.00
C198   C     0.68424   0.14428   0.14325   0.00000  Uiso   1.00
C199   C     0.55202   0.17635   0.12494   0.00000  Uiso   1.00
C200   C     0.42968   0.14368   0.07838   0.00000  Uiso   1.00
C201   C     0.32047   0.18187   0.06880   0.00000  Uiso   1.00
C202   C     0.75128   0.21643   0.13573   0.00000  Uiso   1.00
C203   C     0.79649   0.21745   0.09824   0.00000  Uiso   1.00
C204   C     0.85502   0.28938   0.09775   0.00000  Uiso   1.00
C205   C     0.76556   0.12635   0.21416   0.00000  Uiso   1.00
C206   C     0.82282   0.05164   0.24262   0.00000  Uiso   1.00
C207   C     0.89342   0.04773   0.30816   0.00000  Uiso   1.00
H208   H     0.71779   0.32345   0.23684   0.00000  Uiso   1.00
H209   H     0.46572   0.33592   0.17881   0.00000  Uiso   1.00
H210   H     0.83248   0.40968   0.19868   0.00000  Uiso   1.00
H211   H     0.85880   0.24389   0.34303   0.00000  Uiso   1.00
H212   H     0.18061   0.31961   0.09870   0.00000  Uiso   1.00
H213   H     0.95398   0.47512   0.14061   0.00000  Uiso   1.00
H214   H     0.00949   0.12553   0.44501   0.00000  Uiso   1.00
H215   H     0.67427   0.09103   0.11543   0.00000  Uiso   1.00
H216   H     0.41980   0.09075   0.05074   0.00000  Uiso   1.00
H217   H     0.78657   0.16451   0.07060   0.00000  Uiso   1.00
H218   H     0.81289   0.99872   0.21496   0.00000  Uiso   1.00
H219   H     0.14334   0.12062   0.99475   0.00000  Uiso   1.00
H220   H     0.91672   0.27613   0.03666   0.00000  Uiso   1.00
H221   H     0.97222   0.92654   0.34105   0.00000  Uiso   1.00
O222   O     0.99537   0.22414   0.00634   0.00000  Uiso   1.00
O223   O     0.01002   0.42816   0.06134   0.00000  Uiso   1.00
O224   O     0.08284   0.96950   0.46069   0.00000  Uiso   1.00
N225   N     0.20676   0.27281   0.08312   0.00000  Uiso   1.00
N226   N     0.92980   0.41821   0.12230   0.00000  Uiso   1.00
N227   N     0.98173   0.09137   0.40688   0.00000  Uiso   1.00
N228   N     0.18671   0.16573   0.02719   0.00000  Uiso   1.00
N229   N     0.90975   0.31113   0.06636   0.00000  Uiso   1.00
N230   N     0.96167   0.98429   0.35095   0.00000  Uiso   1.00
C231   C     0.20781   0.77020   0.20903   0.00000  Uiso   1.00
C232   C     0.06482   0.74474   0.16067   0.00000  Uiso   1.00
C233   C     0.95577   0.78299   0.15116   0.00000  Uiso   1.00
C234   C     0.83330   0.75039   0.10459   0.00000  Uiso   1.00
C235   C     0.61322   0.72129   0.03491   0.00000  Uiso   1.00
C236   C     0.26408   0.78482   0.17145   0.00000  Uiso   1.00
C237   C     0.32257   0.85677   0.17102   0.00000  Uiso   1.00
C238   C     0.36785   0.85789   0.13354   0.00000  Uiso   1.00
C239   C     0.45721   0.89100   0.08065   0.00000  Uiso   1.00
C240   C     0.27837   0.69475   0.24988   0.00000  Uiso   1.00
C241   C     0.34891   0.69095   0.31540   0.00000  Uiso   1.00
C242   C     0.40625   0.61624   0.34396   0.00000  Uiso   1.00
C243   C     0.51779   0.50949   0.41283   0.00000  Uiso   1.00
C244   C     0.18424   0.64428   0.14325   0.00000  Uiso   1.00
C245   C     0.05202   0.67635   0.12494   0.00000  Uiso   1.00
C246   C     0.92968   0.64368   0.07838   0.00000  Uiso   1.00
C247   C     0.82047   0.68187   0.06880   0.00000  Uiso   1.00
C248   C     0.25128   0.71643   0.13573   0.00000  Uiso   1.00
C249   C     0.29649   0.71745   0.09824   0.00000  Uiso   1.00
C250   C     0.35502   0.78938   0.09775   0.00000  Uiso   1.00
C251   C     0.26556   0.62635   0.21416   0.00000  Uiso   1.00
C252   C     0.32282   0.55164   0.24262   0.00000  Uiso   1.00
C253   C     0.39342   0.54773   0.30816   0.00000  Uiso   1.00
H254   H     0.21779   0.82345   0.23684   0.00000  Uiso   1.00
H255   H     0.96572   0.83592   0.17881   0.00000  Uiso   1.00
H256   H     0.33248   0.90968   0.19868   0.00000  Uiso   1.00
H257   H     0.35880   0.74389   0.34303   0.00000  Uiso   1.00
H258   H     0.68061   0.81961   0.09870   0.00000  Uiso   1.00
H259   H     0.45398   0.97512   0.14061   0.00000  Uiso   1.00
H260   H     0.50949   0.62553   0.44501   0.00000  Uiso   1.00
H261   H     0.17427   0.59103   0.11543   0.00000  Uiso   1.00
H262   H     0.91980   0.59075   0.05074   0.00000  Uiso   1.00
H263   H     0.28657   0.66451   0.07060   0.00000  Uiso   1.00
H264   H     0.31289   0.49872   0.21496   0.00000  Uiso   1.00
H265   H     0.64334   0.62062   0.99475   0.00000  Uiso   1.00
H266   H     0.41672   0.77613   0.03666   0.00000  Uiso   1.00
H267   H     0.47222   0.42654   0.34105   0.00000  Uiso   1.00
O268   O     0.49537   0.72414   0.00634   0.00000  Uiso   1.00
O269   O     0.51002   0.92816   0.06134   0.00000  Uiso   1.00
O270   O     0.58284   0.46950   0.46069   0.00000  Uiso   1.00
N271   N     0.70676   0.77281   0.08312   0.00000  Uiso   1.00
N272   N     0.42980   0.91821   0.12230   0.00000  Uiso   1.00
N273   N     0.48173   0.59137   0.40688   0.00000  Uiso   1.00
N274   N     0.68671   0.66573   0.02719   0.00000  Uiso   1.00
N275   N     0.40975   0.81113   0.06636   0.00000  Uiso   1.00
N276   N     0.46167   0.48429   0.35095   0.00000  Uiso   1.00
C277   C     0.29219   0.27020   0.29097   0.00000  Uiso   1.00
C278   C     0.43518   0.24474   0.33933   0.00000  Uiso   1.00
C279   C     0.54423   0.28299   0.34884   0.00000  Uiso   1.00
C280   C     0.66670   0.25039   0.39541   0.00000  Uiso   1.00
C281   C     0.88678   0.22129   0.46509   0.00000  Uiso   1.00
C282   C     0.23592   0.28482   0.32855   0.00000  Uiso   1.00
C283   C     0.17743   0.35677   0.32898   0.00000  Uiso   1.00
C284   C     0.13215   0.35789   0.36646   0.00000  Uiso   1.00
C285   C     0.04279   0.39100   0.41935   0.00000  Uiso   1.00
C286   C     0.22163   0.19475   0.25012   0.00000  Uiso   1.00
C287   C     0.15109   0.19095   0.18460   0.00000  Uiso   1.00
C288   C     0.09375   0.11624   0.15604   0.00000  Uiso   1.00
C289   C     0.98221   0.00949   0.08717   0.00000  Uiso   1.00
C290   C     0.31576   0.14428   0.35675   0.00000  Uiso   1.00
C291   C     0.44798   0.17635   0.37506   0.00000  Uiso   1.00
C292   C     0.57032   0.14368   0.42162   0.00000  Uiso   1.00
C293   C     0.67953   0.18187   0.43120   0.00000  Uiso   1.00
C294   C     0.24872   0.21643   0.36427   0.00000  Uiso   1.00
C295   C     0.20351   0.21745   0.40176   0.00000  Uiso   1.00
C296   C     0.14498   0.28938   0.40225   0.00000  Uiso   1.00
C297   C     0.23444   0.12635   0.28584   0.00000  Uiso   1.00
C298   C     0.17718   0.05164   0.25738   0.00000  Uiso   1.00
C299   C     0.10658   0.04773   0.19184   0.00000  Uiso   1.00
H300   H     0.28221   0.32345   0.26316   0.00000  Uiso   1.00
H301   H     0.53428   0.33592   0.32119   0.00000  Uiso   1.00
H302   H     0.16752   0.40968   0.30132   0.00000  Uiso   1.00
H303   H     0.14120   0.24389   0.15697   0.00000  Uiso   1.00
H304   H     0.81939   0.31961   0.40130   0.00000  Uiso   1.00
H305   H     0.04602   0.47512   0.35939   0.00000  Uiso   1.00
H306   H     0.99051   0.12553   0.05499   0.00000  Uiso   1.00
H307   H     0.32573   0.09103   0.38457   0.00000  Uiso   1.00
H308   H     0.58020   0.09075   0.44926   0.00000  Uiso   1.00
H309   H     0.21343   0.16451   0.42940   0.00000  Uiso   1.00
H310   H     0.18711   0.99872   0.28504   0.00000  Uiso   1.00
H311   H     0.85666   0.12062   0.50525   0.00000  Uiso   1.00
H312   H     0.08328   0.27613   0.46334   0.00000  Uiso   1.00
H313   H     0.02778   0.92654   0.15895   0.00000  Uiso   1.00
O314   O     0.00463   0.22414   0.49366   0.00000  Uiso   1.00
O315   O     0.98998   0.42816   0.43866   0.00000  Uiso   1.00
O316   O     0.91716   0.96950   0.03931   0.00000  Uiso   1.00
N317   N     0.79324   0.27281   0.41688   0.00000  Uiso   1.00
N318   N     0.07020   0.41821   0.37770   0.00000  Uiso   1.00
N319   N     0.01827   0.09137   0.09312   0.00000  Uiso   1.00
N320   N     0.81329   0.16573   0.47281   0.00000  Uiso   1.00
N321   N     0.09025   0.31113   0.43364   0.00000  Uiso   1.00
N322   N     0.03833   0.98429   0.14905   0.00000  Uiso   1.00
C323   C     0.79219   0.77020   0.29097   0.00000  Uiso   1.00
C324   C     0.93518   0.74474   0.33933   0.00000  Uiso   1.00
C325   C     0.04423   0.78299   0.34884   0.00000  Uiso   1.00
C326   C     0.16670   0.75039   0.39541   0.00000  Uiso   1.00
C327   C     0.38678   0.72129   0.46509   0.00000  Uiso   1.00
C328   C     0.73592   0.78482   0.32855   0.00000  Uiso   1.00
C329   C     0.67743   0.85677   0.32898   0.00000  Uiso   1.00
C330   C     0.63215   0.85789   0.36646   0.00000  Uiso   1.00
C331   C     0.54279   0.89100   0.41935   0.00000  Uiso   1.00
C332   C     0.72163   0.69475   0.25012   0.00000  Uiso   1.00
C333   C     0.65109   0.69095   0.18460   0.00000  Uiso   1.00
C334   C     0.59375   0.61624   0.15604   0.00000  Uiso   1.00
C335   C     0.48221   0.50949   0.08717   0.00000  Uiso   1.00
C336   C     0.81576   0.64428   0.35675   0.00000  Uiso   1.00
C337   C     0.94798   0.67635   0.37506   0.00000  Uiso   1.00
C338   C     0.07032   0.64368   0.42162   0.00000  Uiso   1.00
C339   C     0.17953   0.68187   0.43120   0.00000  Uiso   1.00
C340   C     0.74872   0.71643   0.36427   0.00000  Uiso   1.00
C341   C     0.70351   0.71745   0.40176   0.00000  Uiso   1.00
C342   C     0.64498   0.78938   0.40225   0.00000  Uiso   1.00
C343   C     0.73444   0.62635   0.28584   0.00000  Uiso   1.00
C344   C     0.67718   0.55164   0.25738   0.00000  Uiso   1.00
C345   C     0.60658   0.54773   0.19184   0.00000  Uiso   1.00
H346   H     0.78221   0.82345   0.26316   0.00000  Uiso   1.00
H347   H     0.03428   0.83592   0.32119   0.00000  Uiso   1.00
H348   H     0.66752   0.90968   0.30132   0.00000  Uiso   1.00
H349   H     0.64120   0.74389   0.15697   0.00000  Uiso   1.00
H350   H     0.31939   0.81961   0.40130   0.00000  Uiso   1.00
H351   H     0.54602   0.97512   0.35939   0.00000  Uiso   1.00
H352   H     0.49051   0.62553   0.05499   0.00000  Uiso   1.00
H353   H     0.82573   0.59103   0.38457   0.00000  Uiso   1.00
H354   H     0.08020   0.59075   0.44926   0.00000  Uiso   1.00
H355   H     0.71343   0.66451   0.42940   0.00000  Uiso   1.00
H356   H     0.68711   0.49872   0.28504   0.00000  Uiso   1.00
H357   H     0.35666   0.62062   0.50525   0.00000  Uiso   1.00
H358   H     0.58328   0.77613   0.46334   0.00000  Uiso   1.00
H359   H     0.52778   0.42654   0.15895   0.00000  Uiso   1.00
O360   O     0.50463   0.72414   0.49366   0.00000  Uiso   1.00
O361   O     0.48998   0.92816   0.43866   0.00000  Uiso   1.00
O362   O     0.41716   0.46950   0.03931   0.00000  Uiso   1.00
N363   N     0.29324   0.77281   0.41688   0.00000  Uiso   1.00
N364   N     0.57020   0.91821   0.37770   0.00000  Uiso   1.00
N365   N     0.51827   0.59137   0.09312   0.00000  Uiso   1.00
N366   N     0.31329   0.66573   0.47281   0.00000  Uiso   1.00
N367   N     0.59025   0.81113   0.43364   0.00000  Uiso   1.00
N368   N     0.53833   0.48429   0.14905   0.00000  Uiso   1.00
