data_job_03909
_audit_creation_date              2018-12-19
_audit_creation_method            'Materials Studio'
_symmetry_space_group_name_H-M    'P1'
_symmetry_Int_Tables_number       1
_symmetry_cell_setting            triclinic
loop_
_symmetry_equiv_pos_as_xyz
  x,y,z
_cell_length_a                    22.8822
_cell_length_b                    15.3778
_cell_length_c                    15.2904
_cell_angle_alpha                 90.0000
_cell_angle_beta                  90.0000
_cell_angle_gamma                 90.0000
loop_
_atom_site_label
_atom_site_type_symbol
_atom_site_fract_x
_atom_site_fract_y
_atom_site_fract_z
_atom_site_U_iso_or_equiv
_atom_site_adp_type
_atom_site_occupancy
C1     C     0.73760   0.05766   0.57322   0.00000  Uiso   1.00
C2     C     0.72630   0.08471   0.47877   0.00000  Uiso   1.00
C3     C     0.70666   0.16567   0.45152   0.00000  Uiso   1.00
C4     C     0.69904   0.17753   0.36223   0.00000  Uiso   1.00
C5     C     0.67970   0.22967   0.22468   0.00000  Uiso   1.00
C6     C     0.70023   0.97705   0.58897   0.00000  Uiso   1.00
C7     C     0.65868   0.96750   0.65437   0.00000  Uiso   1.00
C8     C     0.62912   0.88873   0.65785   0.00000  Uiso   1.00
C9     C     0.56933   0.77372   0.69142   0.00000  Uiso   1.00
C10    C     0.80093   0.02697   0.57646   0.00000  Uiso   1.00
C11    C     0.84404   0.05936   0.63137   0.00000  Uiso   1.00
C12    C     0.89926   0.02259   0.62433   0.00000  Uiso   1.00
C13    C     0.99583   0.98508   0.63848   0.00000  Uiso   1.00
C14    C     0.75901   0.93474   0.46311   0.00000  Uiso   1.00
C15    C     0.73793   0.01794   0.41896   0.00000  Uiso   1.00
C16    C     0.73034   0.02968   0.32969   0.00000  Uiso   1.00
C17    C     0.71069   0.11064   0.30231   0.00000  Uiso   1.00
C18    C     0.71186   0.91029   0.52916   0.00000  Uiso   1.00
C19    C     0.68236   0.83151   0.53255   0.00000  Uiso   1.00
C20    C     0.64076   0.82184   0.59793   0.00000  Uiso   1.00
C21    C     0.81256   0.96020   0.51665   0.00000  Uiso   1.00
C22    C     0.86773   0.92337   0.50953   0.00000  Uiso   1.00
C23    C     0.91091   0.95571   0.56442   0.00000  Uiso   1.00
H24    H     0.72855   0.10963   0.61978   0.00000  Uiso   1.00
H25    H     0.69766   0.21732   0.49782   0.00000  Uiso   1.00
H26    H     0.64969   0.01918   0.70065   0.00000  Uiso   1.00
H27    H     0.83503   0.11103   0.67764   0.00000  Uiso   1.00
H28    H     0.66852   0.30726   0.33624   0.00000  Uiso   1.00
H29    H     0.56739   0.88946   0.76392   0.00000  Uiso   1.00
H30    H     0.95821   0.08314   0.71541   0.00000  Uiso   1.00
H31    H     0.76806   0.88275   0.41654   0.00000  Uiso   1.00
H32    H     0.73934   0.97800   0.28342   0.00000  Uiso   1.00
H33    H     0.69137   0.77985   0.48625   0.00000  Uiso   1.00
H34    H     0.87671   0.87170   0.46325   0.00000  Uiso   1.00
H35    H     0.70235   0.11302   0.16222   0.00000  Uiso   1.00
H36    H     0.60122   0.69521   0.58992   0.00000  Uiso   1.00
H37    H     0.99204   0.88889   0.54140   0.00000  Uiso   1.00
O38    O     0.66581   0.27688   0.16533   0.00000  Uiso   1.00
O39    O     0.53314   0.72873   0.72645   0.00000  Uiso   1.00
O40    O     0.04588   0.98284   0.66280   0.00000  Uiso   1.00
N41    N     0.68043   0.24848   0.31355   0.00000  Uiso   1.00
N42    N     0.58588   0.85786   0.71340   0.00000  Uiso   1.00
N43    N     0.95126   0.03893   0.66806   0.00000  Uiso   1.00
N44    N     0.69864   0.14396   0.21991   0.00000  Uiso   1.00
N45    N     0.60408   0.75334   0.61977   0.00000  Uiso   1.00
N46    N     0.96946   0.93440   0.57443   0.00000  Uiso   1.00
C47    C     0.76240   0.94234   0.07322   0.00000  Uiso   1.00
C48    C     0.77370   0.91529   0.97877   0.00000  Uiso   1.00
C49    C     0.79334   0.83433   0.95152   0.00000  Uiso   1.00
C50    C     0.80096   0.82247   0.86223   0.00000  Uiso   1.00
C51    C     0.82030   0.77033   0.72468   0.00000  Uiso   1.00
C52    C     0.79977   0.02295   0.08897   0.00000  Uiso   1.00
C53    C     0.84132   0.03250   0.15437   0.00000  Uiso   1.00
C54    C     0.87088   0.11127   0.15785   0.00000  Uiso   1.00
C55    C     0.93067   0.22628   0.19142   0.00000  Uiso   1.00
C56    C     0.69907   0.97303   0.07646   0.00000  Uiso   1.00
C57    C     0.65596   0.94064   0.13137   0.00000  Uiso   1.00
C58    C     0.60074   0.97741   0.12433   0.00000  Uiso   1.00
C59    C     0.50417   0.01492   0.13848   0.00000  Uiso   1.00
C60    C     0.74099   0.06526   0.96311   0.00000  Uiso   1.00
C61    C     0.76207   0.98206   0.91896   0.00000  Uiso   1.00
C62    C     0.76966   0.97032   0.82969   0.00000  Uiso   1.00
C63    C     0.78931   0.88936   0.80231   0.00000  Uiso   1.00
C64    C     0.78814   0.08971   0.02916   0.00000  Uiso   1.00
C65    C     0.81764   0.16849   0.03255   0.00000  Uiso   1.00
C66    C     0.85924   0.17816   0.09793   0.00000  Uiso   1.00
C67    C     0.68744   0.03980   0.01665   0.00000  Uiso   1.00
C68    C     0.63227   0.07663   0.00953   0.00000  Uiso   1.00
C69    C     0.58909   0.04429   0.06442   0.00000  Uiso   1.00
H70    H     0.77145   0.89037   0.11978   0.00000  Uiso   1.00
H71    H     0.80234   0.78268   0.99782   0.00000  Uiso   1.00
H72    H     0.85031   0.98082   0.20065   0.00000  Uiso   1.00
H73    H     0.66497   0.88897   0.17764   0.00000  Uiso   1.00
H74    H     0.83148   0.69274   0.83624   0.00000  Uiso   1.00
H75    H     0.93261   0.11054   0.26392   0.00000  Uiso   1.00
H76    H     0.54179   0.91686   0.21541   0.00000  Uiso   1.00
H77    H     0.73194   0.11725   0.91654   0.00000  Uiso   1.00
H78    H     0.76066   0.02200   0.78342   0.00000  Uiso   1.00
H79    H     0.80863   0.22015   0.98625   0.00000  Uiso   1.00
H80    H     0.62329   0.12830   0.96325   0.00000  Uiso   1.00
H81    H     0.79765   0.88698   0.66222   0.00000  Uiso   1.00
H82    H     0.89878   0.30479   0.08992   0.00000  Uiso   1.00
H83    H     0.50796   0.11111   0.04140   0.00000  Uiso   1.00
O84    O     0.83419   0.72312   0.66533   0.00000  Uiso   1.00
O85    O     0.96686   0.27127   0.22645   0.00000  Uiso   1.00
O86    O     0.45412   0.01716   0.16280   0.00000  Uiso   1.00
N87    N     0.81957   0.75152   0.81355   0.00000  Uiso   1.00
N88    N     0.91412   0.14214   0.21340   0.00000  Uiso   1.00
N89    N     0.54874   0.96107   0.16806   0.00000  Uiso   1.00
N90    N     0.80136   0.85604   0.71991   0.00000  Uiso   1.00
N91    N     0.89592   0.24666   0.11977   0.00000  Uiso   1.00
N92    N     0.53054   0.06560   0.07443   0.00000  Uiso   1.00
C93    C     0.26240   0.55766   0.92678   0.00000  Uiso   1.00
C94    C     0.27370   0.58471   0.02123   0.00000  Uiso   1.00
C95    C     0.29334   0.66567   0.04848   0.00000  Uiso   1.00
C96    C     0.30096   0.67753   0.13777   0.00000  Uiso   1.00
C97    C     0.32030   0.72967   0.27532   0.00000  Uiso   1.00
C98    C     0.29977   0.47705   0.91103   0.00000  Uiso   1.00
C99    C     0.34132   0.46750   0.84563   0.00000  Uiso   1.00
C100   C     0.37088   0.38873   0.84215   0.00000  Uiso   1.00
C101   C     0.43067   0.27372   0.80858   0.00000  Uiso   1.00
C102   C     0.19907   0.52697   0.92354   0.00000  Uiso   1.00
C103   C     0.15596   0.55936   0.86863   0.00000  Uiso   1.00
C104   C     0.10074   0.52259   0.87567   0.00000  Uiso   1.00
C105   C     0.00417   0.48508   0.86152   0.00000  Uiso   1.00
C106   C     0.24099   0.43474   0.03689   0.00000  Uiso   1.00
C107   C     0.26207   0.51794   0.08104   0.00000  Uiso   1.00
C108   C     0.26966   0.52968   0.17031   0.00000  Uiso   1.00
C109   C     0.28931   0.61064   0.19769   0.00000  Uiso   1.00
C110   C     0.28814   0.41029   0.97084   0.00000  Uiso   1.00
C111   C     0.31764   0.33151   0.96745   0.00000  Uiso   1.00
C112   C     0.35924   0.32184   0.90207   0.00000  Uiso   1.00
C113   C     0.18744   0.46020   0.98335   0.00000  Uiso   1.00
C114   C     0.13227   0.42337   0.99047   0.00000  Uiso   1.00
C115   C     0.08909   0.45571   0.93558   0.00000  Uiso   1.00
H116   H     0.27145   0.60963   0.88022   0.00000  Uiso   1.00
H117   H     0.30234   0.71732   0.00218   0.00000  Uiso   1.00
H118   H     0.35031   0.51918   0.79935   0.00000  Uiso   1.00
H119   H     0.16497   0.61103   0.82236   0.00000  Uiso   1.00
H120   H     0.33148   0.80726   0.16376   0.00000  Uiso   1.00
H121   H     0.43261   0.38946   0.73608   0.00000  Uiso   1.00
H122   H     0.04179   0.58314   0.78459   0.00000  Uiso   1.00
H123   H     0.23194   0.38275   0.08346   0.00000  Uiso   1.00
H124   H     0.26066   0.47800   0.21658   0.00000  Uiso   1.00
H125   H     0.30863   0.27985   0.01375   0.00000  Uiso   1.00
H126   H     0.12329   0.37170   0.03675   0.00000  Uiso   1.00
H127   H     0.29765   0.61302   0.33778   0.00000  Uiso   1.00
H128   H     0.39878   0.19521   0.91008   0.00000  Uiso   1.00
H129   H     0.00796   0.38889   0.95860   0.00000  Uiso   1.00
O130   O     0.33419   0.77688   0.33467   0.00000  Uiso   1.00
O131   O     0.46686   0.22873   0.77355   0.00000  Uiso   1.00
O132   O     0.95412   0.48284   0.83720   0.00000  Uiso   1.00
N133   N     0.31957   0.74848   0.18645   0.00000  Uiso   1.00
N134   N     0.41412   0.35786   0.78660   0.00000  Uiso   1.00
N135   N     0.04874   0.53892   0.83194   0.00000  Uiso   1.00
N136   N     0.30136   0.64396   0.28009   0.00000  Uiso   1.00
N137   N     0.39592   0.25334   0.88023   0.00000  Uiso   1.00
N138   N     0.03054   0.43440   0.92557   0.00000  Uiso   1.00
C139   C     0.23760   0.44234   0.42678   0.00000  Uiso   1.00
C140   C     0.22630   0.41529   0.52123   0.00000  Uiso   1.00
C141   C     0.20666   0.33433   0.54848   0.00000  Uiso   1.00
C142   C     0.19904   0.32247   0.63777   0.00000  Uiso   1.00
C143   C     0.17970   0.27033   0.77532   0.00000  Uiso   1.00
C144   C     0.20023   0.52295   0.41103   0.00000  Uiso   1.00
C145   C     0.15868   0.53250   0.34563   0.00000  Uiso   1.00
C146   C     0.12912   0.61127   0.34215   0.00000  Uiso   1.00
C147   C     0.06933   0.72628   0.30858   0.00000  Uiso   1.00
C148   C     0.30093   0.47303   0.42354   0.00000  Uiso   1.00
C149   C     0.34404   0.44064   0.36863   0.00000  Uiso   1.00
C150   C     0.39926   0.47741   0.37567   0.00000  Uiso   1.00
C151   C     0.49583   0.51492   0.36152   0.00000  Uiso   1.00
C152   C     0.25901   0.56526   0.53689   0.00000  Uiso   1.00
C153   C     0.23793   0.48206   0.58104   0.00000  Uiso   1.00
C154   C     0.23034   0.47032   0.67031   0.00000  Uiso   1.00
C155   C     0.21069   0.38936   0.69769   0.00000  Uiso   1.00
C156   C     0.21186   0.58971   0.47084   0.00000  Uiso   1.00
C157   C     0.18236   0.66849   0.46745   0.00000  Uiso   1.00
C158   C     0.14076   0.67816   0.40207   0.00000  Uiso   1.00
C159   C     0.31256   0.53980   0.48335   0.00000  Uiso   1.00
C160   C     0.36773   0.57663   0.49047   0.00000  Uiso   1.00
C161   C     0.41091   0.54429   0.43558   0.00000  Uiso   1.00
H162   H     0.22855   0.39037   0.38022   0.00000  Uiso   1.00
H163   H     0.19766   0.28268   0.50218   0.00000  Uiso   1.00
H164   H     0.14969   0.48082   0.29935   0.00000  Uiso   1.00
H165   H     0.33503   0.38897   0.32236   0.00000  Uiso   1.00
H166   H     0.16852   0.19274   0.66376   0.00000  Uiso   1.00
H167   H     0.06739   0.61054   0.23608   0.00000  Uiso   1.00
H168   H     0.45821   0.41686   0.28459   0.00000  Uiso   1.00
H169   H     0.26806   0.61725   0.58346   0.00000  Uiso   1.00
H170   H     0.23934   0.52200   0.71658   0.00000  Uiso   1.00
H171   H     0.19137   0.72015   0.51375   0.00000  Uiso   1.00
H172   H     0.37671   0.62830   0.53675   0.00000  Uiso   1.00
H173   H     0.20235   0.38698   0.83778   0.00000  Uiso   1.00
H174   H     0.10122   0.80479   0.41008   0.00000  Uiso   1.00
H175   H     0.49204   0.61111   0.45860   0.00000  Uiso   1.00
O176   O     0.16581   0.22312   0.83467   0.00000  Uiso   1.00
O177   O     0.03314   0.77127   0.27355   0.00000  Uiso   1.00
O178   O     0.54588   0.51716   0.33720   0.00000  Uiso   1.00
N179   N     0.18043   0.25152   0.68645   0.00000  Uiso   1.00
N180   N     0.08588   0.64214   0.28660   0.00000  Uiso   1.00
N181   N     0.45126   0.46107   0.33194   0.00000  Uiso   1.00
N182   N     0.19864   0.35604   0.78009   0.00000  Uiso   1.00
N183   N     0.10408   0.74666   0.38023   0.00000  Uiso   1.00
N184   N     0.46946   0.56560   0.42557   0.00000  Uiso   1.00
C185   C     0.26240   0.94234   0.42678   0.00000  Uiso   1.00
C186   C     0.27370   0.91529   0.52123   0.00000  Uiso   1.00
C187   C     0.29334   0.83433   0.54848   0.00000  Uiso   1.00
C188   C     0.30096   0.82247   0.63777   0.00000  Uiso   1.00
C189   C     0.32030   0.77033   0.77532   0.00000  Uiso   1.00
C190   C     0.29977   0.02295   0.41103   0.00000  Uiso   1.00
C191   C     0.34132   0.03250   0.34563   0.00000  Uiso   1.00
C192   C     0.37088   0.11127   0.34215   0.00000  Uiso   1.00
C193   C     0.43067   0.22628   0.30858   0.00000  Uiso   1.00
C194   C     0.19907   0.97303   0.42354   0.00000  Uiso   1.00
C195   C     0.15596   0.94064   0.36863   0.00000  Uiso   1.00
C196   C     0.10074   0.97741   0.37567   0.00000  Uiso   1.00
C197   C     0.00417   0.01492   0.36152   0.00000  Uiso   1.00
C198   C     0.24099   0.06526   0.53689   0.00000  Uiso   1.00
C199   C     0.26207   0.98206   0.58104   0.00000  Uiso   1.00
C200   C     0.26966   0.97032   0.67031   0.00000  Uiso   1.00
C201   C     0.28931   0.88936   0.69769   0.00000  Uiso   1.00
C202   C     0.28814   0.08971   0.47084   0.00000  Uiso   1.00
C203   C     0.31764   0.16849   0.46745   0.00000  Uiso   1.00
C204   C     0.35924   0.17816   0.40207   0.00000  Uiso   1.00
C205   C     0.18744   0.03980   0.48335   0.00000  Uiso   1.00
C206   C     0.13227   0.07663   0.49047   0.00000  Uiso   1.00
C207   C     0.08909   0.04429   0.43558   0.00000  Uiso   1.00
H208   H     0.27145   0.89037   0.38022   0.00000  Uiso   1.00
H209   H     0.30234   0.78268   0.50218   0.00000  Uiso   1.00
H210   H     0.35031   0.98082   0.29935   0.00000  Uiso   1.00
H211   H     0.16497   0.88897   0.32236   0.00000  Uiso   1.00
H212   H     0.33148   0.69274   0.66376   0.00000  Uiso   1.00
H213   H     0.43261   0.11054   0.23608   0.00000  Uiso   1.00
H214   H     0.04179   0.91686   0.28459   0.00000  Uiso   1.00
H215   H     0.23194   0.11725   0.58346   0.00000  Uiso   1.00
H216   H     0.26066   0.02200   0.71658   0.00000  Uiso   1.00
H217   H     0.30863   0.22015   0.51375   0.00000  Uiso   1.00
H218   H     0.12329   0.12830   0.53675   0.00000  Uiso   1.00
H219   H     0.29765   0.88698   0.83778   0.00000  Uiso   1.00
H220   H     0.39878   0.30479   0.41008   0.00000  Uiso   1.00
H221   H     0.00796   0.11111   0.45860   0.00000  Uiso   1.00
O222   O     0.33419   0.72312   0.83467   0.00000  Uiso   1.00
O223   O     0.46686   0.27127   0.27355   0.00000  Uiso   1.00
O224   O     0.95412   0.01716   0.33720   0.00000  Uiso   1.00
N225   N     0.31957   0.75152   0.68645   0.00000  Uiso   1.00
N226   N     0.41412   0.14214   0.28660   0.00000  Uiso   1.00
N227   N     0.04874   0.96107   0.33194   0.00000  Uiso   1.00
N228   N     0.30136   0.85604   0.78009   0.00000  Uiso   1.00
N229   N     0.39592   0.24666   0.38023   0.00000  Uiso   1.00
N230   N     0.03054   0.06560   0.42557   0.00000  Uiso   1.00
C231   C     0.23760   0.05766   0.92678   0.00000  Uiso   1.00
C232   C     0.22630   0.08471   0.02123   0.00000  Uiso   1.00
C233   C     0.20666   0.16567   0.04848   0.00000  Uiso   1.00
C234   C     0.19904   0.17753   0.13777   0.00000  Uiso   1.00
C235   C     0.17970   0.22967   0.27532   0.00000  Uiso   1.00
C236   C     0.20023   0.97705   0.91103   0.00000  Uiso   1.00
C237   C     0.15868   0.96750   0.84563   0.00000  Uiso   1.00
C238   C     0.12912   0.88873   0.84215   0.00000  Uiso   1.00
C239   C     0.06933   0.77372   0.80858   0.00000  Uiso   1.00
C240   C     0.30093   0.02697   0.92354   0.00000  Uiso   1.00
C241   C     0.34404   0.05936   0.86863   0.00000  Uiso   1.00
C242   C     0.39926   0.02259   0.87567   0.00000  Uiso   1.00
C243   C     0.49583   0.98508   0.86152   0.00000  Uiso   1.00
C244   C     0.25901   0.93474   0.03689   0.00000  Uiso   1.00
C245   C     0.23793   0.01794   0.08104   0.00000  Uiso   1.00
C246   C     0.23034   0.02968   0.17031   0.00000  Uiso   1.00
C247   C     0.21069   0.11064   0.19769   0.00000  Uiso   1.00
C248   C     0.21186   0.91029   0.97084   0.00000  Uiso   1.00
C249   C     0.18236   0.83151   0.96745   0.00000  Uiso   1.00
C250   C     0.14076   0.82184   0.90207   0.00000  Uiso   1.00
C251   C     0.31256   0.96020   0.98335   0.00000  Uiso   1.00
C252   C     0.36773   0.92337   0.99047   0.00000  Uiso   1.00
C253   C     0.41091   0.95571   0.93558   0.00000  Uiso   1.00
H254   H     0.22855   0.10963   0.88022   0.00000  Uiso   1.00
H255   H     0.19766   0.21732   0.00218   0.00000  Uiso   1.00
H256   H     0.14969   0.01918   0.79935   0.00000  Uiso   1.00
H257   H     0.33503   0.11103   0.82236   0.00000  Uiso   1.00
H258   H     0.16852   0.30726   0.16376   0.00000  Uiso   1.00
H259   H     0.06739   0.88946   0.73608   0.00000  Uiso   1.00
H260   H     0.45821   0.08314   0.78459   0.00000  Uiso   1.00
H261   H     0.26806   0.88275   0.08346   0.00000  Uiso   1.00
H262   H     0.23934   0.97800   0.21658   0.00000  Uiso   1.00
H263   H     0.19137   0.77985   0.01375   0.00000  Uiso   1.00
H264   H     0.37671   0.87170   0.03675   0.00000  Uiso   1.00
H265   H     0.20235   0.11302   0.33778   0.00000  Uiso   1.00
H266   H     0.10122   0.69521   0.91008   0.00000  Uiso   1.00
H267   H     0.49204   0.88889   0.95860   0.00000  Uiso   1.00
O268   O     0.16581   0.27688   0.33467   0.00000  Uiso   1.00
O269   O     0.03314   0.72873   0.77355   0.00000  Uiso   1.00
O270   O     0.54588   0.98284   0.83720   0.00000  Uiso   1.00
N271   N     0.18043   0.24848   0.18645   0.00000  Uiso   1.00
N272   N     0.08588   0.85786   0.78660   0.00000  Uiso   1.00
N273   N     0.45126   0.03893   0.83194   0.00000  Uiso   1.00
N274   N     0.19864   0.14396   0.28009   0.00000  Uiso   1.00
N275   N     0.10408   0.75334   0.88023   0.00000  Uiso   1.00
N276   N     0.46946   0.93440   0.92557   0.00000  Uiso   1.00
C277   C     0.73760   0.44234   0.07322   0.00000  Uiso   1.00
C278   C     0.72630   0.41529   0.97877   0.00000  Uiso   1.00
C279   C     0.70666   0.33433   0.95152   0.00000  Uiso   1.00
C280   C     0.69904   0.32247   0.86223   0.00000  Uiso   1.00
C281   C     0.67970   0.27033   0.72468   0.00000  Uiso   1.00
C282   C     0.70023   0.52295   0.08897   0.00000  Uiso   1.00
C283   C     0.65868   0.53250   0.15437   0.00000  Uiso   1.00
C284   C     0.62912   0.61127   0.15785   0.00000  Uiso   1.00
C285   C     0.56933   0.72628   0.19142   0.00000  Uiso   1.00
C286   C     0.80093   0.47303   0.07646   0.00000  Uiso   1.00
C287   C     0.84404   0.44064   0.13137   0.00000  Uiso   1.00
C288   C     0.89926   0.47741   0.12433   0.00000  Uiso   1.00
C289   C     0.99583   0.51492   0.13848   0.00000  Uiso   1.00
C290   C     0.75901   0.56526   0.96311   0.00000  Uiso   1.00
C291   C     0.73793   0.48206   0.91896   0.00000  Uiso   1.00
C292   C     0.73034   0.47032   0.82969   0.00000  Uiso   1.00
C293   C     0.71069   0.38936   0.80231   0.00000  Uiso   1.00
C294   C     0.71186   0.58971   0.02916   0.00000  Uiso   1.00
C295   C     0.68236   0.66849   0.03255   0.00000  Uiso   1.00
C296   C     0.64076   0.67816   0.09793   0.00000  Uiso   1.00
C297   C     0.81256   0.53980   0.01665   0.00000  Uiso   1.00
C298   C     0.86773   0.57663   0.00953   0.00000  Uiso   1.00
C299   C     0.91091   0.54429   0.06442   0.00000  Uiso   1.00
H300   H     0.72855   0.39037   0.11978   0.00000  Uiso   1.00
H301   H     0.69766   0.28268   0.99782   0.00000  Uiso   1.00
H302   H     0.64969   0.48082   0.20065   0.00000  Uiso   1.00
H303   H     0.83503   0.38897   0.17764   0.00000  Uiso   1.00
H304   H     0.66852   0.19274   0.83624   0.00000  Uiso   1.00
H305   H     0.56739   0.61054   0.26392   0.00000  Uiso   1.00
H306   H     0.95821   0.41686   0.21541   0.00000  Uiso   1.00
H307   H     0.76806   0.61725   0.91654   0.00000  Uiso   1.00
H308   H     0.73934   0.52200   0.78342   0.00000  Uiso   1.00
H309   H     0.69137   0.72015   0.98625   0.00000  Uiso   1.00
H310   H     0.87671   0.62830   0.96325   0.00000  Uiso   1.00
H311   H     0.70235   0.38698   0.66222   0.00000  Uiso   1.00
H312   H     0.60122   0.80479   0.08992   0.00000  Uiso   1.00
H313   H     0.99204   0.61111   0.04140   0.00000  Uiso   1.00
O314   O     0.66581   0.22312   0.66533   0.00000  Uiso   1.00
O315   O     0.53314   0.77127   0.22645   0.00000  Uiso   1.00
O316   O     0.04588   0.51716   0.16280   0.00000  Uiso   1.00
N317   N     0.68043   0.25152   0.81355   0.00000  Uiso   1.00
N318   N     0.58588   0.64214   0.21340   0.00000  Uiso   1.00
N319   N     0.95126   0.46107   0.16806   0.00000  Uiso   1.00
N320   N     0.69864   0.35604   0.71991   0.00000  Uiso   1.00
N321   N     0.60408   0.74666   0.11977   0.00000  Uiso   1.00
N322   N     0.96946   0.56560   0.07443   0.00000  Uiso   1.00
C323   C     0.76240   0.55766   0.57322   0.00000  Uiso   1.00
C324   C     0.77370   0.58471   0.47877   0.00000  Uiso   1.00
C325   C     0.79334   0.66567   0.45152   0.00000  Uiso   1.00
C326   C     0.80096   0.67753   0.36223   0.00000  Uiso   1.00
C327   C     0.82030   0.72967   0.22468   0.00000  Uiso   1.00
C328   C     0.79977   0.47705   0.58897   0.00000  Uiso   1.00
C329   C     0.84132   0.46750   0.65437   0.00000  Uiso   1.00
C330   C     0.87088   0.38873   0.65785   0.00000  Uiso   1.00
C331   C     0.93067   0.27372   0.69142   0.00000  Uiso   1.00
C332   C     0.69907   0.52697   0.57646   0.00000  Uiso   1.00
C333   C     0.65596   0.55936   0.63137   0.00000  Uiso   1.00
C334   C     0.60074   0.52259   0.62433   0.00000  Uiso   1.00
C335   C     0.50417   0.48508   0.63848   0.00000  Uiso   1.00
C336   C     0.74099   0.43474   0.46311   0.00000  Uiso   1.00
C337   C     0.76207   0.51794   0.41896   0.00000  Uiso   1.00
C338   C     0.76966   0.52968   0.32969   0.00000  Uiso   1.00
C339   C     0.78931   0.61064   0.30231   0.00000  Uiso   1.00
C340   C     0.78814   0.41029   0.52916   0.00000  Uiso   1.00
C341   C     0.81764   0.33151   0.53255   0.00000  Uiso   1.00
C342   C     0.85924   0.32184   0.59793   0.00000  Uiso   1.00
C343   C     0.68744   0.46020   0.51665   0.00000  Uiso   1.00
C344   C     0.63227   0.42337   0.50953   0.00000  Uiso   1.00
C345   C     0.58909   0.45571   0.56442   0.00000  Uiso   1.00
H346   H     0.77145   0.60963   0.61978   0.00000  Uiso   1.00
H347   H     0.80234   0.71732   0.49782   0.00000  Uiso   1.00
H348   H     0.85031   0.51918   0.70065   0.00000  Uiso   1.00
H349   H     0.66497   0.61103   0.67764   0.00000  Uiso   1.00
H350   H     0.83148   0.80726   0.33624   0.00000  Uiso   1.00
H351   H     0.93261   0.38946   0.76392   0.00000  Uiso   1.00
H352   H     0.54179   0.58314   0.71541   0.00000  Uiso   1.00
H353   H     0.73194   0.38275   0.41654   0.00000  Uiso   1.00
H354   H     0.76066   0.47800   0.28342   0.00000  Uiso   1.00
H355   H     0.80863   0.27985   0.48625   0.00000  Uiso   1.00
H356   H     0.62329   0.37170   0.46325   0.00000  Uiso   1.00
H357   H     0.79765   0.61302   0.16222   0.00000  Uiso   1.00
H358   H     0.89878   0.19521   0.58992   0.00000  Uiso   1.00
H359   H     0.50796   0.38889   0.54140   0.00000  Uiso   1.00
O360   O     0.83419   0.77688   0.16533   0.00000  Uiso   1.00
O361   O     0.96686   0.22873   0.72645   0.00000  Uiso   1.00
O362   O     0.45412   0.48284   0.66280   0.00000  Uiso   1.00
N363   N     0.81957   0.74848   0.31355   0.00000  Uiso   1.00
N364   N     0.91412   0.35786   0.71340   0.00000  Uiso   1.00
N365   N     0.54874   0.53892   0.66806   0.00000  Uiso   1.00
N366   N     0.80136   0.64396   0.21991   0.00000  Uiso   1.00
N367   N     0.89592   0.25334   0.61977   0.00000  Uiso   1.00
N368   N     0.53054   0.43440   0.57443   0.00000  Uiso   1.00
