data_job_05292
_audit_creation_date              2018-12-19
_audit_creation_method            'Materials Studio'
_symmetry_space_group_name_H-M    'P1'
_symmetry_Int_Tables_number       1
_symmetry_cell_setting            triclinic
loop_
_symmetry_equiv_pos_as_xyz
  x,y,z
_cell_length_a                    12.5194
_cell_length_b                    13.6033
_cell_length_c                    17.1593
_cell_angle_alpha                 90.0000
_cell_angle_beta                  72.5697
_cell_angle_gamma                 90.0000
loop_
_atom_site_label
_atom_site_type_symbol
_atom_site_fract_x
_atom_site_fract_y
_atom_site_fract_z
_atom_site_U_iso_or_equiv
_atom_site_adp_type
_atom_site_occupancy
C1     C     0.10136   0.79615   0.60478   0.00000  Uiso   1.00
C2     C     0.16980   0.88632   0.56705   0.00000  Uiso   1.00
C3     C     0.14187   0.98323   0.58930   0.00000  Uiso   1.00
C4     C     0.21549   0.05519   0.54741   0.00000  Uiso   1.00
C5     C     0.30682   0.19888   0.49821   0.00000  Uiso   1.00
C6     C     0.07820   0.74083   0.53425   0.00000  Uiso   1.00
C7     C     0.97325   0.71540   0.52893   0.00000  Uiso   1.00
C8     C     0.96978   0.66487   0.45943   0.00000  Uiso   1.00
C9     C     0.91891   0.58262   0.35934   0.00000  Uiso   1.00
C10    C     0.17973   0.73079   0.63494   0.00000  Uiso   1.00
C11    C     0.16014   0.69689   0.71428   0.00000  Uiso   1.00
C12    C     0.24214   0.63788   0.72955   0.00000  Uiso   1.00
C13    C     0.34890   0.54004   0.78579   0.00000  Uiso   1.00
C14    C     0.28180   0.75162   0.49082   0.00000  Uiso   1.00
C15    C     0.26780   0.86213   0.50515   0.00000  Uiso   1.00
C16    C     0.34150   0.93395   0.46321   0.00000  Uiso   1.00
C17    C     0.31368   0.03095   0.48540   0.00000  Uiso   1.00
C18    C     0.17620   0.71664   0.47235   0.00000  Uiso   1.00
C19    C     0.17289   0.66613   0.40285   0.00000  Uiso   1.00
C20    C     0.06796   0.64063   0.39742   0.00000  Uiso   1.00
C21    C     0.27774   0.70660   0.57304   0.00000  Uiso   1.00
C22    C     0.35978   0.64762   0.58819   0.00000  Uiso   1.00
C23    C     0.34032   0.61365   0.66753   0.00000  Uiso   1.00
H24    H     0.02506   0.81498   0.65297   0.00000  Uiso   1.00
H25    H     0.06601   0.00192   0.63720   0.00000  Uiso   1.00
H26    H     0.89743   0.73412   0.57685   0.00000  Uiso   1.00
H27    H     0.08429   0.71563   0.76216   0.00000  Uiso   1.00
H28    H     0.15460   0.19851   0.59240   0.00000  Uiso   1.00
H29    H     0.79915   0.63382   0.46515   0.00000  Uiso   1.00
H30    H     0.19318   0.59480   0.85593   0.00000  Uiso   1.00
H31    H     0.35810   0.73278   0.44262   0.00000  Uiso   1.00
H32    H     0.41733   0.91521   0.41531   0.00000  Uiso   1.00
H33    H     0.24875   0.64742   0.35496   0.00000  Uiso   1.00
H34    H     0.43561   0.62892   0.54027   0.00000  Uiso   1.00
H35    H     0.43975   0.12813   0.41230   0.00000  Uiso   1.00
H36    H     0.08429   0.56344   0.28506   0.00000  Uiso   1.00
H37    H     0.47832   0.52443   0.67583   0.00000  Uiso   1.00
O38    O     0.33011   0.28482   0.48816   0.00000  Uiso   1.00
O39    O     0.86377   0.54395   0.32123   0.00000  Uiso   1.00
O40    O     0.38072   0.49277   0.83391   0.00000  Uiso   1.00
N41    N     0.21360   0.15691   0.55377   0.00000  Uiso   1.00
N42    N     0.88126   0.62897   0.43480   0.00000  Uiso   1.00
N43    N     0.24963   0.59247   0.80014   0.00000  Uiso   1.00
N44    N     0.36703   0.11904   0.45687   0.00000  Uiso   1.00
N45    N     0.03470   0.59110   0.33789   0.00000  Uiso   1.00
N46    N     0.40307   0.55460   0.70323   0.00000  Uiso   1.00
C47    C     0.89864   0.79615   0.89522   0.00000  Uiso   1.00
C48    C     0.83020   0.88632   0.93295   0.00000  Uiso   1.00
C49    C     0.85813   0.98323   0.91070   0.00000  Uiso   1.00
C50    C     0.78451   0.05519   0.95259   0.00000  Uiso   1.00
C51    C     0.69318   0.19888   0.00179   0.00000  Uiso   1.00
C52    C     0.92180   0.74083   0.96575   0.00000  Uiso   1.00
C53    C     0.02675   0.71540   0.97107   0.00000  Uiso   1.00
C54    C     0.03022   0.66487   0.04057   0.00000  Uiso   1.00
C55    C     0.08109   0.58262   0.14066   0.00000  Uiso   1.00
C56    C     0.82027   0.73079   0.86506   0.00000  Uiso   1.00
C57    C     0.83986   0.69689   0.78572   0.00000  Uiso   1.00
C58    C     0.75786   0.63788   0.77045   0.00000  Uiso   1.00
C59    C     0.65110   0.54004   0.71421   0.00000  Uiso   1.00
C60    C     0.71820   0.75162   0.00918   0.00000  Uiso   1.00
C61    C     0.73220   0.86213   0.99485   0.00000  Uiso   1.00
C62    C     0.65850   0.93395   0.03679   0.00000  Uiso   1.00
C63    C     0.68632   0.03095   0.01460   0.00000  Uiso   1.00
C64    C     0.82380   0.71664   0.02765   0.00000  Uiso   1.00
C65    C     0.82711   0.66613   0.09715   0.00000  Uiso   1.00
C66    C     0.93204   0.64063   0.10258   0.00000  Uiso   1.00
C67    C     0.72226   0.70660   0.92696   0.00000  Uiso   1.00
C68    C     0.64022   0.64762   0.91181   0.00000  Uiso   1.00
C69    C     0.65968   0.61365   0.83247   0.00000  Uiso   1.00
H70    H     0.97494   0.81498   0.84703   0.00000  Uiso   1.00
H71    H     0.93399   0.00192   0.86280   0.00000  Uiso   1.00
H72    H     0.10257   0.73412   0.92315   0.00000  Uiso   1.00
H73    H     0.91571   0.71563   0.73784   0.00000  Uiso   1.00
H74    H     0.84540   0.19851   0.90760   0.00000  Uiso   1.00
H75    H     0.20085   0.63382   0.03485   0.00000  Uiso   1.00
H76    H     0.80682   0.59480   0.64407   0.00000  Uiso   1.00
H77    H     0.64190   0.73278   0.05738   0.00000  Uiso   1.00
H78    H     0.58267   0.91521   0.08469   0.00000  Uiso   1.00
H79    H     0.75125   0.64742   0.14504   0.00000  Uiso   1.00
H80    H     0.56439   0.62892   0.95973   0.00000  Uiso   1.00
H81    H     0.56025   0.12813   0.08770   0.00000  Uiso   1.00
H82    H     0.91571   0.56344   0.21494   0.00000  Uiso   1.00
H83    H     0.52168   0.52443   0.82417   0.00000  Uiso   1.00
O84    O     0.66989   0.28482   0.01184   0.00000  Uiso   1.00
O85    O     0.13623   0.54395   0.17877   0.00000  Uiso   1.00
O86    O     0.61928   0.49277   0.66609   0.00000  Uiso   1.00
N87    N     0.78640   0.15691   0.94623   0.00000  Uiso   1.00
N88    N     0.11874   0.62897   0.06520   0.00000  Uiso   1.00
N89    N     0.75037   0.59247   0.69986   0.00000  Uiso   1.00
N90    N     0.63297   0.11904   0.04313   0.00000  Uiso   1.00
N91    N     0.96530   0.59110   0.16211   0.00000  Uiso   1.00
N92    N     0.59693   0.55460   0.79677   0.00000  Uiso   1.00
C93    C     0.89864   0.20385   0.39522   0.00000  Uiso   1.00
C94    C     0.83020   0.11368   0.43295   0.00000  Uiso   1.00
C95    C     0.85813   0.01677   0.41070   0.00000  Uiso   1.00
C96    C     0.78451   0.94481   0.45259   0.00000  Uiso   1.00
C97    C     0.69318   0.80112   0.50179   0.00000  Uiso   1.00
C98    C     0.92180   0.25917   0.46575   0.00000  Uiso   1.00
C99    C     0.02675   0.28460   0.47107   0.00000  Uiso   1.00
C100   C     0.03022   0.33513   0.54057   0.00000  Uiso   1.00
C101   C     0.08109   0.41738   0.64066   0.00000  Uiso   1.00
C102   C     0.82027   0.26921   0.36506   0.00000  Uiso   1.00
C103   C     0.83986   0.30311   0.28572   0.00000  Uiso   1.00
C104   C     0.75786   0.36212   0.27045   0.00000  Uiso   1.00
C105   C     0.65110   0.45996   0.21421   0.00000  Uiso   1.00
C106   C     0.71820   0.24838   0.50918   0.00000  Uiso   1.00
C107   C     0.73220   0.13787   0.49485   0.00000  Uiso   1.00
C108   C     0.65850   0.06605   0.53679   0.00000  Uiso   1.00
C109   C     0.68632   0.96905   0.51460   0.00000  Uiso   1.00
C110   C     0.82380   0.28336   0.52765   0.00000  Uiso   1.00
C111   C     0.82711   0.33387   0.59715   0.00000  Uiso   1.00
C112   C     0.93204   0.35937   0.60258   0.00000  Uiso   1.00
C113   C     0.72226   0.29340   0.42696   0.00000  Uiso   1.00
C114   C     0.64022   0.35238   0.41181   0.00000  Uiso   1.00
C115   C     0.65968   0.38635   0.33247   0.00000  Uiso   1.00
H116   H     0.97494   0.18502   0.34703   0.00000  Uiso   1.00
H117   H     0.93399   0.99808   0.36280   0.00000  Uiso   1.00
H118   H     0.10257   0.26588   0.42315   0.00000  Uiso   1.00
H119   H     0.91571   0.28437   0.23784   0.00000  Uiso   1.00
H120   H     0.84540   0.80149   0.40760   0.00000  Uiso   1.00
H121   H     0.20085   0.36618   0.53485   0.00000  Uiso   1.00
H122   H     0.80682   0.40520   0.14407   0.00000  Uiso   1.00
H123   H     0.64190   0.26722   0.55738   0.00000  Uiso   1.00
H124   H     0.58267   0.08479   0.58469   0.00000  Uiso   1.00
H125   H     0.75125   0.35258   0.64504   0.00000  Uiso   1.00
H126   H     0.56439   0.37108   0.45973   0.00000  Uiso   1.00
H127   H     0.56025   0.87187   0.58770   0.00000  Uiso   1.00
H128   H     0.91571   0.43656   0.71494   0.00000  Uiso   1.00
H129   H     0.52168   0.47557   0.32417   0.00000  Uiso   1.00
O130   O     0.66989   0.71518   0.51184   0.00000  Uiso   1.00
O131   O     0.13623   0.45605   0.67877   0.00000  Uiso   1.00
O132   O     0.61928   0.50723   0.16609   0.00000  Uiso   1.00
N133   N     0.78640   0.84309   0.44623   0.00000  Uiso   1.00
N134   N     0.11874   0.37103   0.56520   0.00000  Uiso   1.00
N135   N     0.75037   0.40753   0.19986   0.00000  Uiso   1.00
N136   N     0.63297   0.88096   0.54313   0.00000  Uiso   1.00
N137   N     0.96530   0.40890   0.66211   0.00000  Uiso   1.00
N138   N     0.59693   0.44540   0.29677   0.00000  Uiso   1.00
C139   C     0.10136   0.20385   0.10478   0.00000  Uiso   1.00
C140   C     0.16980   0.11368   0.06705   0.00000  Uiso   1.00
C141   C     0.14187   0.01677   0.08930   0.00000  Uiso   1.00
C142   C     0.21549   0.94481   0.04741   0.00000  Uiso   1.00
C143   C     0.30682   0.80112   0.99821   0.00000  Uiso   1.00
C144   C     0.07820   0.25917   0.03425   0.00000  Uiso   1.00
C145   C     0.97325   0.28460   0.02893   0.00000  Uiso   1.00
C146   C     0.96978   0.33513   0.95943   0.00000  Uiso   1.00
C147   C     0.91891   0.41738   0.85934   0.00000  Uiso   1.00
C148   C     0.17973   0.26921   0.13494   0.00000  Uiso   1.00
C149   C     0.16014   0.30311   0.21428   0.00000  Uiso   1.00
C150   C     0.24214   0.36212   0.22955   0.00000  Uiso   1.00
C151   C     0.34890   0.45996   0.28579   0.00000  Uiso   1.00
C152   C     0.28180   0.24838   0.99082   0.00000  Uiso   1.00
C153   C     0.26780   0.13787   0.00515   0.00000  Uiso   1.00
C154   C     0.34150   0.06605   0.96321   0.00000  Uiso   1.00
C155   C     0.31368   0.96905   0.98540   0.00000  Uiso   1.00
C156   C     0.17620   0.28336   0.97235   0.00000  Uiso   1.00
C157   C     0.17289   0.33387   0.90285   0.00000  Uiso   1.00
C158   C     0.06796   0.35937   0.89742   0.00000  Uiso   1.00
C159   C     0.27774   0.29340   0.07304   0.00000  Uiso   1.00
C160   C     0.35978   0.35238   0.08819   0.00000  Uiso   1.00
C161   C     0.34032   0.38635   0.16753   0.00000  Uiso   1.00
H162   H     0.02506   0.18502   0.15297   0.00000  Uiso   1.00
H163   H     0.06601   0.99808   0.13720   0.00000  Uiso   1.00
H164   H     0.89743   0.26588   0.07685   0.00000  Uiso   1.00
H165   H     0.08429   0.28437   0.26216   0.00000  Uiso   1.00
H166   H     0.15460   0.80149   0.09240   0.00000  Uiso   1.00
H167   H     0.79915   0.36618   0.96515   0.00000  Uiso   1.00
H168   H     0.19318   0.40520   0.35593   0.00000  Uiso   1.00
H169   H     0.35810   0.26722   0.94262   0.00000  Uiso   1.00
H170   H     0.41733   0.08479   0.91531   0.00000  Uiso   1.00
H171   H     0.24875   0.35258   0.85496   0.00000  Uiso   1.00
H172   H     0.43561   0.37108   0.04027   0.00000  Uiso   1.00
H173   H     0.43975   0.87187   0.91230   0.00000  Uiso   1.00
H174   H     0.08429   0.43656   0.78506   0.00000  Uiso   1.00
H175   H     0.47832   0.47557   0.17583   0.00000  Uiso   1.00
O176   O     0.33011   0.71518   0.98816   0.00000  Uiso   1.00
O177   O     0.86377   0.45605   0.82123   0.00000  Uiso   1.00
O178   O     0.38072   0.50723   0.33391   0.00000  Uiso   1.00
N179   N     0.21360   0.84309   0.05377   0.00000  Uiso   1.00
N180   N     0.88126   0.37103   0.93480   0.00000  Uiso   1.00
N181   N     0.24963   0.40753   0.30014   0.00000  Uiso   1.00
N182   N     0.36703   0.88096   0.95687   0.00000  Uiso   1.00
N183   N     0.03470   0.40890   0.83789   0.00000  Uiso   1.00
N184   N     0.40307   0.44540   0.20323   0.00000  Uiso   1.00
