data_job_01566
_audit_creation_date              2018-12-19
_audit_creation_method            'Materials Studio'
_symmetry_space_group_name_H-M    'P1'
_symmetry_Int_Tables_number       1
_symmetry_cell_setting            triclinic
loop_
_symmetry_equiv_pos_as_xyz
  x,y,z
_cell_length_a                    17.6936
_cell_length_b                    12.4373
_cell_length_c                    23.7176
_cell_angle_alpha                 90.0000
_cell_angle_beta                  30.2737
_cell_angle_gamma                 90.0000
loop_
_atom_site_label
_atom_site_type_symbol
_atom_site_fract_x
_atom_site_fract_y
_atom_site_fract_z
_atom_site_U_iso_or_equiv
_atom_site_adp_type
_atom_site_occupancy
C1     C     0.78806   0.72041   0.88730   0.00000  Uiso   1.00
C2     C     0.73099   0.83598   0.92402   0.00000  Uiso   1.00
C3     C     0.58161   0.86718   0.02010   0.00000  Uiso   1.00
C4     C     0.55257   0.97685   0.03879   0.00000  Uiso   1.00
C5     C     0.44627   0.14480   0.10716   0.00000  Uiso   1.00
C6     C     0.89031   0.71038   0.77016   0.00000  Uiso   1.00
C7     C     0.87489   0.63595   0.73688   0.00000  Uiso   1.00
C8     C     0.97998   0.63988   0.62604   0.00000  Uiso   1.00
C9     C     0.12109   0.61278   0.45552   0.00000  Uiso   1.00
C10    C     0.88957   0.71032   0.87335   0.00000  Uiso   1.00
C11    C     0.87357   0.63582   0.92681   0.00000  Uiso   1.00
C12    C     0.97807   0.63969   0.90282   0.00000  Uiso   1.00
C13    C     0.11804   0.61249   0.89252   0.00000  Uiso   1.00
C14    C     0.00212   0.85971   0.74961   0.00000  Uiso   1.00
C15    C     0.84726   0.91164   0.84923   0.00000  Uiso   1.00
C16    C     0.81845   0.02130   0.86778   0.00000  Uiso   1.00
C17    C     0.66905   0.05265   0.96387   0.00000  Uiso   1.00
C18    C     0.00657   0.78604   0.69538   0.00000  Uiso   1.00
C19    C     0.11172   0.79007   0.58455   0.00000  Uiso   1.00
C20    C     0.09646   0.71568   0.55112   0.00000  Uiso   1.00
C21    C     0.00585   0.78598   0.79857   0.00000  Uiso   1.00
C22    C     0.11040   0.78995   0.77448   0.00000  Uiso   1.00
C23    C     0.09455   0.71549   0.82790   0.00000  Uiso   1.00
H24    H     0.69754   0.66150   0.94551   0.00000  Uiso   1.00
H25    H     0.49166   0.80860   0.07795   0.00000  Uiso   1.00
H26    H     0.78491   0.57740   0.79477   0.00000  Uiso   1.00
H27    H     0.78358   0.57729   0.98467   0.00000  Uiso   1.00
H28    H     0.31468   0.00505   0.19179   0.00000  Uiso   1.00
H29    H     0.93303   0.51755   0.59467   0.00000  Uiso   1.00
H30    H     0.93024   0.51729   0.99512   0.00000  Uiso   1.00
H31    H     0.09265   0.91862   0.69139   0.00000  Uiso   1.00
H32    H     0.90845   0.07983   0.80989   0.00000  Uiso   1.00
H33    H     0.20169   0.84864   0.52670   0.00000  Uiso   1.00
H34    H     0.20036   0.84852   0.71661   0.00000  Uiso   1.00
H35    H     0.65296   0.22519   0.97422   0.00000  Uiso   1.00
H36    H     0.27132   0.73768   0.37710   0.00000  Uiso   1.00
H37    H     0.26852   0.73743   0.77754   0.00000  Uiso   1.00
O38    O     0.35552   0.21653   0.16552   0.00000  Uiso   1.00
O39    O     0.16679   0.57693   0.38213   0.00000  Uiso   1.00
O40    O     0.16311   0.57660   0.90750   0.00000  Uiso   1.00
N41    N     0.41958   0.03474   0.12433   0.00000  Uiso   1.00
N42    N     0.99768   0.57896   0.56607   0.00000  Uiso   1.00
N43    N     0.99509   0.57870   0.94043   0.00000  Uiso   1.00
N44    N     0.60160   0.15319   0.00726   0.00000  Uiso   1.00
N45    N     0.17971   0.69742   0.44899   0.00000  Uiso   1.00
N46    N     0.17712   0.69716   0.82335   0.00000  Uiso   1.00
C47    C     0.21194   0.22041   0.61270   0.00000  Uiso   1.00
C48    C     0.26901   0.33598   0.57598   0.00000  Uiso   1.00
C49    C     0.41839   0.36718   0.47990   0.00000  Uiso   1.00
C50    C     0.44743   0.47685   0.46121   0.00000  Uiso   1.00
C51    C     0.55373   0.64480   0.39284   0.00000  Uiso   1.00
C52    C     0.10969   0.21038   0.72984   0.00000  Uiso   1.00
C53    C     0.12511   0.13595   0.76312   0.00000  Uiso   1.00
C54    C     0.02002   0.13988   0.87396   0.00000  Uiso   1.00
C55    C     0.87891   0.11278   0.04448   0.00000  Uiso   1.00
C56    C     0.11043   0.21032   0.62665   0.00000  Uiso   1.00
C57    C     0.12643   0.13582   0.57319   0.00000  Uiso   1.00
C58    C     0.02193   0.13969   0.59718   0.00000  Uiso   1.00
C59    C     0.88196   0.11249   0.60748   0.00000  Uiso   1.00
C60    C     0.99788   0.35971   0.75039   0.00000  Uiso   1.00
C61    C     0.15274   0.41164   0.65077   0.00000  Uiso   1.00
C62    C     0.18155   0.52130   0.63222   0.00000  Uiso   1.00
C63    C     0.33095   0.55265   0.53613   0.00000  Uiso   1.00
C64    C     0.99343   0.28604   0.80462   0.00000  Uiso   1.00
C65    C     0.88828   0.29007   0.91545   0.00000  Uiso   1.00
C66    C     0.90354   0.21568   0.94888   0.00000  Uiso   1.00
C67    C     0.99415   0.28598   0.70143   0.00000  Uiso   1.00
C68    C     0.88960   0.28995   0.72552   0.00000  Uiso   1.00
C69    C     0.90545   0.21549   0.67210   0.00000  Uiso   1.00
H70    H     0.30246   0.16150   0.55449   0.00000  Uiso   1.00
H71    H     0.50834   0.30860   0.42205   0.00000  Uiso   1.00
H72    H     0.21509   0.07740   0.70523   0.00000  Uiso   1.00
H73    H     0.21642   0.07729   0.51533   0.00000  Uiso   1.00
H74    H     0.68532   0.50505   0.30821   0.00000  Uiso   1.00
H75    H     0.06697   0.01755   0.90533   0.00000  Uiso   1.00
H76    H     0.06976   0.01729   0.50488   0.00000  Uiso   1.00
H77    H     0.90735   0.41862   0.80861   0.00000  Uiso   1.00
H78    H     0.09155   0.57983   0.69011   0.00000  Uiso   1.00
H79    H     0.79831   0.34864   0.97330   0.00000  Uiso   1.00
H80    H     0.79964   0.34852   0.78339   0.00000  Uiso   1.00
H81    H     0.34704   0.72519   0.52578   0.00000  Uiso   1.00
H82    H     0.72868   0.23768   0.12290   0.00000  Uiso   1.00
H83    H     0.73148   0.23743   0.72246   0.00000  Uiso   1.00
O84    O     0.64448   0.71653   0.33448   0.00000  Uiso   1.00
O85    O     0.83321   0.07693   0.11787   0.00000  Uiso   1.00
O86    O     0.83689   0.07660   0.59250   0.00000  Uiso   1.00
N87    N     0.58042   0.53474   0.37567   0.00000  Uiso   1.00
N88    N     0.00232   0.07896   0.93393   0.00000  Uiso   1.00
N89    N     0.00491   0.07870   0.55957   0.00000  Uiso   1.00
N90    N     0.39840   0.65319   0.49274   0.00000  Uiso   1.00
N91    N     0.82029   0.19742   0.05101   0.00000  Uiso   1.00
N92    N     0.82288   0.19716   0.67665   0.00000  Uiso   1.00
C93    C     0.21194   0.27959   0.11270   0.00000  Uiso   1.00
C94    C     0.26901   0.16402   0.07598   0.00000  Uiso   1.00
C95    C     0.41839   0.13282   0.97990   0.00000  Uiso   1.00
C96    C     0.44743   0.02315   0.96121   0.00000  Uiso   1.00
C97    C     0.55373   0.85520   0.89284   0.00000  Uiso   1.00
C98    C     0.10969   0.28962   0.22984   0.00000  Uiso   1.00
C99    C     0.12511   0.36405   0.26312   0.00000  Uiso   1.00
C100   C     0.02002   0.36012   0.37396   0.00000  Uiso   1.00
C101   C     0.87891   0.38722   0.54448   0.00000  Uiso   1.00
C102   C     0.11043   0.28968   0.12665   0.00000  Uiso   1.00
C103   C     0.12643   0.36418   0.07319   0.00000  Uiso   1.00
C104   C     0.02193   0.36031   0.09718   0.00000  Uiso   1.00
C105   C     0.88196   0.38751   0.10748   0.00000  Uiso   1.00
C106   C     0.99788   0.14029   0.25039   0.00000  Uiso   1.00
C107   C     0.15274   0.08836   0.15077   0.00000  Uiso   1.00
C108   C     0.18155   0.97870   0.13222   0.00000  Uiso   1.00
C109   C     0.33095   0.94735   0.03613   0.00000  Uiso   1.00
C110   C     0.99343   0.21396   0.30462   0.00000  Uiso   1.00
C111   C     0.88828   0.20993   0.41545   0.00000  Uiso   1.00
C112   C     0.90354   0.28432   0.44888   0.00000  Uiso   1.00
C113   C     0.99415   0.21402   0.20143   0.00000  Uiso   1.00
C114   C     0.88960   0.21005   0.22552   0.00000  Uiso   1.00
C115   C     0.90545   0.28451   0.17210   0.00000  Uiso   1.00
H116   H     0.30246   0.33850   0.05449   0.00000  Uiso   1.00
H117   H     0.50834   0.19140   0.92205   0.00000  Uiso   1.00
H118   H     0.21509   0.42260   0.20523   0.00000  Uiso   1.00
H119   H     0.21642   0.42271   0.01533   0.00000  Uiso   1.00
H120   H     0.68532   0.99495   0.80821   0.00000  Uiso   1.00
H121   H     0.06697   0.48245   0.40533   0.00000  Uiso   1.00
H122   H     0.06976   0.48271   0.00488   0.00000  Uiso   1.00
H123   H     0.90735   0.08138   0.30861   0.00000  Uiso   1.00
H124   H     0.09155   0.92017   0.19011   0.00000  Uiso   1.00
H125   H     0.79831   0.15136   0.47330   0.00000  Uiso   1.00
H126   H     0.79964   0.15148   0.28339   0.00000  Uiso   1.00
H127   H     0.34704   0.77481   0.02578   0.00000  Uiso   1.00
H128   H     0.72868   0.26232   0.62290   0.00000  Uiso   1.00
H129   H     0.73148   0.26257   0.22246   0.00000  Uiso   1.00
O130   O     0.64448   0.78347   0.83448   0.00000  Uiso   1.00
O131   O     0.83321   0.42307   0.61787   0.00000  Uiso   1.00
O132   O     0.83689   0.42340   0.09250   0.00000  Uiso   1.00
N133   N     0.58042   0.96526   0.87567   0.00000  Uiso   1.00
N134   N     0.00232   0.42104   0.43393   0.00000  Uiso   1.00
N135   N     0.00491   0.42130   0.05957   0.00000  Uiso   1.00
N136   N     0.39840   0.84681   0.99274   0.00000  Uiso   1.00
N137   N     0.82029   0.30258   0.55101   0.00000  Uiso   1.00
N138   N     0.82288   0.30284   0.17665   0.00000  Uiso   1.00
C139   C     0.78806   0.77959   0.38730   0.00000  Uiso   1.00
C140   C     0.73099   0.66402   0.42402   0.00000  Uiso   1.00
C141   C     0.58161   0.63282   0.52010   0.00000  Uiso   1.00
C142   C     0.55257   0.52315   0.53879   0.00000  Uiso   1.00
C143   C     0.44627   0.35520   0.60716   0.00000  Uiso   1.00
C144   C     0.89031   0.78962   0.27016   0.00000  Uiso   1.00
C145   C     0.87489   0.86405   0.23688   0.00000  Uiso   1.00
C146   C     0.97998   0.86012   0.12604   0.00000  Uiso   1.00
C147   C     0.12109   0.88722   0.95552   0.00000  Uiso   1.00
C148   C     0.88957   0.78968   0.37335   0.00000  Uiso   1.00
C149   C     0.87357   0.86418   0.42681   0.00000  Uiso   1.00
C150   C     0.97807   0.86031   0.40282   0.00000  Uiso   1.00
C151   C     0.11804   0.88751   0.39252   0.00000  Uiso   1.00
C152   C     0.00212   0.64029   0.24961   0.00000  Uiso   1.00
C153   C     0.84726   0.58836   0.34923   0.00000  Uiso   1.00
C154   C     0.81845   0.47870   0.36778   0.00000  Uiso   1.00
C155   C     0.66905   0.44735   0.46387   0.00000  Uiso   1.00
C156   C     0.00657   0.71396   0.19538   0.00000  Uiso   1.00
C157   C     0.11172   0.70993   0.08455   0.00000  Uiso   1.00
C158   C     0.09646   0.78432   0.05112   0.00000  Uiso   1.00
C159   C     0.00585   0.71402   0.29857   0.00000  Uiso   1.00
C160   C     0.11040   0.71005   0.27448   0.00000  Uiso   1.00
C161   C     0.09455   0.78451   0.32790   0.00000  Uiso   1.00
H162   H     0.69754   0.83850   0.44551   0.00000  Uiso   1.00
H163   H     0.49166   0.69140   0.57795   0.00000  Uiso   1.00
H164   H     0.78491   0.92260   0.29477   0.00000  Uiso   1.00
H165   H     0.78358   0.92271   0.48467   0.00000  Uiso   1.00
H166   H     0.31468   0.49495   0.69179   0.00000  Uiso   1.00
H167   H     0.93303   0.98245   0.09467   0.00000  Uiso   1.00
H168   H     0.93024   0.98271   0.49512   0.00000  Uiso   1.00
H169   H     0.09265   0.58138   0.19139   0.00000  Uiso   1.00
H170   H     0.90845   0.42017   0.30989   0.00000  Uiso   1.00
H171   H     0.20169   0.65136   0.02670   0.00000  Uiso   1.00
H172   H     0.20036   0.65148   0.21661   0.00000  Uiso   1.00
H173   H     0.65296   0.27481   0.47422   0.00000  Uiso   1.00
H174   H     0.27132   0.76232   0.87710   0.00000  Uiso   1.00
H175   H     0.26852   0.76257   0.27754   0.00000  Uiso   1.00
O176   O     0.35552   0.28347   0.66552   0.00000  Uiso   1.00
O177   O     0.16679   0.92307   0.88213   0.00000  Uiso   1.00
O178   O     0.16311   0.92340   0.40750   0.00000  Uiso   1.00
N179   N     0.41958   0.46526   0.62433   0.00000  Uiso   1.00
N180   N     0.99768   0.92104   0.06607   0.00000  Uiso   1.00
N181   N     0.99509   0.92130   0.44043   0.00000  Uiso   1.00
N182   N     0.60160   0.34681   0.50726   0.00000  Uiso   1.00
N183   N     0.17971   0.80258   0.94899   0.00000  Uiso   1.00
N184   N     0.17712   0.80284   0.32335   0.00000  Uiso   1.00
