data_job_04496
_audit_creation_date              2018-12-19
_audit_creation_method            'Materials Studio'
_symmetry_space_group_name_H-M    'P1'
_symmetry_Int_Tables_number       1
_symmetry_cell_setting            triclinic
loop_
_symmetry_equiv_pos_as_xyz
  x,y,z
_cell_length_a                    10.9696
_cell_length_b                    21.1696
_cell_length_c                    16.8644
_cell_angle_alpha                 90.0000
_cell_angle_beta                  132.2004
_cell_angle_gamma                 90.0000
loop_
_atom_site_label
_atom_site_type_symbol
_atom_site_fract_x
_atom_site_fract_y
_atom_site_fract_z
_atom_site_U_iso_or_equiv
_atom_site_adp_type
_atom_site_occupancy
C1     C     0.93098   0.70994   0.85243   0.00000  Uiso   1.00
C2     C     0.01545   0.67704   0.95873   0.00000  Uiso   1.00
C3     C     0.17015   0.64932   0.02451   0.00000  Uiso   1.00
C4     C     0.22556   0.62163   0.11841   0.00000  Uiso   1.00
C5     C     0.37128   0.57051   0.27931   0.00000  Uiso   1.00
C6     C     0.76643   0.67645   0.76948   0.00000  Uiso   1.00
C7     C     0.71176   0.64823   0.67614   0.00000  Uiso   1.00
C8     C     0.55754   0.62004   0.61073   0.00000  Uiso   1.00
C9     C     0.31661   0.56804   0.47780   0.00000  Uiso   1.00
C10    C     0.88997   0.77641   0.86320   0.00000  Uiso   1.00
C11    C     0.93913   0.83224   0.84863   0.00000  Uiso   1.00
C12    C     0.88888   0.88822   0.86209   0.00000  Uiso   1.00
C13    C     0.83976   0.99143   0.87467   0.00000  Uiso   1.00
C14    C     0.75430   0.71007   0.90222   0.00000  Uiso   1.00
C15    C     0.91948   0.67712   0.98576   0.00000  Uiso   1.00
C16    C     0.97467   0.64946   0.07959   0.00000  Uiso   1.00
C17    C     0.12943   0.62170   0.14550   0.00000  Uiso   1.00
C18    C     0.67047   0.67652   0.79652   0.00000  Uiso   1.00
C19    C     0.51628   0.64837   0.73123   0.00000  Uiso   1.00
C20    C     0.46139   0.62011   0.63782   0.00000  Uiso   1.00
C21    C     0.79400   0.77649   0.89024   0.00000  Uiso   1.00
C22    C     0.74366   0.83239   0.90372   0.00000  Uiso   1.00
C23    C     0.79274   0.88829   0.88918   0.00000  Uiso   1.00
H24    H     0.00568   0.70988   0.83137   0.00000  Uiso   1.00
H25    H     0.24437   0.64926   0.00354   0.00000  Uiso   1.00
H26    H     0.78604   0.64818   0.65523   0.00000  Uiso   1.00
H27    H     0.01339   0.83217   0.82770   0.00000  Uiso   1.00
H28    H     0.46665   0.58207   0.20634   0.00000  Uiso   1.00
H29    H     0.50023   0.57981   0.47189   0.00000  Uiso   1.00
H30    H     0.97962   0.96778   0.83556   0.00000  Uiso   1.00
H31    H     0.67958   0.71013   0.92327   0.00000  Uiso   1.00
H32    H     0.90038   0.64953   0.10050   0.00000  Uiso   1.00
H33    H     0.44205   0.64844   0.75218   0.00000  Uiso   1.00
H34    H     0.66939   0.83243   0.92465   0.00000  Uiso   1.00
H35    H     0.18745   0.58228   0.28503   0.00000  Uiso   1.00
H36    H     0.22102   0.58002   0.55057   0.00000  Uiso   1.00
H37    H     0.70042   0.96799   0.91425   0.00000  Uiso   1.00
O38    O     0.47816   0.54229   0.36059   0.00000  Uiso   1.00
O39    O     0.21024   0.53933   0.39701   0.00000  Uiso   1.00
O40    O     0.83920   0.04833   0.87415   0.00000  Uiso   1.00
N41    N     0.37066   0.59045   0.20055   0.00000  Uiso   1.00
N42    N     0.46711   0.58832   0.51389   0.00000  Uiso   1.00
N43    N     0.91527   0.95104   0.85386   0.00000  Uiso   1.00
N44    N     0.22042   0.59056   0.24289   0.00000  Uiso   1.00
N45    N     0.31688   0.58844   0.55623   0.00000  Uiso   1.00
N46    N     0.76503   0.95116   0.89620   0.00000  Uiso   1.00
C47    C     0.06902   0.20994   0.64757   0.00000  Uiso   1.00
C48    C     0.98455   0.17704   0.54127   0.00000  Uiso   1.00
C49    C     0.82985   0.14932   0.47549   0.00000  Uiso   1.00
C50    C     0.77444   0.12163   0.38159   0.00000  Uiso   1.00
C51    C     0.62872   0.07051   0.22069   0.00000  Uiso   1.00
C52    C     0.23357   0.17645   0.73052   0.00000  Uiso   1.00
C53    C     0.28824   0.14823   0.82386   0.00000  Uiso   1.00
C54    C     0.44246   0.12004   0.88927   0.00000  Uiso   1.00
C55    C     0.68339   0.06804   0.02220   0.00000  Uiso   1.00
C56    C     0.11003   0.27641   0.63680   0.00000  Uiso   1.00
C57    C     0.06087   0.33224   0.65137   0.00000  Uiso   1.00
C58    C     0.11112   0.38822   0.63791   0.00000  Uiso   1.00
C59    C     0.16024   0.49143   0.62533   0.00000  Uiso   1.00
C60    C     0.24570   0.21007   0.59778   0.00000  Uiso   1.00
C61    C     0.08052   0.17712   0.51424   0.00000  Uiso   1.00
C62    C     0.02533   0.14946   0.42041   0.00000  Uiso   1.00
C63    C     0.87057   0.12170   0.35450   0.00000  Uiso   1.00
C64    C     0.32953   0.17652   0.70348   0.00000  Uiso   1.00
C65    C     0.48372   0.14837   0.76877   0.00000  Uiso   1.00
C66    C     0.53861   0.12011   0.86218   0.00000  Uiso   1.00
C67    C     0.20600   0.27649   0.60976   0.00000  Uiso   1.00
C68    C     0.25634   0.33239   0.59628   0.00000  Uiso   1.00
C69    C     0.20726   0.38829   0.61082   0.00000  Uiso   1.00
H70    H     0.99432   0.20988   0.66863   0.00000  Uiso   1.00
H71    H     0.75563   0.14926   0.49646   0.00000  Uiso   1.00
H72    H     0.21396   0.14818   0.84477   0.00000  Uiso   1.00
H73    H     0.98661   0.33217   0.67230   0.00000  Uiso   1.00
H74    H     0.53335   0.08207   0.29366   0.00000  Uiso   1.00
H75    H     0.49977   0.07981   0.02811   0.00000  Uiso   1.00
H76    H     0.02038   0.46778   0.66444   0.00000  Uiso   1.00
H77    H     0.32042   0.21013   0.57673   0.00000  Uiso   1.00
H78    H     0.09962   0.14953   0.39950   0.00000  Uiso   1.00
H79    H     0.55795   0.14844   0.74782   0.00000  Uiso   1.00
H80    H     0.33061   0.33243   0.57535   0.00000  Uiso   1.00
H81    H     0.81255   0.08228   0.21497   0.00000  Uiso   1.00
H82    H     0.77898   0.08002   0.94943   0.00000  Uiso   1.00
H83    H     0.29958   0.46799   0.58575   0.00000  Uiso   1.00
O84    O     0.52184   0.04229   0.13941   0.00000  Uiso   1.00
O85    O     0.78976   0.03933   0.10299   0.00000  Uiso   1.00
O86    O     0.16080   0.54833   0.62585   0.00000  Uiso   1.00
N87    N     0.62934   0.09045   0.29945   0.00000  Uiso   1.00
N88    N     0.53289   0.08832   0.98611   0.00000  Uiso   1.00
N89    N     0.08473   0.45104   0.64614   0.00000  Uiso   1.00
N90    N     0.77958   0.09056   0.25711   0.00000  Uiso   1.00
N91    N     0.68312   0.08844   0.94377   0.00000  Uiso   1.00
N92    N     0.23497   0.45116   0.60380   0.00000  Uiso   1.00
C93    C     0.06902   0.29006   0.14757   0.00000  Uiso   1.00
C94    C     0.98455   0.32296   0.04127   0.00000  Uiso   1.00
C95    C     0.82985   0.35068   0.97549   0.00000  Uiso   1.00
C96    C     0.77444   0.37837   0.88159   0.00000  Uiso   1.00
C97    C     0.62872   0.42949   0.72069   0.00000  Uiso   1.00
C98    C     0.23357   0.32355   0.23052   0.00000  Uiso   1.00
C99    C     0.28824   0.35177   0.32386   0.00000  Uiso   1.00
C100   C     0.44246   0.37996   0.38927   0.00000  Uiso   1.00
C101   C     0.68339   0.43196   0.52220   0.00000  Uiso   1.00
C102   C     0.11003   0.22359   0.13680   0.00000  Uiso   1.00
C103   C     0.06087   0.16776   0.15137   0.00000  Uiso   1.00
C104   C     0.11112   0.11178   0.13791   0.00000  Uiso   1.00
C105   C     0.16024   0.00857   0.12533   0.00000  Uiso   1.00
C106   C     0.24570   0.28993   0.09778   0.00000  Uiso   1.00
C107   C     0.08052   0.32288   0.01424   0.00000  Uiso   1.00
C108   C     0.02533   0.35054   0.92041   0.00000  Uiso   1.00
C109   C     0.87057   0.37830   0.85450   0.00000  Uiso   1.00
C110   C     0.32953   0.32348   0.20348   0.00000  Uiso   1.00
C111   C     0.48372   0.35163   0.26877   0.00000  Uiso   1.00
C112   C     0.53861   0.37989   0.36218   0.00000  Uiso   1.00
C113   C     0.20600   0.22351   0.10976   0.00000  Uiso   1.00
C114   C     0.25634   0.16761   0.09628   0.00000  Uiso   1.00
C115   C     0.20726   0.11171   0.11082   0.00000  Uiso   1.00
H116   H     0.99432   0.29012   0.16863   0.00000  Uiso   1.00
H117   H     0.75563   0.35074   0.99646   0.00000  Uiso   1.00
H118   H     0.21396   0.35182   0.34477   0.00000  Uiso   1.00
H119   H     0.98661   0.16783   0.17230   0.00000  Uiso   1.00
H120   H     0.53335   0.41793   0.79366   0.00000  Uiso   1.00
H121   H     0.49977   0.42019   0.52811   0.00000  Uiso   1.00
H122   H     0.02038   0.03222   0.16444   0.00000  Uiso   1.00
H123   H     0.32042   0.28987   0.07673   0.00000  Uiso   1.00
H124   H     0.09962   0.35047   0.89950   0.00000  Uiso   1.00
H125   H     0.55795   0.35156   0.24782   0.00000  Uiso   1.00
H126   H     0.33061   0.16757   0.07535   0.00000  Uiso   1.00
H127   H     0.81255   0.41772   0.71497   0.00000  Uiso   1.00
H128   H     0.77898   0.41998   0.44943   0.00000  Uiso   1.00
H129   H     0.29958   0.03201   0.08575   0.00000  Uiso   1.00
O130   O     0.52184   0.45771   0.63941   0.00000  Uiso   1.00
O131   O     0.78976   0.46067   0.60299   0.00000  Uiso   1.00
O132   O     0.16080   0.95167   0.12585   0.00000  Uiso   1.00
N133   N     0.62934   0.40955   0.79945   0.00000  Uiso   1.00
N134   N     0.53289   0.41168   0.48611   0.00000  Uiso   1.00
N135   N     0.08473   0.04896   0.14614   0.00000  Uiso   1.00
N136   N     0.77958   0.40944   0.75711   0.00000  Uiso   1.00
N137   N     0.68312   0.41156   0.44377   0.00000  Uiso   1.00
N138   N     0.23497   0.04884   0.10380   0.00000  Uiso   1.00
C139   C     0.93098   0.79006   0.35243   0.00000  Uiso   1.00
C140   C     0.01545   0.82296   0.45873   0.00000  Uiso   1.00
C141   C     0.17015   0.85068   0.52451   0.00000  Uiso   1.00
C142   C     0.22556   0.87837   0.61841   0.00000  Uiso   1.00
C143   C     0.37128   0.92949   0.77931   0.00000  Uiso   1.00
C144   C     0.76643   0.82355   0.26948   0.00000  Uiso   1.00
C145   C     0.71176   0.85177   0.17614   0.00000  Uiso   1.00
C146   C     0.55754   0.87996   0.11073   0.00000  Uiso   1.00
C147   C     0.31661   0.93196   0.97780   0.00000  Uiso   1.00
C148   C     0.88997   0.72359   0.36320   0.00000  Uiso   1.00
C149   C     0.93913   0.66776   0.34863   0.00000  Uiso   1.00
C150   C     0.88888   0.61178   0.36209   0.00000  Uiso   1.00
C151   C     0.83976   0.50857   0.37467   0.00000  Uiso   1.00
C152   C     0.75430   0.78993   0.40222   0.00000  Uiso   1.00
C153   C     0.91948   0.82288   0.48576   0.00000  Uiso   1.00
C154   C     0.97467   0.85054   0.57959   0.00000  Uiso   1.00
C155   C     0.12943   0.87830   0.64550   0.00000  Uiso   1.00
C156   C     0.67047   0.82348   0.29652   0.00000  Uiso   1.00
C157   C     0.51628   0.85163   0.23123   0.00000  Uiso   1.00
C158   C     0.46139   0.87989   0.13782   0.00000  Uiso   1.00
C159   C     0.79400   0.72351   0.39024   0.00000  Uiso   1.00
C160   C     0.74366   0.66761   0.40372   0.00000  Uiso   1.00
C161   C     0.79274   0.61171   0.38918   0.00000  Uiso   1.00
H162   H     0.00568   0.79012   0.33137   0.00000  Uiso   1.00
H163   H     0.24437   0.85074   0.50354   0.00000  Uiso   1.00
H164   H     0.78604   0.85182   0.15523   0.00000  Uiso   1.00
H165   H     0.01339   0.66783   0.32770   0.00000  Uiso   1.00
H166   H     0.46665   0.91793   0.70634   0.00000  Uiso   1.00
H167   H     0.50023   0.92019   0.97189   0.00000  Uiso   1.00
H168   H     0.97962   0.53222   0.33556   0.00000  Uiso   1.00
H169   H     0.67958   0.78987   0.42327   0.00000  Uiso   1.00
H170   H     0.90038   0.85047   0.60050   0.00000  Uiso   1.00
H171   H     0.44205   0.85156   0.25218   0.00000  Uiso   1.00
H172   H     0.66939   0.66757   0.42465   0.00000  Uiso   1.00
H173   H     0.18745   0.91772   0.78503   0.00000  Uiso   1.00
H174   H     0.22102   0.91998   0.05057   0.00000  Uiso   1.00
H175   H     0.70042   0.53201   0.41425   0.00000  Uiso   1.00
O176   O     0.47816   0.95771   0.86059   0.00000  Uiso   1.00
O177   O     0.21024   0.96067   0.89701   0.00000  Uiso   1.00
O178   O     0.83920   0.45167   0.37415   0.00000  Uiso   1.00
N179   N     0.37066   0.90955   0.70055   0.00000  Uiso   1.00
N180   N     0.46711   0.91168   0.01389   0.00000  Uiso   1.00
N181   N     0.91527   0.54896   0.35386   0.00000  Uiso   1.00
N182   N     0.22042   0.90944   0.74289   0.00000  Uiso   1.00
N183   N     0.31688   0.91156   0.05623   0.00000  Uiso   1.00
N184   N     0.76503   0.54884   0.39620   0.00000  Uiso   1.00
