data_job_03206
_audit_creation_date              2018-12-19
_audit_creation_method            'Materials Studio'
_symmetry_space_group_name_H-M    'P1'
_symmetry_Int_Tables_number       1
_symmetry_cell_setting            triclinic
loop_
_symmetry_equiv_pos_as_xyz
  x,y,z
_cell_length_a                    16.5620
_cell_length_b                    15.2546
_cell_length_c                    20.1566
_cell_angle_alpha                 90.0000
_cell_angle_beta                  78.0644
_cell_angle_gamma                 90.0000
loop_
_atom_site_label
_atom_site_type_symbol
_atom_site_fract_x
_atom_site_fract_y
_atom_site_fract_z
_atom_site_U_iso_or_equiv
_atom_site_adp_type
_atom_site_occupancy
C1     C     0.21020   0.05881   0.82009   0.00000  Uiso   1.00
C2     C     0.28403   0.01070   0.83714   0.00000  Uiso   1.00
C3     C     0.33784   0.04416   0.87519   0.00000  Uiso   1.00
C4     C     0.40155   0.98981   0.88508   0.00000  Uiso   1.00
C5     C     0.51477   0.92802   0.91567   0.00000  Uiso   1.00
C6     C     0.22316   0.05813   0.74295   0.00000  Uiso   1.00
C7     C     0.22578   0.13148   0.70182   0.00000  Uiso   1.00
C8     C     0.23824   0.11705   0.63243   0.00000  Uiso   1.00
C9     C     0.25689   0.12890   0.51680   0.00000  Uiso   1.00
C10    C     0.13539   0.00066   0.84584   0.00000  Uiso   1.00
C11    C     0.06420   0.02569   0.89120   0.00000  Uiso   1.00
C12    C     0.00276   0.96289   0.90842   0.00000  Uiso   1.00
C13    C     0.88514   0.88551   0.95253   0.00000  Uiso   1.00
C14    C     0.22766   0.90278   0.76999   0.00000  Uiso   1.00
C15    C     0.29351   0.92595   0.80992   0.00000  Uiso   1.00
C16    C     0.35716   0.87153   0.81977   0.00000  Uiso   1.00
C17    C     0.41105   0.90491   0.85783   0.00000  Uiso   1.00
C18    C     0.23264   0.97339   0.71574   0.00000  Uiso   1.00
C19    C     0.24509   0.95885   0.64640   0.00000  Uiso   1.00
C20    C     0.24774   0.03215   0.60517   0.00000  Uiso   1.00
C21    C     0.14487   0.91591   0.81863   0.00000  Uiso   1.00
C22    C     0.08352   0.85306   0.83578   0.00000  Uiso   1.00
C23    C     0.01226   0.87799   0.88116   0.00000  Uiso   1.00
H24    H     0.20282   0.12479   0.84127   0.00000  Uiso   1.00
H25    H     0.33049   0.10976   0.89623   0.00000  Uiso   1.00
H26    H     0.21843   0.19705   0.72289   0.00000  Uiso   1.00
H27    H     0.05689   0.09128   0.91224   0.00000  Uiso   1.00
H28    H     0.47622   0.05573   0.94515   0.00000  Uiso   1.00
H29    H     0.23992   0.23980   0.57966   0.00000  Uiso   1.00
H30    H     0.89927   0.01676   0.97894   0.00000  Uiso   1.00
H31    H     0.23505   0.83679   0.74881   0.00000  Uiso   1.00
H32    H     0.36448   0.80595   0.79870   0.00000  Uiso   1.00
H33    H     0.25243   0.89325   0.62536   0.00000  Uiso   1.00
H34    H     0.09088   0.78748   0.81471   0.00000  Uiso   1.00
H35    H     0.50382   0.80915   0.86599   0.00000  Uiso   1.00
H36    H     0.26751   0.99322   0.50050   0.00000  Uiso   1.00
H37    H     0.92687   0.77019   0.89978   0.00000  Uiso   1.00
O38    O     0.57460   0.91736   0.94004   0.00000  Uiso   1.00
O39    O     0.26456   0.15885   0.46054   0.00000  Uiso   1.00
O40    O     0.81765   0.86623   0.98438   0.00000  Uiso   1.00
N41    N     0.46494   0.00192   0.91969   0.00000  Uiso   1.00
N42    N     0.24403   0.17402   0.57797   0.00000  Uiso   1.00
N43    N     0.92554   0.96550   0.95125   0.00000  Uiso   1.00
N44    N     0.47979   0.86924   0.87709   0.00000  Uiso   1.00
N45    N     0.25888   0.04134   0.53538   0.00000  Uiso   1.00
N46    N     0.94039   0.83282   0.90865   0.00000  Uiso   1.00
C47    C     0.71020   0.55881   0.82009   0.00000  Uiso   1.00
C48    C     0.78403   0.51070   0.83714   0.00000  Uiso   1.00
C49    C     0.83784   0.54416   0.87519   0.00000  Uiso   1.00
C50    C     0.90155   0.48981   0.88508   0.00000  Uiso   1.00
C51    C     0.01477   0.42802   0.91567   0.00000  Uiso   1.00
C52    C     0.72316   0.55813   0.74295   0.00000  Uiso   1.00
C53    C     0.72578   0.63148   0.70182   0.00000  Uiso   1.00
C54    C     0.73824   0.61705   0.63243   0.00000  Uiso   1.00
C55    C     0.75689   0.62890   0.51680   0.00000  Uiso   1.00
C56    C     0.63539   0.50066   0.84584   0.00000  Uiso   1.00
C57    C     0.56420   0.52569   0.89120   0.00000  Uiso   1.00
C58    C     0.50276   0.46289   0.90842   0.00000  Uiso   1.00
C59    C     0.38514   0.38551   0.95253   0.00000  Uiso   1.00
C60    C     0.72766   0.40278   0.76999   0.00000  Uiso   1.00
C61    C     0.79351   0.42595   0.80992   0.00000  Uiso   1.00
C62    C     0.85716   0.37153   0.81977   0.00000  Uiso   1.00
C63    C     0.91105   0.40491   0.85783   0.00000  Uiso   1.00
C64    C     0.73264   0.47339   0.71574   0.00000  Uiso   1.00
C65    C     0.74509   0.45885   0.64640   0.00000  Uiso   1.00
C66    C     0.74774   0.53215   0.60517   0.00000  Uiso   1.00
C67    C     0.64487   0.41591   0.81863   0.00000  Uiso   1.00
C68    C     0.58352   0.35306   0.83578   0.00000  Uiso   1.00
C69    C     0.51226   0.37799   0.88116   0.00000  Uiso   1.00
H70    H     0.70282   0.62479   0.84127   0.00000  Uiso   1.00
H71    H     0.83049   0.60976   0.89623   0.00000  Uiso   1.00
H72    H     0.71843   0.69705   0.72289   0.00000  Uiso   1.00
H73    H     0.55689   0.59128   0.91224   0.00000  Uiso   1.00
H74    H     0.97622   0.55573   0.94515   0.00000  Uiso   1.00
H75    H     0.73992   0.73980   0.57966   0.00000  Uiso   1.00
H76    H     0.39927   0.51676   0.97894   0.00000  Uiso   1.00
H77    H     0.73505   0.33679   0.74881   0.00000  Uiso   1.00
H78    H     0.86448   0.30595   0.79870   0.00000  Uiso   1.00
H79    H     0.75243   0.39325   0.62536   0.00000  Uiso   1.00
H80    H     0.59088   0.28748   0.81471   0.00000  Uiso   1.00
H81    H     0.00382   0.30915   0.86599   0.00000  Uiso   1.00
H82    H     0.76751   0.49322   0.50050   0.00000  Uiso   1.00
H83    H     0.42687   0.27019   0.89978   0.00000  Uiso   1.00
O84    O     0.07460   0.41736   0.94004   0.00000  Uiso   1.00
O85    O     0.76456   0.65885   0.46054   0.00000  Uiso   1.00
O86    O     0.31765   0.36623   0.98438   0.00000  Uiso   1.00
N87    N     0.96494   0.50192   0.91969   0.00000  Uiso   1.00
N88    N     0.74403   0.67402   0.57797   0.00000  Uiso   1.00
N89    N     0.42554   0.46550   0.95125   0.00000  Uiso   1.00
N90    N     0.97979   0.36924   0.87709   0.00000  Uiso   1.00
N91    N     0.75888   0.54134   0.53538   0.00000  Uiso   1.00
N92    N     0.44039   0.33282   0.90865   0.00000  Uiso   1.00
C93    C     0.78980   0.05881   0.67991   0.00000  Uiso   1.00
C94    C     0.71597   0.01070   0.66286   0.00000  Uiso   1.00
C95    C     0.66216   0.04416   0.62481   0.00000  Uiso   1.00
C96    C     0.59845   0.98981   0.61492   0.00000  Uiso   1.00
C97    C     0.48523   0.92802   0.58433   0.00000  Uiso   1.00
C98    C     0.77684   0.05813   0.75705   0.00000  Uiso   1.00
C99    C     0.77422   0.13148   0.79818   0.00000  Uiso   1.00
C100   C     0.76176   0.11705   0.86757   0.00000  Uiso   1.00
C101   C     0.74311   0.12890   0.98320   0.00000  Uiso   1.00
C102   C     0.86461   0.00066   0.65416   0.00000  Uiso   1.00
C103   C     0.93580   0.02569   0.60880   0.00000  Uiso   1.00
C104   C     0.99724   0.96289   0.59158   0.00000  Uiso   1.00
C105   C     0.11486   0.88551   0.54747   0.00000  Uiso   1.00
C106   C     0.77234   0.90278   0.73001   0.00000  Uiso   1.00
C107   C     0.70649   0.92595   0.69008   0.00000  Uiso   1.00
C108   C     0.64284   0.87153   0.68023   0.00000  Uiso   1.00
C109   C     0.58895   0.90491   0.64217   0.00000  Uiso   1.00
C110   C     0.76736   0.97339   0.78426   0.00000  Uiso   1.00
C111   C     0.75491   0.95885   0.85360   0.00000  Uiso   1.00
C112   C     0.75226   0.03215   0.89483   0.00000  Uiso   1.00
C113   C     0.85513   0.91591   0.68137   0.00000  Uiso   1.00
C114   C     0.91648   0.85306   0.66422   0.00000  Uiso   1.00
C115   C     0.98774   0.87799   0.61884   0.00000  Uiso   1.00
H116   H     0.79718   0.12479   0.65873   0.00000  Uiso   1.00
H117   H     0.66951   0.10976   0.60377   0.00000  Uiso   1.00
H118   H     0.78157   0.19705   0.77711   0.00000  Uiso   1.00
H119   H     0.94311   0.09128   0.58776   0.00000  Uiso   1.00
H120   H     0.52378   0.05573   0.55485   0.00000  Uiso   1.00
H121   H     0.76008   0.23980   0.92034   0.00000  Uiso   1.00
H122   H     0.10073   0.01676   0.52106   0.00000  Uiso   1.00
H123   H     0.76495   0.83679   0.75119   0.00000  Uiso   1.00
H124   H     0.63552   0.80595   0.70130   0.00000  Uiso   1.00
H125   H     0.74757   0.89325   0.87464   0.00000  Uiso   1.00
H126   H     0.90912   0.78748   0.68529   0.00000  Uiso   1.00
H127   H     0.49618   0.80915   0.63401   0.00000  Uiso   1.00
H128   H     0.73249   0.99322   0.99950   0.00000  Uiso   1.00
H129   H     0.07313   0.77019   0.60022   0.00000  Uiso   1.00
O130   O     0.42540   0.91736   0.55996   0.00000  Uiso   1.00
O131   O     0.73544   0.15885   0.03946   0.00000  Uiso   1.00
O132   O     0.18235   0.86623   0.51562   0.00000  Uiso   1.00
N133   N     0.53506   0.00192   0.58031   0.00000  Uiso   1.00
N134   N     0.75597   0.17402   0.92203   0.00000  Uiso   1.00
N135   N     0.07446   0.96550   0.54875   0.00000  Uiso   1.00
N136   N     0.52021   0.86924   0.62291   0.00000  Uiso   1.00
N137   N     0.74112   0.04134   0.96462   0.00000  Uiso   1.00
N138   N     0.05961   0.83282   0.59135   0.00000  Uiso   1.00
C139   C     0.28980   0.55881   0.67991   0.00000  Uiso   1.00
C140   C     0.21597   0.51070   0.66286   0.00000  Uiso   1.00
C141   C     0.16216   0.54416   0.62481   0.00000  Uiso   1.00
C142   C     0.09845   0.48981   0.61492   0.00000  Uiso   1.00
C143   C     0.98523   0.42802   0.58433   0.00000  Uiso   1.00
C144   C     0.27684   0.55813   0.75705   0.00000  Uiso   1.00
C145   C     0.27422   0.63148   0.79818   0.00000  Uiso   1.00
C146   C     0.26176   0.61705   0.86757   0.00000  Uiso   1.00
C147   C     0.24311   0.62890   0.98320   0.00000  Uiso   1.00
C148   C     0.36461   0.50066   0.65416   0.00000  Uiso   1.00
C149   C     0.43580   0.52569   0.60880   0.00000  Uiso   1.00
C150   C     0.49724   0.46289   0.59158   0.00000  Uiso   1.00
C151   C     0.61486   0.38551   0.54747   0.00000  Uiso   1.00
C152   C     0.27234   0.40278   0.73001   0.00000  Uiso   1.00
C153   C     0.20649   0.42595   0.69008   0.00000  Uiso   1.00
C154   C     0.14284   0.37153   0.68023   0.00000  Uiso   1.00
C155   C     0.08895   0.40491   0.64217   0.00000  Uiso   1.00
C156   C     0.26736   0.47339   0.78426   0.00000  Uiso   1.00
C157   C     0.25491   0.45885   0.85360   0.00000  Uiso   1.00
C158   C     0.25226   0.53215   0.89483   0.00000  Uiso   1.00
C159   C     0.35513   0.41591   0.68137   0.00000  Uiso   1.00
C160   C     0.41648   0.35306   0.66422   0.00000  Uiso   1.00
C161   C     0.48774   0.37799   0.61884   0.00000  Uiso   1.00
H162   H     0.29718   0.62479   0.65873   0.00000  Uiso   1.00
H163   H     0.16951   0.60976   0.60377   0.00000  Uiso   1.00
H164   H     0.28157   0.69705   0.77711   0.00000  Uiso   1.00
H165   H     0.44311   0.59128   0.58776   0.00000  Uiso   1.00
H166   H     0.02378   0.55573   0.55485   0.00000  Uiso   1.00
H167   H     0.26008   0.73980   0.92034   0.00000  Uiso   1.00
H168   H     0.60073   0.51676   0.52106   0.00000  Uiso   1.00
H169   H     0.26495   0.33679   0.75119   0.00000  Uiso   1.00
H170   H     0.13552   0.30595   0.70130   0.00000  Uiso   1.00
H171   H     0.24757   0.39325   0.87464   0.00000  Uiso   1.00
H172   H     0.40912   0.28748   0.68529   0.00000  Uiso   1.00
H173   H     0.99618   0.30915   0.63401   0.00000  Uiso   1.00
H174   H     0.23249   0.49322   0.99950   0.00000  Uiso   1.00
H175   H     0.57313   0.27019   0.60022   0.00000  Uiso   1.00
O176   O     0.92540   0.41736   0.55996   0.00000  Uiso   1.00
O177   O     0.23544   0.65885   0.03946   0.00000  Uiso   1.00
O178   O     0.68235   0.36623   0.51562   0.00000  Uiso   1.00
N179   N     0.03506   0.50192   0.58031   0.00000  Uiso   1.00
N180   N     0.25597   0.67402   0.92203   0.00000  Uiso   1.00
N181   N     0.57446   0.46550   0.54875   0.00000  Uiso   1.00
N182   N     0.02021   0.36924   0.62291   0.00000  Uiso   1.00
N183   N     0.24112   0.54134   0.96462   0.00000  Uiso   1.00
N184   N     0.55961   0.33282   0.59135   0.00000  Uiso   1.00
C185   C     0.78980   0.94119   0.17991   0.00000  Uiso   1.00
C186   C     0.71597   0.98930   0.16286   0.00000  Uiso   1.00
C187   C     0.66216   0.95584   0.12481   0.00000  Uiso   1.00
C188   C     0.59845   0.01019   0.11492   0.00000  Uiso   1.00
C189   C     0.48523   0.07198   0.08433   0.00000  Uiso   1.00
C190   C     0.77684   0.94187   0.25705   0.00000  Uiso   1.00
C191   C     0.77422   0.86852   0.29818   0.00000  Uiso   1.00
C192   C     0.76176   0.88295   0.36757   0.00000  Uiso   1.00
C193   C     0.74311   0.87110   0.48320   0.00000  Uiso   1.00
C194   C     0.86461   0.99934   0.15416   0.00000  Uiso   1.00
C195   C     0.93580   0.97431   0.10880   0.00000  Uiso   1.00
C196   C     0.99724   0.03711   0.09158   0.00000  Uiso   1.00
C197   C     0.11486   0.11449   0.04747   0.00000  Uiso   1.00
C198   C     0.77234   0.09722   0.23001   0.00000  Uiso   1.00
C199   C     0.70649   0.07405   0.19008   0.00000  Uiso   1.00
C200   C     0.64284   0.12847   0.18023   0.00000  Uiso   1.00
C201   C     0.58895   0.09509   0.14217   0.00000  Uiso   1.00
C202   C     0.76736   0.02661   0.28426   0.00000  Uiso   1.00
C203   C     0.75491   0.04115   0.35360   0.00000  Uiso   1.00
C204   C     0.75226   0.96785   0.39483   0.00000  Uiso   1.00
C205   C     0.85513   0.08409   0.18137   0.00000  Uiso   1.00
C206   C     0.91648   0.14694   0.16422   0.00000  Uiso   1.00
C207   C     0.98774   0.12201   0.11884   0.00000  Uiso   1.00
H208   H     0.79718   0.87521   0.15873   0.00000  Uiso   1.00
H209   H     0.66951   0.89024   0.10377   0.00000  Uiso   1.00
H210   H     0.78157   0.80295   0.27711   0.00000  Uiso   1.00
H211   H     0.94311   0.90872   0.08776   0.00000  Uiso   1.00
H212   H     0.52378   0.94427   0.05485   0.00000  Uiso   1.00
H213   H     0.76008   0.76020   0.42034   0.00000  Uiso   1.00
H214   H     0.10073   0.98324   0.02106   0.00000  Uiso   1.00
H215   H     0.76495   0.16321   0.25119   0.00000  Uiso   1.00
H216   H     0.63552   0.19405   0.20130   0.00000  Uiso   1.00
H217   H     0.74757   0.10675   0.37464   0.00000  Uiso   1.00
H218   H     0.90912   0.21252   0.18529   0.00000  Uiso   1.00
H219   H     0.49618   0.19085   0.13401   0.00000  Uiso   1.00
H220   H     0.73249   0.00678   0.49950   0.00000  Uiso   1.00
H221   H     0.07313   0.22981   0.10022   0.00000  Uiso   1.00
O222   O     0.42540   0.08264   0.05996   0.00000  Uiso   1.00
O223   O     0.73544   0.84115   0.53946   0.00000  Uiso   1.00
O224   O     0.18235   0.13377   0.01562   0.00000  Uiso   1.00
N225   N     0.53506   0.99808   0.08031   0.00000  Uiso   1.00
N226   N     0.75597   0.82598   0.42203   0.00000  Uiso   1.00
N227   N     0.07446   0.03450   0.04875   0.00000  Uiso   1.00
N228   N     0.52021   0.13076   0.12291   0.00000  Uiso   1.00
N229   N     0.74112   0.95866   0.46462   0.00000  Uiso   1.00
N230   N     0.05961   0.16718   0.09135   0.00000  Uiso   1.00
C231   C     0.28980   0.44119   0.17991   0.00000  Uiso   1.00
C232   C     0.21597   0.48930   0.16286   0.00000  Uiso   1.00
C233   C     0.16216   0.45584   0.12481   0.00000  Uiso   1.00
C234   C     0.09845   0.51019   0.11492   0.00000  Uiso   1.00
C235   C     0.98523   0.57198   0.08433   0.00000  Uiso   1.00
C236   C     0.27684   0.44187   0.25705   0.00000  Uiso   1.00
C237   C     0.27422   0.36852   0.29818   0.00000  Uiso   1.00
C238   C     0.26176   0.38295   0.36757   0.00000  Uiso   1.00
C239   C     0.24311   0.37110   0.48320   0.00000  Uiso   1.00
C240   C     0.36461   0.49934   0.15416   0.00000  Uiso   1.00
C241   C     0.43580   0.47431   0.10880   0.00000  Uiso   1.00
C242   C     0.49724   0.53711   0.09158   0.00000  Uiso   1.00
C243   C     0.61486   0.61449   0.04747   0.00000  Uiso   1.00
C244   C     0.27234   0.59722   0.23001   0.00000  Uiso   1.00
C245   C     0.20649   0.57405   0.19008   0.00000  Uiso   1.00
C246   C     0.14284   0.62847   0.18023   0.00000  Uiso   1.00
C247   C     0.08895   0.59509   0.14217   0.00000  Uiso   1.00
C248   C     0.26736   0.52661   0.28426   0.00000  Uiso   1.00
C249   C     0.25491   0.54115   0.35360   0.00000  Uiso   1.00
C250   C     0.25226   0.46785   0.39483   0.00000  Uiso   1.00
C251   C     0.35513   0.58409   0.18137   0.00000  Uiso   1.00
C252   C     0.41648   0.64694   0.16422   0.00000  Uiso   1.00
C253   C     0.48774   0.62201   0.11884   0.00000  Uiso   1.00
H254   H     0.29718   0.37521   0.15873   0.00000  Uiso   1.00
H255   H     0.16951   0.39024   0.10377   0.00000  Uiso   1.00
H256   H     0.28157   0.30295   0.27711   0.00000  Uiso   1.00
H257   H     0.44311   0.40872   0.08776   0.00000  Uiso   1.00
H258   H     0.02378   0.44427   0.05485   0.00000  Uiso   1.00
H259   H     0.26008   0.26020   0.42034   0.00000  Uiso   1.00
H260   H     0.60073   0.48324   0.02106   0.00000  Uiso   1.00
H261   H     0.26495   0.66321   0.25119   0.00000  Uiso   1.00
H262   H     0.13552   0.69405   0.20130   0.00000  Uiso   1.00
H263   H     0.24757   0.60675   0.37464   0.00000  Uiso   1.00
H264   H     0.40912   0.71252   0.18529   0.00000  Uiso   1.00
H265   H     0.99618   0.69085   0.13401   0.00000  Uiso   1.00
H266   H     0.23249   0.50678   0.49950   0.00000  Uiso   1.00
H267   H     0.57313   0.72981   0.10022   0.00000  Uiso   1.00
O268   O     0.92540   0.58264   0.05996   0.00000  Uiso   1.00
O269   O     0.23544   0.34115   0.53946   0.00000  Uiso   1.00
O270   O     0.68235   0.63377   0.01562   0.00000  Uiso   1.00
N271   N     0.03506   0.49808   0.08031   0.00000  Uiso   1.00
N272   N     0.25597   0.32598   0.42203   0.00000  Uiso   1.00
N273   N     0.57446   0.53450   0.04875   0.00000  Uiso   1.00
N274   N     0.02021   0.63076   0.12291   0.00000  Uiso   1.00
N275   N     0.24112   0.45866   0.46462   0.00000  Uiso   1.00
N276   N     0.55961   0.66718   0.09135   0.00000  Uiso   1.00
C277   C     0.21020   0.94119   0.32009   0.00000  Uiso   1.00
C278   C     0.28403   0.98930   0.33714   0.00000  Uiso   1.00
C279   C     0.33784   0.95584   0.37519   0.00000  Uiso   1.00
C280   C     0.40155   0.01019   0.38508   0.00000  Uiso   1.00
C281   C     0.51477   0.07198   0.41567   0.00000  Uiso   1.00
C282   C     0.22316   0.94187   0.24295   0.00000  Uiso   1.00
C283   C     0.22578   0.86852   0.20182   0.00000  Uiso   1.00
C284   C     0.23824   0.88295   0.13243   0.00000  Uiso   1.00
C285   C     0.25689   0.87110   0.01680   0.00000  Uiso   1.00
C286   C     0.13539   0.99934   0.34584   0.00000  Uiso   1.00
C287   C     0.06420   0.97431   0.39120   0.00000  Uiso   1.00
C288   C     0.00276   0.03711   0.40842   0.00000  Uiso   1.00
C289   C     0.88514   0.11449   0.45253   0.00000  Uiso   1.00
C290   C     0.22766   0.09722   0.26999   0.00000  Uiso   1.00
C291   C     0.29351   0.07405   0.30992   0.00000  Uiso   1.00
C292   C     0.35716   0.12847   0.31977   0.00000  Uiso   1.00
C293   C     0.41105   0.09509   0.35783   0.00000  Uiso   1.00
C294   C     0.23264   0.02661   0.21574   0.00000  Uiso   1.00
C295   C     0.24509   0.04115   0.14640   0.00000  Uiso   1.00
C296   C     0.24774   0.96785   0.10517   0.00000  Uiso   1.00
C297   C     0.14487   0.08409   0.31863   0.00000  Uiso   1.00
C298   C     0.08352   0.14694   0.33578   0.00000  Uiso   1.00
C299   C     0.01226   0.12201   0.38116   0.00000  Uiso   1.00
H300   H     0.20282   0.87521   0.34127   0.00000  Uiso   1.00
H301   H     0.33049   0.89024   0.39623   0.00000  Uiso   1.00
H302   H     0.21843   0.80295   0.22289   0.00000  Uiso   1.00
H303   H     0.05689   0.90872   0.41224   0.00000  Uiso   1.00
H304   H     0.47622   0.94427   0.44515   0.00000  Uiso   1.00
H305   H     0.23992   0.76020   0.07966   0.00000  Uiso   1.00
H306   H     0.89927   0.98324   0.47894   0.00000  Uiso   1.00
H307   H     0.23505   0.16321   0.24881   0.00000  Uiso   1.00
H308   H     0.36448   0.19405   0.29870   0.00000  Uiso   1.00
H309   H     0.25243   0.10675   0.12536   0.00000  Uiso   1.00
H310   H     0.09088   0.21252   0.31471   0.00000  Uiso   1.00
H311   H     0.50382   0.19085   0.36599   0.00000  Uiso   1.00
H312   H     0.26751   0.00678   0.00050   0.00000  Uiso   1.00
H313   H     0.92687   0.22981   0.39978   0.00000  Uiso   1.00
O314   O     0.57460   0.08264   0.44004   0.00000  Uiso   1.00
O315   O     0.26456   0.84115   0.96054   0.00000  Uiso   1.00
O316   O     0.81765   0.13377   0.48438   0.00000  Uiso   1.00
N317   N     0.46494   0.99808   0.41969   0.00000  Uiso   1.00
N318   N     0.24403   0.82598   0.07797   0.00000  Uiso   1.00
N319   N     0.92554   0.03450   0.45125   0.00000  Uiso   1.00
N320   N     0.47979   0.13076   0.37709   0.00000  Uiso   1.00
N321   N     0.25888   0.95866   0.03538   0.00000  Uiso   1.00
N322   N     0.94039   0.16718   0.40865   0.00000  Uiso   1.00
C323   C     0.71020   0.44119   0.32009   0.00000  Uiso   1.00
C324   C     0.78403   0.48930   0.33714   0.00000  Uiso   1.00
C325   C     0.83784   0.45584   0.37519   0.00000  Uiso   1.00
C326   C     0.90155   0.51019   0.38508   0.00000  Uiso   1.00
C327   C     0.01477   0.57198   0.41567   0.00000  Uiso   1.00
C328   C     0.72316   0.44187   0.24295   0.00000  Uiso   1.00
C329   C     0.72578   0.36852   0.20182   0.00000  Uiso   1.00
C330   C     0.73824   0.38295   0.13243   0.00000  Uiso   1.00
C331   C     0.75689   0.37110   0.01680   0.00000  Uiso   1.00
C332   C     0.63539   0.49934   0.34584   0.00000  Uiso   1.00
C333   C     0.56420   0.47431   0.39120   0.00000  Uiso   1.00
C334   C     0.50276   0.53711   0.40842   0.00000  Uiso   1.00
C335   C     0.38514   0.61449   0.45253   0.00000  Uiso   1.00
C336   C     0.72766   0.59722   0.26999   0.00000  Uiso   1.00
C337   C     0.79351   0.57405   0.30992   0.00000  Uiso   1.00
C338   C     0.85716   0.62847   0.31977   0.00000  Uiso   1.00
C339   C     0.91105   0.59509   0.35783   0.00000  Uiso   1.00
C340   C     0.73264   0.52661   0.21574   0.00000  Uiso   1.00
C341   C     0.74509   0.54115   0.14640   0.00000  Uiso   1.00
C342   C     0.74774   0.46785   0.10517   0.00000  Uiso   1.00
C343   C     0.64487   0.58409   0.31863   0.00000  Uiso   1.00
C344   C     0.58352   0.64694   0.33578   0.00000  Uiso   1.00
C345   C     0.51226   0.62201   0.38116   0.00000  Uiso   1.00
H346   H     0.70282   0.37521   0.34127   0.00000  Uiso   1.00
H347   H     0.83049   0.39024   0.39623   0.00000  Uiso   1.00
H348   H     0.71843   0.30295   0.22289   0.00000  Uiso   1.00
H349   H     0.55689   0.40872   0.41224   0.00000  Uiso   1.00
H350   H     0.97622   0.44427   0.44515   0.00000  Uiso   1.00
H351   H     0.73992   0.26020   0.07966   0.00000  Uiso   1.00
H352   H     0.39927   0.48324   0.47894   0.00000  Uiso   1.00
H353   H     0.73505   0.66321   0.24881   0.00000  Uiso   1.00
H354   H     0.86448   0.69405   0.29870   0.00000  Uiso   1.00
H355   H     0.75243   0.60675   0.12536   0.00000  Uiso   1.00
H356   H     0.59088   0.71252   0.31471   0.00000  Uiso   1.00
H357   H     0.00382   0.69085   0.36599   0.00000  Uiso   1.00
H358   H     0.76751   0.50678   0.00050   0.00000  Uiso   1.00
H359   H     0.42687   0.72981   0.39978   0.00000  Uiso   1.00
O360   O     0.07460   0.58264   0.44004   0.00000  Uiso   1.00
O361   O     0.76456   0.34115   0.96054   0.00000  Uiso   1.00
O362   O     0.31765   0.63377   0.48438   0.00000  Uiso   1.00
N363   N     0.96494   0.49808   0.41969   0.00000  Uiso   1.00
N364   N     0.74403   0.32598   0.07797   0.00000  Uiso   1.00
N365   N     0.42554   0.53450   0.45125   0.00000  Uiso   1.00
N366   N     0.97979   0.63076   0.37709   0.00000  Uiso   1.00
N367   N     0.75888   0.45866   0.03538   0.00000  Uiso   1.00
N368   N     0.44039   0.66718   0.40865   0.00000  Uiso   1.00
