data_job_02835
_audit_creation_date              2018-12-19
_audit_creation_method            'Materials Studio'
_symmetry_space_group_name_H-M    'P1'
_symmetry_Int_Tables_number       1
_symmetry_cell_setting            triclinic
loop_
_symmetry_equiv_pos_as_xyz
  x,y,z
_cell_length_a                    9.4952
_cell_length_b                    12.3122
_cell_length_c                    13.1163
_cell_angle_alpha                 79.8535
_cell_angle_beta                  88.7753
_cell_angle_gamma                 77.0734
loop_
_atom_site_label
_atom_site_type_symbol
_atom_site_fract_x
_atom_site_fract_y
_atom_site_fract_z
_atom_site_U_iso_or_equiv
_atom_site_adp_type
_atom_site_occupancy
C1     C     0.56374   0.67804   0.61673   0.00000  Uiso   1.00
C2     C     0.55102   0.57910   0.70185   0.00000  Uiso   1.00
C3     C     0.48240   0.49300   0.69201   0.00000  Uiso   1.00
C4     C     0.48253   0.41027   0.77893   0.00000  Uiso   1.00
C5     C     0.45262   0.25618   0.89691   0.00000  Uiso   1.00
C6     C     0.49905   0.78507   0.66016   0.00000  Uiso   1.00
C7     C     0.38674   0.87213   0.61526   0.00000  Uiso   1.00
C8     C     0.34314   0.96279   0.66709   0.00000  Uiso   1.00
C9     C     0.23261   0.12849   0.72030   0.00000  Uiso   1.00
C10    C     0.72492   0.67419   0.60597   0.00000  Uiso   1.00
C11    C     0.80253   0.66806   0.51550   0.00000  Uiso   1.00
C12    C     0.94910   0.66540   0.52170   0.00000  Uiso   1.00
C13    C     0.18927   0.65895   0.49078   0.00000  Uiso   1.00
C14    C     0.68601   0.68423   0.78860   0.00000  Uiso   1.00
C15    C     0.61744   0.58247   0.79520   0.00000  Uiso   1.00
C16    C     0.61768   0.49985   0.88216   0.00000  Uiso   1.00
C17    C     0.54907   0.41364   0.87245   0.00000  Uiso   1.00
C18    C     0.56546   0.78843   0.75351   0.00000  Uiso   1.00
C19    C     0.52202   0.87898   0.80541   0.00000  Uiso   1.00
C20    C     0.40967   0.96616   0.76061   0.00000  Uiso   1.00
C21    C     0.79134   0.67755   0.69933   0.00000  Uiso   1.00
C22    C     0.93781   0.67491   0.70566   0.00000  Uiso   1.00
C23    C     0.01563   0.66877   0.61522   0.00000  Uiso   1.00
H24    H     0.51203   0.67543   0.54406   0.00000  Uiso   1.00
H25    H     0.43100   0.49043   0.61975   0.00000  Uiso   1.00
H26    H     0.33538   0.86951   0.54301   0.00000  Uiso   1.00
H27    H     0.75110   0.66546   0.44328   0.00000  Uiso   1.00
H28    H     0.37041   0.28684   0.74486   0.00000  Uiso   1.00
H29    H     0.16881   0.08617   0.58303   0.00000  Uiso   1.00
H30    H     0.04544   0.65590   0.37271   0.00000  Uiso   1.00
H31    H     0.73772   0.68685   0.86128   0.00000  Uiso   1.00
H32    H     0.66908   0.50248   0.95439   0.00000  Uiso   1.00
H33    H     0.57345   0.88156   0.87765   0.00000  Uiso   1.00
H34    H     0.98917   0.67751   0.77792   0.00000  Uiso   1.00
H35    H     0.56364   0.29662   0.01647   0.00000  Uiso   1.00
H36    H     0.36203   0.09595   0.85463   0.00000  Uiso   1.00
H37    H     0.23867   0.66568   0.64432   0.00000  Uiso   1.00
O38    O     0.41775   0.17026   0.93620   0.00000  Uiso   1.00
O39    O     0.15328   0.21895   0.72387   0.00000  Uiso   1.00
O40    O     0.30340   0.65444   0.44795   0.00000  Uiso   1.00
N41    N     0.42533   0.31443   0.79600   0.00000  Uiso   1.00
N42    N     0.23683   0.06175   0.64470   0.00000  Uiso   1.00
N43    N     0.05640   0.65951   0.44807   0.00000  Uiso   1.00
N44    N     0.52931   0.31969   0.94215   0.00000  Uiso   1.00
N45    N     0.34080   0.06701   0.79085   0.00000  Uiso   1.00
N46    N     0.16038   0.66477   0.59422   0.00000  Uiso   1.00
C47    C     0.43626   0.32196   0.38327   0.00000  Uiso   1.00
C48    C     0.44898   0.42090   0.29815   0.00000  Uiso   1.00
C49    C     0.51760   0.50700   0.30799   0.00000  Uiso   1.00
C50    C     0.51747   0.58973   0.22107   0.00000  Uiso   1.00
C51    C     0.54738   0.74382   0.10309   0.00000  Uiso   1.00
C52    C     0.50095   0.21493   0.33984   0.00000  Uiso   1.00
C53    C     0.61326   0.12787   0.38474   0.00000  Uiso   1.00
C54    C     0.65686   0.03721   0.33291   0.00000  Uiso   1.00
C55    C     0.76739   0.87151   0.27970   0.00000  Uiso   1.00
C56    C     0.27508   0.32581   0.39403   0.00000  Uiso   1.00
C57    C     0.19747   0.33194   0.48450   0.00000  Uiso   1.00
C58    C     0.05090   0.33460   0.47830   0.00000  Uiso   1.00
C59    C     0.81073   0.34105   0.50922   0.00000  Uiso   1.00
C60    C     0.31399   0.31577   0.21140   0.00000  Uiso   1.00
C61    C     0.38256   0.41753   0.20480   0.00000  Uiso   1.00
C62    C     0.38232   0.50015   0.11784   0.00000  Uiso   1.00
C63    C     0.45093   0.58636   0.12755   0.00000  Uiso   1.00
C64    C     0.43454   0.21157   0.24649   0.00000  Uiso   1.00
C65    C     0.47798   0.12102   0.19459   0.00000  Uiso   1.00
C66    C     0.59033   0.03384   0.23939   0.00000  Uiso   1.00
C67    C     0.20866   0.32245   0.30067   0.00000  Uiso   1.00
C68    C     0.06219   0.32509   0.29434   0.00000  Uiso   1.00
C69    C     0.98437   0.33123   0.38478   0.00000  Uiso   1.00
H70    H     0.48797   0.32457   0.45594   0.00000  Uiso   1.00
H71    H     0.56900   0.50957   0.38025   0.00000  Uiso   1.00
H72    H     0.66462   0.13049   0.45699   0.00000  Uiso   1.00
H73    H     0.24890   0.33454   0.55672   0.00000  Uiso   1.00
H74    H     0.62959   0.71316   0.25514   0.00000  Uiso   1.00
H75    H     0.83119   0.91383   0.41697   0.00000  Uiso   1.00
H76    H     0.95456   0.34410   0.62729   0.00000  Uiso   1.00
H77    H     0.26228   0.31315   0.13872   0.00000  Uiso   1.00
H78    H     0.33092   0.49752   0.04561   0.00000  Uiso   1.00
H79    H     0.42655   0.11844   0.12235   0.00000  Uiso   1.00
H80    H     0.01083   0.32249   0.22208   0.00000  Uiso   1.00
H81    H     0.43636   0.70338   0.98353   0.00000  Uiso   1.00
H82    H     0.63797   0.90405   0.14537   0.00000  Uiso   1.00
H83    H     0.76133   0.33432   0.35568   0.00000  Uiso   1.00
O84    O     0.58225   0.82974   0.06380   0.00000  Uiso   1.00
O85    O     0.84672   0.78105   0.27613   0.00000  Uiso   1.00
O86    O     0.69660   0.34556   0.55205   0.00000  Uiso   1.00
N87    N     0.57467   0.68557   0.20400   0.00000  Uiso   1.00
N88    N     0.76317   0.93825   0.35530   0.00000  Uiso   1.00
N89    N     0.94360   0.34049   0.55193   0.00000  Uiso   1.00
N90    N     0.47069   0.68031   0.05785   0.00000  Uiso   1.00
N91    N     0.65920   0.93299   0.20915   0.00000  Uiso   1.00
N92    N     0.83962   0.33523   0.40578   0.00000  Uiso   1.00
