data_job_02609
_audit_creation_date              2018-12-19
_audit_creation_method            'Materials Studio'
_symmetry_space_group_name_H-M    'P1'
_symmetry_Int_Tables_number       1
_symmetry_cell_setting            triclinic
loop_
_symmetry_equiv_pos_as_xyz
  x,y,z
_cell_length_a                    18.6598
_cell_length_b                    16.4129
_cell_length_c                    24.2249
_cell_angle_alpha                 90.0000
_cell_angle_beta                  57.3156
_cell_angle_gamma                 90.0000
loop_
_atom_site_label
_atom_site_type_symbol
_atom_site_fract_x
_atom_site_fract_y
_atom_site_fract_z
_atom_site_U_iso_or_equiv
_atom_site_adp_type
_atom_site_occupancy
C1     C     0.23320   0.60221   0.62214   0.00000  Uiso   1.00
C2     C     0.25349   0.56399   0.66955   0.00000  Uiso   1.00
C3     C     0.20123   0.56556   0.73747   0.00000  Uiso   1.00
C4     C     0.23131   0.52708   0.77212   0.00000  Uiso   1.00
C5     C     0.25074   0.47366   0.85063   0.00000  Uiso   1.00
C6     C     0.30645   0.66032   0.57914   0.00000  Uiso   1.00
C7     C     0.29873   0.74288   0.57104   0.00000  Uiso   1.00
C8     C     0.37340   0.78549   0.52958   0.00000  Uiso   1.00
C9     C     0.47505   0.88160   0.46769   0.00000  Uiso   1.00
C10    C     0.23995   0.53357   0.57713   0.00000  Uiso   1.00
C11    C     0.17632   0.50957   0.56733   0.00000  Uiso   1.00
C12    C     0.19500   0.44548   0.52417   0.00000  Uiso   1.00
C13    C     0.19340   0.34479   0.45916   0.00000  Uiso   1.00
C14    C     0.37955   0.53107   0.56290   0.00000  Uiso   1.00
C15    C     0.33298   0.52535   0.63737   0.00000  Uiso   1.00
C16    C     0.36315   0.48686   0.67193   0.00000  Uiso   1.00
C17    C     0.31094   0.48837   0.73989   0.00000  Uiso   1.00
C18    C     0.38594   0.62168   0.54696   0.00000  Uiso   1.00
C19    C     0.46064   0.66417   0.50550   0.00000  Uiso   1.00
C20    C     0.45303   0.74678   0.49734   0.00000  Uiso   1.00
C21    C     0.31944   0.49493   0.54496   0.00000  Uiso   1.00
C22    C     0.33823   0.43086   0.50180   0.00000  Uiso   1.00
C23    C     0.27464   0.40677   0.49193   0.00000  Uiso   1.00
H24    H     0.17132   0.63230   0.64718   0.00000  Uiso   1.00
H25    H     0.13972   0.59548   0.76235   0.00000  Uiso   1.00
H26    H     0.23720   0.77277   0.59594   0.00000  Uiso   1.00
H27    H     0.11481   0.53949   0.59224   0.00000  Uiso   1.00
H28    H     0.13976   0.53765   0.87584   0.00000  Uiso   1.00
H29    H     0.34530   0.91146   0.52494   0.00000  Uiso   1.00
H30    H     0.08721   0.41955   0.51713   0.00000  Uiso   1.00
H31    H     0.44144   0.50099   0.53785   0.00000  Uiso   1.00
H32    H     0.42466   0.45696   0.64702   0.00000  Uiso   1.00
H33    H     0.52214   0.63425   0.48061   0.00000  Uiso   1.00
H34    H     0.39975   0.40097   0.47691   0.00000  Uiso   1.00
H35    H     0.37103   0.42523   0.78224   0.00000  Uiso   1.00
H36    H     0.57657   0.79904   0.43133   0.00000  Uiso   1.00
H37    H     0.31849   0.30713   0.42352   0.00000  Uiso   1.00
O38    O     0.23950   0.45487   0.90283   0.00000  Uiso   1.00
O39    O     0.50916   0.94529   0.44245   0.00000  Uiso   1.00
O40    O     0.17056   0.29992   0.43220   0.00000  Uiso   1.00
N41    N     0.19649   0.51722   0.83883   0.00000  Uiso   1.00
N42    N     0.38866   0.86671   0.51077   0.00000  Uiso   1.00
N43    N     0.14737   0.40684   0.50345   0.00000  Uiso   1.00
N44    N     0.32093   0.45672   0.78846   0.00000  Uiso   1.00
N45    N     0.51310   0.80622   0.46040   0.00000  Uiso   1.00
N46    N     0.27182   0.34634   0.45308   0.00000  Uiso   1.00
C47    C     0.73320   0.10221   0.62214   0.00000  Uiso   1.00
C48    C     0.75349   0.06399   0.66955   0.00000  Uiso   1.00
C49    C     0.70123   0.06556   0.73747   0.00000  Uiso   1.00
C50    C     0.73131   0.02708   0.77212   0.00000  Uiso   1.00
C51    C     0.75074   0.97366   0.85063   0.00000  Uiso   1.00
C52    C     0.80645   0.16032   0.57914   0.00000  Uiso   1.00
C53    C     0.79873   0.24288   0.57104   0.00000  Uiso   1.00
C54    C     0.87340   0.28549   0.52958   0.00000  Uiso   1.00
C55    C     0.97505   0.38160   0.46769   0.00000  Uiso   1.00
C56    C     0.73995   0.03357   0.57713   0.00000  Uiso   1.00
C57    C     0.67632   0.00957   0.56733   0.00000  Uiso   1.00
C58    C     0.69500   0.94548   0.52417   0.00000  Uiso   1.00
C59    C     0.69340   0.84479   0.45916   0.00000  Uiso   1.00
C60    C     0.87955   0.03107   0.56290   0.00000  Uiso   1.00
C61    C     0.83298   0.02535   0.63737   0.00000  Uiso   1.00
C62    C     0.86315   0.98686   0.67193   0.00000  Uiso   1.00
C63    C     0.81094   0.98837   0.73989   0.00000  Uiso   1.00
C64    C     0.88594   0.12168   0.54696   0.00000  Uiso   1.00
C65    C     0.96064   0.16417   0.50550   0.00000  Uiso   1.00
C66    C     0.95303   0.24678   0.49734   0.00000  Uiso   1.00
C67    C     0.81944   0.99493   0.54496   0.00000  Uiso   1.00
C68    C     0.83823   0.93086   0.50180   0.00000  Uiso   1.00
C69    C     0.77464   0.90677   0.49193   0.00000  Uiso   1.00
H70    H     0.67132   0.13230   0.64718   0.00000  Uiso   1.00
H71    H     0.63972   0.09548   0.76235   0.00000  Uiso   1.00
H72    H     0.73720   0.27277   0.59594   0.00000  Uiso   1.00
H73    H     0.61481   0.03949   0.59224   0.00000  Uiso   1.00
H74    H     0.63976   0.03765   0.87584   0.00000  Uiso   1.00
H75    H     0.84530   0.41146   0.52494   0.00000  Uiso   1.00
H76    H     0.58721   0.91955   0.51713   0.00000  Uiso   1.00
H77    H     0.94144   0.00099   0.53785   0.00000  Uiso   1.00
H78    H     0.92466   0.95696   0.64702   0.00000  Uiso   1.00
H79    H     0.02214   0.13425   0.48061   0.00000  Uiso   1.00
H80    H     0.89975   0.90097   0.47691   0.00000  Uiso   1.00
H81    H     0.87103   0.92523   0.78224   0.00000  Uiso   1.00
H82    H     0.07657   0.29904   0.43133   0.00000  Uiso   1.00
H83    H     0.81849   0.80713   0.42352   0.00000  Uiso   1.00
O84    O     0.73950   0.95487   0.90283   0.00000  Uiso   1.00
O85    O     0.00916   0.44529   0.44245   0.00000  Uiso   1.00
O86    O     0.67056   0.79992   0.43220   0.00000  Uiso   1.00
N87    N     0.69649   0.01722   0.83883   0.00000  Uiso   1.00
N88    N     0.88866   0.36671   0.51077   0.00000  Uiso   1.00
N89    N     0.64737   0.90684   0.50345   0.00000  Uiso   1.00
N90    N     0.82093   0.95672   0.78846   0.00000  Uiso   1.00
N91    N     0.01310   0.30622   0.46040   0.00000  Uiso   1.00
N92    N     0.77182   0.84634   0.45308   0.00000  Uiso   1.00
C93    C     0.76680   0.60221   0.87786   0.00000  Uiso   1.00
C94    C     0.74651   0.56399   0.83045   0.00000  Uiso   1.00
C95    C     0.79877   0.56556   0.76253   0.00000  Uiso   1.00
C96    C     0.76869   0.52708   0.72788   0.00000  Uiso   1.00
C97    C     0.74926   0.47366   0.64937   0.00000  Uiso   1.00
C98    C     0.69355   0.66032   0.92086   0.00000  Uiso   1.00
C99    C     0.70127   0.74288   0.92896   0.00000  Uiso   1.00
C100   C     0.62660   0.78549   0.97042   0.00000  Uiso   1.00
C101   C     0.52495   0.88160   0.03231   0.00000  Uiso   1.00
C102   C     0.76005   0.53357   0.92287   0.00000  Uiso   1.00
C103   C     0.82368   0.50957   0.93267   0.00000  Uiso   1.00
C104   C     0.80500   0.44548   0.97583   0.00000  Uiso   1.00
C105   C     0.80660   0.34479   0.04084   0.00000  Uiso   1.00
C106   C     0.62045   0.53107   0.93710   0.00000  Uiso   1.00
C107   C     0.66702   0.52535   0.86263   0.00000  Uiso   1.00
C108   C     0.63685   0.48686   0.82807   0.00000  Uiso   1.00
C109   C     0.68906   0.48837   0.76011   0.00000  Uiso   1.00
C110   C     0.61406   0.62168   0.95304   0.00000  Uiso   1.00
C111   C     0.53936   0.66417   0.99450   0.00000  Uiso   1.00
C112   C     0.54697   0.74678   0.00266   0.00000  Uiso   1.00
C113   C     0.68056   0.49493   0.95504   0.00000  Uiso   1.00
C114   C     0.66177   0.43086   0.99820   0.00000  Uiso   1.00
C115   C     0.72536   0.40677   0.00807   0.00000  Uiso   1.00
H116   H     0.82868   0.63230   0.85282   0.00000  Uiso   1.00
H117   H     0.86028   0.59548   0.73765   0.00000  Uiso   1.00
H118   H     0.76280   0.77277   0.90406   0.00000  Uiso   1.00
H119   H     0.88519   0.53949   0.90776   0.00000  Uiso   1.00
H120   H     0.86024   0.53765   0.62416   0.00000  Uiso   1.00
H121   H     0.65470   0.91146   0.97506   0.00000  Uiso   1.00
H122   H     0.91279   0.41955   0.98287   0.00000  Uiso   1.00
H123   H     0.55856   0.50099   0.96215   0.00000  Uiso   1.00
H124   H     0.57534   0.45696   0.85298   0.00000  Uiso   1.00
H125   H     0.47786   0.63425   0.01939   0.00000  Uiso   1.00
H126   H     0.60025   0.40097   0.02309   0.00000  Uiso   1.00
H127   H     0.62897   0.42523   0.71776   0.00000  Uiso   1.00
H128   H     0.42343   0.79904   0.06867   0.00000  Uiso   1.00
H129   H     0.68151   0.30713   0.07648   0.00000  Uiso   1.00
O130   O     0.76050   0.45487   0.59717   0.00000  Uiso   1.00
O131   O     0.49084   0.94529   0.05755   0.00000  Uiso   1.00
O132   O     0.82944   0.29992   0.06780   0.00000  Uiso   1.00
N133   N     0.80351   0.51722   0.66117   0.00000  Uiso   1.00
N134   N     0.61134   0.86671   0.98923   0.00000  Uiso   1.00
N135   N     0.85263   0.40684   0.99655   0.00000  Uiso   1.00
N136   N     0.67907   0.45672   0.71154   0.00000  Uiso   1.00
N137   N     0.48690   0.80622   0.03960   0.00000  Uiso   1.00
N138   N     0.72818   0.34634   0.04692   0.00000  Uiso   1.00
C139   C     0.26680   0.10221   0.87786   0.00000  Uiso   1.00
C140   C     0.24651   0.06399   0.83045   0.00000  Uiso   1.00
C141   C     0.29877   0.06556   0.76253   0.00000  Uiso   1.00
C142   C     0.26869   0.02708   0.72788   0.00000  Uiso   1.00
C143   C     0.24926   0.97366   0.64937   0.00000  Uiso   1.00
C144   C     0.19355   0.16032   0.92086   0.00000  Uiso   1.00
C145   C     0.20127   0.24288   0.92896   0.00000  Uiso   1.00
C146   C     0.12660   0.28549   0.97042   0.00000  Uiso   1.00
C147   C     0.02495   0.38160   0.03231   0.00000  Uiso   1.00
C148   C     0.26005   0.03357   0.92287   0.00000  Uiso   1.00
C149   C     0.32368   0.00957   0.93267   0.00000  Uiso   1.00
C150   C     0.30500   0.94548   0.97583   0.00000  Uiso   1.00
C151   C     0.30660   0.84479   0.04084   0.00000  Uiso   1.00
C152   C     0.12045   0.03107   0.93710   0.00000  Uiso   1.00
C153   C     0.16702   0.02535   0.86263   0.00000  Uiso   1.00
C154   C     0.13685   0.98686   0.82807   0.00000  Uiso   1.00
C155   C     0.18906   0.98837   0.76011   0.00000  Uiso   1.00
C156   C     0.11406   0.12168   0.95304   0.00000  Uiso   1.00
C157   C     0.03936   0.16417   0.99450   0.00000  Uiso   1.00
C158   C     0.04697   0.24678   0.00266   0.00000  Uiso   1.00
C159   C     0.18056   0.99493   0.95504   0.00000  Uiso   1.00
C160   C     0.16177   0.93086   0.99820   0.00000  Uiso   1.00
C161   C     0.22536   0.90677   0.00807   0.00000  Uiso   1.00
H162   H     0.32868   0.13230   0.85282   0.00000  Uiso   1.00
H163   H     0.36028   0.09548   0.73765   0.00000  Uiso   1.00
H164   H     0.26280   0.27277   0.90406   0.00000  Uiso   1.00
H165   H     0.38519   0.03949   0.90776   0.00000  Uiso   1.00
H166   H     0.36024   0.03765   0.62416   0.00000  Uiso   1.00
H167   H     0.15470   0.41146   0.97506   0.00000  Uiso   1.00
H168   H     0.41279   0.91955   0.98287   0.00000  Uiso   1.00
H169   H     0.05856   0.00099   0.96215   0.00000  Uiso   1.00
H170   H     0.07534   0.95696   0.85298   0.00000  Uiso   1.00
H171   H     0.97786   0.13425   0.01939   0.00000  Uiso   1.00
H172   H     0.10025   0.90097   0.02309   0.00000  Uiso   1.00
H173   H     0.12897   0.92523   0.71776   0.00000  Uiso   1.00
H174   H     0.92343   0.29904   0.06867   0.00000  Uiso   1.00
H175   H     0.18151   0.80713   0.07648   0.00000  Uiso   1.00
O176   O     0.26050   0.95487   0.59717   0.00000  Uiso   1.00
O177   O     0.99084   0.44529   0.05755   0.00000  Uiso   1.00
O178   O     0.32944   0.79992   0.06780   0.00000  Uiso   1.00
N179   N     0.30351   0.01722   0.66117   0.00000  Uiso   1.00
N180   N     0.11134   0.36671   0.98923   0.00000  Uiso   1.00
N181   N     0.35263   0.90684   0.99655   0.00000  Uiso   1.00
N182   N     0.17907   0.95672   0.71154   0.00000  Uiso   1.00
N183   N     0.98690   0.30622   0.03960   0.00000  Uiso   1.00
N184   N     0.22818   0.84634   0.04692   0.00000  Uiso   1.00
C185   C     0.76680   0.39779   0.37786   0.00000  Uiso   1.00
C186   C     0.74651   0.43601   0.33045   0.00000  Uiso   1.00
C187   C     0.79877   0.43444   0.26253   0.00000  Uiso   1.00
C188   C     0.76869   0.47292   0.22788   0.00000  Uiso   1.00
C189   C     0.74926   0.52634   0.14937   0.00000  Uiso   1.00
C190   C     0.69355   0.33968   0.42086   0.00000  Uiso   1.00
C191   C     0.70127   0.25712   0.42896   0.00000  Uiso   1.00
C192   C     0.62660   0.21451   0.47042   0.00000  Uiso   1.00
C193   C     0.52495   0.11840   0.53231   0.00000  Uiso   1.00
C194   C     0.76005   0.46643   0.42287   0.00000  Uiso   1.00
C195   C     0.82368   0.49043   0.43267   0.00000  Uiso   1.00
C196   C     0.80500   0.55452   0.47583   0.00000  Uiso   1.00
C197   C     0.80660   0.65521   0.54084   0.00000  Uiso   1.00
C198   C     0.62045   0.46893   0.43710   0.00000  Uiso   1.00
C199   C     0.66702   0.47465   0.36263   0.00000  Uiso   1.00
C200   C     0.63685   0.51314   0.32807   0.00000  Uiso   1.00
C201   C     0.68906   0.51163   0.26011   0.00000  Uiso   1.00
C202   C     0.61406   0.37832   0.45304   0.00000  Uiso   1.00
C203   C     0.53936   0.33583   0.49450   0.00000  Uiso   1.00
C204   C     0.54697   0.25322   0.50266   0.00000  Uiso   1.00
C205   C     0.68056   0.50507   0.45504   0.00000  Uiso   1.00
C206   C     0.66177   0.56914   0.49820   0.00000  Uiso   1.00
C207   C     0.72536   0.59323   0.50807   0.00000  Uiso   1.00
H208   H     0.82868   0.36770   0.35282   0.00000  Uiso   1.00
H209   H     0.86028   0.40452   0.23765   0.00000  Uiso   1.00
H210   H     0.76280   0.22723   0.40406   0.00000  Uiso   1.00
H211   H     0.88519   0.46051   0.40776   0.00000  Uiso   1.00
H212   H     0.86024   0.46235   0.12416   0.00000  Uiso   1.00
H213   H     0.65470   0.08854   0.47506   0.00000  Uiso   1.00
H214   H     0.91279   0.58045   0.48287   0.00000  Uiso   1.00
H215   H     0.55856   0.49901   0.46215   0.00000  Uiso   1.00
H216   H     0.57534   0.54304   0.35298   0.00000  Uiso   1.00
H217   H     0.47786   0.36575   0.51939   0.00000  Uiso   1.00
H218   H     0.60025   0.59903   0.52309   0.00000  Uiso   1.00
H219   H     0.62897   0.57477   0.21776   0.00000  Uiso   1.00
H220   H     0.42343   0.20096   0.56867   0.00000  Uiso   1.00
H221   H     0.68151   0.69287   0.57648   0.00000  Uiso   1.00
O222   O     0.76050   0.54513   0.09717   0.00000  Uiso   1.00
O223   O     0.49084   0.05471   0.55755   0.00000  Uiso   1.00
O224   O     0.82944   0.70008   0.56780   0.00000  Uiso   1.00
N225   N     0.80351   0.48278   0.16117   0.00000  Uiso   1.00
N226   N     0.61134   0.13329   0.48923   0.00000  Uiso   1.00
N227   N     0.85263   0.59316   0.49655   0.00000  Uiso   1.00
N228   N     0.67907   0.54328   0.21154   0.00000  Uiso   1.00
N229   N     0.48690   0.19378   0.53960   0.00000  Uiso   1.00
N230   N     0.72818   0.65366   0.54692   0.00000  Uiso   1.00
C231   C     0.26680   0.89779   0.37786   0.00000  Uiso   1.00
C232   C     0.24651   0.93601   0.33045   0.00000  Uiso   1.00
C233   C     0.29877   0.93444   0.26253   0.00000  Uiso   1.00
C234   C     0.26869   0.97292   0.22788   0.00000  Uiso   1.00
C235   C     0.24926   0.02634   0.14937   0.00000  Uiso   1.00
C236   C     0.19355   0.83968   0.42086   0.00000  Uiso   1.00
C237   C     0.20127   0.75712   0.42896   0.00000  Uiso   1.00
C238   C     0.12660   0.71451   0.47042   0.00000  Uiso   1.00
C239   C     0.02495   0.61840   0.53231   0.00000  Uiso   1.00
C240   C     0.26005   0.96643   0.42287   0.00000  Uiso   1.00
C241   C     0.32368   0.99043   0.43267   0.00000  Uiso   1.00
C242   C     0.30500   0.05452   0.47583   0.00000  Uiso   1.00
C243   C     0.30660   0.15521   0.54084   0.00000  Uiso   1.00
C244   C     0.12045   0.96893   0.43710   0.00000  Uiso   1.00
C245   C     0.16702   0.97465   0.36263   0.00000  Uiso   1.00
C246   C     0.13685   0.01314   0.32807   0.00000  Uiso   1.00
C247   C     0.18906   0.01163   0.26011   0.00000  Uiso   1.00
C248   C     0.11406   0.87832   0.45304   0.00000  Uiso   1.00
C249   C     0.03936   0.83583   0.49450   0.00000  Uiso   1.00
C250   C     0.04697   0.75322   0.50266   0.00000  Uiso   1.00
C251   C     0.18056   0.00507   0.45504   0.00000  Uiso   1.00
C252   C     0.16177   0.06914   0.49820   0.00000  Uiso   1.00
C253   C     0.22536   0.09323   0.50807   0.00000  Uiso   1.00
H254   H     0.32868   0.86770   0.35282   0.00000  Uiso   1.00
H255   H     0.36028   0.90452   0.23765   0.00000  Uiso   1.00
H256   H     0.26280   0.72723   0.40406   0.00000  Uiso   1.00
H257   H     0.38519   0.96051   0.40776   0.00000  Uiso   1.00
H258   H     0.36024   0.96235   0.12416   0.00000  Uiso   1.00
H259   H     0.15470   0.58854   0.47506   0.00000  Uiso   1.00
H260   H     0.41279   0.08045   0.48287   0.00000  Uiso   1.00
H261   H     0.05856   0.99901   0.46215   0.00000  Uiso   1.00
H262   H     0.07534   0.04304   0.35298   0.00000  Uiso   1.00
H263   H     0.97786   0.86575   0.51939   0.00000  Uiso   1.00
H264   H     0.10025   0.09903   0.52309   0.00000  Uiso   1.00
H265   H     0.12897   0.07477   0.21776   0.00000  Uiso   1.00
H266   H     0.92343   0.70096   0.56867   0.00000  Uiso   1.00
H267   H     0.18151   0.19287   0.57648   0.00000  Uiso   1.00
O268   O     0.26050   0.04513   0.09717   0.00000  Uiso   1.00
O269   O     0.99084   0.55471   0.55755   0.00000  Uiso   1.00
O270   O     0.32944   0.20008   0.56780   0.00000  Uiso   1.00
N271   N     0.30351   0.98278   0.16117   0.00000  Uiso   1.00
N272   N     0.11134   0.63329   0.48923   0.00000  Uiso   1.00
N273   N     0.35263   0.09316   0.49655   0.00000  Uiso   1.00
N274   N     0.17907   0.04328   0.21154   0.00000  Uiso   1.00
N275   N     0.98690   0.69378   0.53960   0.00000  Uiso   1.00
N276   N     0.22818   0.15366   0.54692   0.00000  Uiso   1.00
C277   C     0.23320   0.39779   0.12214   0.00000  Uiso   1.00
C278   C     0.25349   0.43601   0.16955   0.00000  Uiso   1.00
C279   C     0.20123   0.43444   0.23747   0.00000  Uiso   1.00
C280   C     0.23131   0.47292   0.27212   0.00000  Uiso   1.00
C281   C     0.25074   0.52634   0.35063   0.00000  Uiso   1.00
C282   C     0.30645   0.33968   0.07914   0.00000  Uiso   1.00
C283   C     0.29873   0.25712   0.07104   0.00000  Uiso   1.00
C284   C     0.37340   0.21451   0.02958   0.00000  Uiso   1.00
C285   C     0.47505   0.11840   0.96769   0.00000  Uiso   1.00
C286   C     0.23995   0.46643   0.07713   0.00000  Uiso   1.00
C287   C     0.17632   0.49043   0.06733   0.00000  Uiso   1.00
C288   C     0.19500   0.55452   0.02417   0.00000  Uiso   1.00
C289   C     0.19340   0.65521   0.95916   0.00000  Uiso   1.00
C290   C     0.37955   0.46893   0.06290   0.00000  Uiso   1.00
C291   C     0.33298   0.47465   0.13737   0.00000  Uiso   1.00
C292   C     0.36315   0.51314   0.17193   0.00000  Uiso   1.00
C293   C     0.31094   0.51163   0.23989   0.00000  Uiso   1.00
C294   C     0.38594   0.37832   0.04696   0.00000  Uiso   1.00
C295   C     0.46064   0.33583   0.00550   0.00000  Uiso   1.00
C296   C     0.45303   0.25322   0.99734   0.00000  Uiso   1.00
C297   C     0.31944   0.50507   0.04496   0.00000  Uiso   1.00
C298   C     0.33823   0.56914   0.00180   0.00000  Uiso   1.00
C299   C     0.27464   0.59323   0.99193   0.00000  Uiso   1.00
H300   H     0.17132   0.36770   0.14718   0.00000  Uiso   1.00
H301   H     0.13972   0.40452   0.26235   0.00000  Uiso   1.00
H302   H     0.23720   0.22723   0.09594   0.00000  Uiso   1.00
H303   H     0.11481   0.46051   0.09224   0.00000  Uiso   1.00
H304   H     0.13976   0.46235   0.37584   0.00000  Uiso   1.00
H305   H     0.34530   0.08854   0.02494   0.00000  Uiso   1.00
H306   H     0.08721   0.58045   0.01713   0.00000  Uiso   1.00
H307   H     0.44144   0.49901   0.03785   0.00000  Uiso   1.00
H308   H     0.42466   0.54304   0.14702   0.00000  Uiso   1.00
H309   H     0.52214   0.36575   0.98061   0.00000  Uiso   1.00
H310   H     0.39975   0.59903   0.97691   0.00000  Uiso   1.00
H311   H     0.37103   0.57477   0.28224   0.00000  Uiso   1.00
H312   H     0.57657   0.20096   0.93133   0.00000  Uiso   1.00
H313   H     0.31849   0.69287   0.92352   0.00000  Uiso   1.00
O314   O     0.23950   0.54513   0.40283   0.00000  Uiso   1.00
O315   O     0.50916   0.05471   0.94245   0.00000  Uiso   1.00
O316   O     0.17056   0.70008   0.93220   0.00000  Uiso   1.00
N317   N     0.19649   0.48278   0.33883   0.00000  Uiso   1.00
N318   N     0.38866   0.13329   0.01077   0.00000  Uiso   1.00
N319   N     0.14737   0.59316   0.00345   0.00000  Uiso   1.00
N320   N     0.32093   0.54328   0.28846   0.00000  Uiso   1.00
N321   N     0.51310   0.19378   0.96040   0.00000  Uiso   1.00
N322   N     0.27182   0.65366   0.95308   0.00000  Uiso   1.00
C323   C     0.73320   0.89779   0.12214   0.00000  Uiso   1.00
C324   C     0.75349   0.93601   0.16955   0.00000  Uiso   1.00
C325   C     0.70123   0.93444   0.23747   0.00000  Uiso   1.00
C326   C     0.73131   0.97292   0.27212   0.00000  Uiso   1.00
C327   C     0.75074   0.02634   0.35063   0.00000  Uiso   1.00
C328   C     0.80645   0.83968   0.07914   0.00000  Uiso   1.00
C329   C     0.79873   0.75712   0.07104   0.00000  Uiso   1.00
C330   C     0.87340   0.71451   0.02958   0.00000  Uiso   1.00
C331   C     0.97505   0.61840   0.96769   0.00000  Uiso   1.00
C332   C     0.73995   0.96643   0.07713   0.00000  Uiso   1.00
C333   C     0.67632   0.99043   0.06733   0.00000  Uiso   1.00
C334   C     0.69500   0.05452   0.02417   0.00000  Uiso   1.00
C335   C     0.69340   0.15521   0.95916   0.00000  Uiso   1.00
C336   C     0.87955   0.96893   0.06290   0.00000  Uiso   1.00
C337   C     0.83298   0.97465   0.13737   0.00000  Uiso   1.00
C338   C     0.86315   0.01314   0.17193   0.00000  Uiso   1.00
C339   C     0.81094   0.01163   0.23989   0.00000  Uiso   1.00
C340   C     0.88594   0.87832   0.04696   0.00000  Uiso   1.00
C341   C     0.96064   0.83583   0.00550   0.00000  Uiso   1.00
C342   C     0.95303   0.75322   0.99734   0.00000  Uiso   1.00
C343   C     0.81944   0.00507   0.04496   0.00000  Uiso   1.00
C344   C     0.83823   0.06914   0.00180   0.00000  Uiso   1.00
C345   C     0.77464   0.09323   0.99193   0.00000  Uiso   1.00
H346   H     0.67132   0.86770   0.14718   0.00000  Uiso   1.00
H347   H     0.63972   0.90452   0.26235   0.00000  Uiso   1.00
H348   H     0.73720   0.72723   0.09594   0.00000  Uiso   1.00
H349   H     0.61481   0.96051   0.09224   0.00000  Uiso   1.00
H350   H     0.63976   0.96235   0.37584   0.00000  Uiso   1.00
H351   H     0.84530   0.58854   0.02494   0.00000  Uiso   1.00
H352   H     0.58721   0.08045   0.01713   0.00000  Uiso   1.00
H353   H     0.94144   0.99901   0.03785   0.00000  Uiso   1.00
H354   H     0.92466   0.04304   0.14702   0.00000  Uiso   1.00
H355   H     0.02214   0.86575   0.98061   0.00000  Uiso   1.00
H356   H     0.89975   0.09903   0.97691   0.00000  Uiso   1.00
H357   H     0.87103   0.07477   0.28224   0.00000  Uiso   1.00
H358   H     0.07657   0.70096   0.93133   0.00000  Uiso   1.00
H359   H     0.81849   0.19287   0.92352   0.00000  Uiso   1.00
O360   O     0.73950   0.04513   0.40283   0.00000  Uiso   1.00
O361   O     0.00916   0.55471   0.94245   0.00000  Uiso   1.00
O362   O     0.67056   0.20008   0.93220   0.00000  Uiso   1.00
N363   N     0.69649   0.98278   0.33883   0.00000  Uiso   1.00
N364   N     0.88866   0.63329   0.01077   0.00000  Uiso   1.00
N365   N     0.64737   0.09316   0.00345   0.00000  Uiso   1.00
N366   N     0.82093   0.04328   0.28846   0.00000  Uiso   1.00
N367   N     0.01310   0.69378   0.96040   0.00000  Uiso   1.00
N368   N     0.77182   0.15366   0.95308   0.00000  Uiso   1.00
