data_job_03441
_audit_creation_date              2018-12-19
_audit_creation_method            'Materials Studio'
_symmetry_space_group_name_H-M    'P1'
_symmetry_Int_Tables_number       1
_symmetry_cell_setting            triclinic
loop_
_symmetry_equiv_pos_as_xyz
  x,y,z
_cell_length_a                    26.0809
_cell_length_b                    24.9929
_cell_length_c                    11.9897
_cell_angle_alpha                 90.0000
_cell_angle_beta                  90.0000
_cell_angle_gamma                 90.0000
loop_
_atom_site_label
_atom_site_type_symbol
_atom_site_fract_x
_atom_site_fract_y
_atom_site_fract_z
_atom_site_U_iso_or_equiv
_atom_site_adp_type
_atom_site_occupancy
C1     C     0.34876   0.40492   0.57641   0.00000  Uiso   1.00
C2     C     0.37221   0.36887   0.48738   0.00000  Uiso   1.00
C3     C     0.38773   0.38496   0.38186   0.00000  Uiso   1.00
C4     C     0.40824   0.34591   0.31264   0.00000  Uiso   1.00
C5     C     0.44390   0.29802   0.16903   0.00000  Uiso   1.00
C6     C     0.29741   0.37970   0.60698   0.00000  Uiso   1.00
C7     C     0.25004   0.40489   0.60204   0.00000  Uiso   1.00
C8     C     0.20759   0.37495   0.63352   0.00000  Uiso   1.00
C9     C     0.12712   0.34389   0.67567   0.00000  Uiso   1.00
C10    C     0.38272   0.39908   0.67922   0.00000  Uiso   1.00
C11    C     0.40707   0.44056   0.73505   0.00000  Uiso   1.00
C12    C     0.43644   0.42694   0.82737   0.00000  Uiso   1.00
C13    C     0.48842   0.42595   0.98168   0.00000  Uiso   1.00
C14    C     0.35760   0.30698   0.64112   0.00000  Uiso   1.00
C15    C     0.37701   0.31567   0.52253   0.00000  Uiso   1.00
C16    C     0.39751   0.27659   0.45345   0.00000  Uiso   1.00
C17    C     0.41306   0.29261   0.34785   0.00000  Uiso   1.00
C18    C     0.30221   0.32650   0.64213   0.00000  Uiso   1.00
C19    C     0.25982   0.29652   0.67363   0.00000  Uiso   1.00
C20    C     0.21240   0.32166   0.66873   0.00000  Uiso   1.00
C21    C     0.38752   0.34588   0.71437   0.00000  Uiso   1.00
C22    C     0.41686   0.33219   0.80663   0.00000  Uiso   1.00
C23    C     0.44125   0.37364   0.86258   0.00000  Uiso   1.00
H24    H     0.34502   0.44634   0.54905   0.00000  Uiso   1.00
H25    H     0.38400   0.42613   0.35469   0.00000  Uiso   1.00
H26    H     0.24633   0.44606   0.57485   0.00000  Uiso   1.00
H27    H     0.40334   0.48172   0.70782   0.00000  Uiso   1.00
H28    H     0.42932   0.38025   0.15469   0.00000  Uiso   1.00
H29    H     0.13905   0.42229   0.61893   0.00000  Uiso   1.00
H30    H     0.47012   0.49749   0.89935   0.00000  Uiso   1.00
H31    H     0.36134   0.26556   0.66849   0.00000  Uiso   1.00
H32    H     0.40123   0.23542   0.48068   0.00000  Uiso   1.00
H33    H     0.26356   0.25536   0.70083   0.00000  Uiso   1.00
H34    H     0.42056   0.29102   0.83381   0.00000  Uiso   1.00
H35    H     0.44330   0.22547   0.25694   0.00000  Uiso   1.00
H36    H     0.15302   0.26750   0.72119   0.00000  Uiso   1.00
H37    H     0.48410   0.34270   0.00160   0.00000  Uiso   1.00
O38    O     0.46223   0.28630   0.08009   0.00000  Uiso   1.00
O39    O     0.08141   0.34145   0.68919   0.00000  Uiso   1.00
O40    O     0.51578   0.44010   0.05708   0.00000  Uiso   1.00
N41    N     0.42715   0.34796   0.20453   0.00000  Uiso   1.00
N42    N     0.15576   0.38726   0.63856   0.00000  Uiso   1.00
N43    N     0.46528   0.45756   0.90074   0.00000  Uiso   1.00
N44    N     0.43467   0.26468   0.25956   0.00000  Uiso   1.00
N45    N     0.16328   0.30397   0.69358   0.00000  Uiso   1.00
N46    N     0.47280   0.37428   0.95576   0.00000  Uiso   1.00
C47    C     0.15124   0.09508   0.07641   0.00000  Uiso   1.00
C48    C     0.12779   0.13113   0.98738   0.00000  Uiso   1.00
C49    C     0.11227   0.11504   0.88186   0.00000  Uiso   1.00
C50    C     0.09176   0.15409   0.81264   0.00000  Uiso   1.00
C51    C     0.05610   0.20198   0.66903   0.00000  Uiso   1.00
C52    C     0.20259   0.12030   0.10698   0.00000  Uiso   1.00
C53    C     0.24996   0.09511   0.10204   0.00000  Uiso   1.00
C54    C     0.29241   0.12505   0.13352   0.00000  Uiso   1.00
C55    C     0.37288   0.15611   0.17567   0.00000  Uiso   1.00
C56    C     0.11728   0.10092   0.17922   0.00000  Uiso   1.00
C57    C     0.09293   0.05944   0.23505   0.00000  Uiso   1.00
C58    C     0.06356   0.07306   0.32737   0.00000  Uiso   1.00
C59    C     0.01158   0.07405   0.48168   0.00000  Uiso   1.00
C60    C     0.14240   0.19302   0.14112   0.00000  Uiso   1.00
C61    C     0.12299   0.18433   0.02253   0.00000  Uiso   1.00
C62    C     0.10249   0.22341   0.95345   0.00000  Uiso   1.00
C63    C     0.08694   0.20739   0.84785   0.00000  Uiso   1.00
C64    C     0.19779   0.17350   0.14213   0.00000  Uiso   1.00
C65    C     0.24018   0.20348   0.17363   0.00000  Uiso   1.00
C66    C     0.28760   0.17834   0.16873   0.00000  Uiso   1.00
C67    C     0.11248   0.15412   0.21437   0.00000  Uiso   1.00
C68    C     0.08314   0.16781   0.30663   0.00000  Uiso   1.00
C69    C     0.05875   0.12636   0.36258   0.00000  Uiso   1.00
H70    H     0.15498   0.05366   0.04905   0.00000  Uiso   1.00
H71    H     0.11600   0.07387   0.85469   0.00000  Uiso   1.00
H72    H     0.25367   0.05394   0.07485   0.00000  Uiso   1.00
H73    H     0.09666   0.01828   0.20782   0.00000  Uiso   1.00
H74    H     0.07068   0.11975   0.65469   0.00000  Uiso   1.00
H75    H     0.36095   0.07771   0.11893   0.00000  Uiso   1.00
H76    H     0.02988   0.00251   0.39935   0.00000  Uiso   1.00
H77    H     0.13866   0.23444   0.16849   0.00000  Uiso   1.00
H78    H     0.09877   0.26458   0.98068   0.00000  Uiso   1.00
H79    H     0.23644   0.24464   0.20083   0.00000  Uiso   1.00
H80    H     0.07944   0.20898   0.33381   0.00000  Uiso   1.00
H81    H     0.05670   0.27453   0.75694   0.00000  Uiso   1.00
H82    H     0.34698   0.23250   0.22119   0.00000  Uiso   1.00
H83    H     0.01590   0.15730   0.50160   0.00000  Uiso   1.00
O84    O     0.03777   0.21370   0.58009   0.00000  Uiso   1.00
O85    O     0.41859   0.15855   0.18919   0.00000  Uiso   1.00
O86    O     0.98422   0.05990   0.55708   0.00000  Uiso   1.00
N87    N     0.07285   0.15204   0.70453   0.00000  Uiso   1.00
N88    N     0.34424   0.11274   0.13856   0.00000  Uiso   1.00
N89    N     0.03472   0.04244   0.40074   0.00000  Uiso   1.00
N90    N     0.06533   0.23532   0.75956   0.00000  Uiso   1.00
N91    N     0.33672   0.19603   0.19358   0.00000  Uiso   1.00
N92    N     0.02720   0.12572   0.45576   0.00000  Uiso   1.00
C93    C     0.65124   0.40492   0.92359   0.00000  Uiso   1.00
C94    C     0.62779   0.36887   0.01262   0.00000  Uiso   1.00
C95    C     0.61227   0.38496   0.11814   0.00000  Uiso   1.00
C96    C     0.59176   0.34591   0.18736   0.00000  Uiso   1.00
C97    C     0.55610   0.29802   0.33097   0.00000  Uiso   1.00
C98    C     0.70259   0.37970   0.89302   0.00000  Uiso   1.00
C99    C     0.74996   0.40489   0.89796   0.00000  Uiso   1.00
C100   C     0.79241   0.37495   0.86648   0.00000  Uiso   1.00
C101   C     0.87288   0.34389   0.82433   0.00000  Uiso   1.00
C102   C     0.61728   0.39908   0.82078   0.00000  Uiso   1.00
C103   C     0.59293   0.44056   0.76495   0.00000  Uiso   1.00
C104   C     0.56356   0.42694   0.67263   0.00000  Uiso   1.00
C105   C     0.51158   0.42595   0.51832   0.00000  Uiso   1.00
C106   C     0.64240   0.30698   0.85888   0.00000  Uiso   1.00
C107   C     0.62299   0.31567   0.97747   0.00000  Uiso   1.00
C108   C     0.60249   0.27659   0.04655   0.00000  Uiso   1.00
C109   C     0.58694   0.29261   0.15215   0.00000  Uiso   1.00
C110   C     0.69779   0.32650   0.85787   0.00000  Uiso   1.00
C111   C     0.74018   0.29652   0.82637   0.00000  Uiso   1.00
C112   C     0.78760   0.32166   0.83127   0.00000  Uiso   1.00
C113   C     0.61248   0.34588   0.78563   0.00000  Uiso   1.00
C114   C     0.58314   0.33219   0.69337   0.00000  Uiso   1.00
C115   C     0.55875   0.37364   0.63742   0.00000  Uiso   1.00
H116   H     0.65498   0.44634   0.95095   0.00000  Uiso   1.00
H117   H     0.61600   0.42613   0.14531   0.00000  Uiso   1.00
H118   H     0.75367   0.44606   0.92515   0.00000  Uiso   1.00
H119   H     0.59666   0.48172   0.79218   0.00000  Uiso   1.00
H120   H     0.57068   0.38025   0.34531   0.00000  Uiso   1.00
H121   H     0.86095   0.42229   0.88107   0.00000  Uiso   1.00
H122   H     0.52988   0.49749   0.60065   0.00000  Uiso   1.00
H123   H     0.63866   0.26556   0.83151   0.00000  Uiso   1.00
H124   H     0.59877   0.23542   0.01932   0.00000  Uiso   1.00
H125   H     0.73644   0.25536   0.79917   0.00000  Uiso   1.00
H126   H     0.57944   0.29102   0.66619   0.00000  Uiso   1.00
H127   H     0.55670   0.22547   0.24306   0.00000  Uiso   1.00
H128   H     0.84698   0.26750   0.77881   0.00000  Uiso   1.00
H129   H     0.51590   0.34270   0.49840   0.00000  Uiso   1.00
O130   O     0.53777   0.28630   0.41991   0.00000  Uiso   1.00
O131   O     0.91859   0.34145   0.81081   0.00000  Uiso   1.00
O132   O     0.48422   0.44010   0.44292   0.00000  Uiso   1.00
N133   N     0.57285   0.34796   0.29547   0.00000  Uiso   1.00
N134   N     0.84424   0.38726   0.86144   0.00000  Uiso   1.00
N135   N     0.53472   0.45756   0.59926   0.00000  Uiso   1.00
N136   N     0.56533   0.26468   0.24044   0.00000  Uiso   1.00
N137   N     0.83672   0.30397   0.80642   0.00000  Uiso   1.00
N138   N     0.52720   0.37428   0.54424   0.00000  Uiso   1.00
C139   C     0.84876   0.09508   0.42359   0.00000  Uiso   1.00
C140   C     0.87221   0.13113   0.51262   0.00000  Uiso   1.00
C141   C     0.88773   0.11504   0.61814   0.00000  Uiso   1.00
C142   C     0.90824   0.15409   0.68736   0.00000  Uiso   1.00
C143   C     0.94390   0.20198   0.83097   0.00000  Uiso   1.00
C144   C     0.79741   0.12030   0.39302   0.00000  Uiso   1.00
C145   C     0.75004   0.09511   0.39796   0.00000  Uiso   1.00
C146   C     0.70759   0.12505   0.36648   0.00000  Uiso   1.00
C147   C     0.62712   0.15611   0.32433   0.00000  Uiso   1.00
C148   C     0.88272   0.10092   0.32078   0.00000  Uiso   1.00
C149   C     0.90707   0.05944   0.26495   0.00000  Uiso   1.00
C150   C     0.93644   0.07306   0.17263   0.00000  Uiso   1.00
C151   C     0.98842   0.07405   0.01832   0.00000  Uiso   1.00
C152   C     0.85760   0.19302   0.35888   0.00000  Uiso   1.00
C153   C     0.87701   0.18433   0.47747   0.00000  Uiso   1.00
C154   C     0.89751   0.22341   0.54655   0.00000  Uiso   1.00
C155   C     0.91306   0.20739   0.65215   0.00000  Uiso   1.00
C156   C     0.80221   0.17350   0.35787   0.00000  Uiso   1.00
C157   C     0.75982   0.20348   0.32637   0.00000  Uiso   1.00
C158   C     0.71240   0.17834   0.33127   0.00000  Uiso   1.00
C159   C     0.88752   0.15412   0.28563   0.00000  Uiso   1.00
C160   C     0.91686   0.16781   0.19337   0.00000  Uiso   1.00
C161   C     0.94125   0.12636   0.13742   0.00000  Uiso   1.00
H162   H     0.84502   0.05366   0.45095   0.00000  Uiso   1.00
H163   H     0.88400   0.07387   0.64531   0.00000  Uiso   1.00
H164   H     0.74633   0.05394   0.42515   0.00000  Uiso   1.00
H165   H     0.90334   0.01828   0.29218   0.00000  Uiso   1.00
H166   H     0.92932   0.11975   0.84531   0.00000  Uiso   1.00
H167   H     0.63905   0.07771   0.38107   0.00000  Uiso   1.00
H168   H     0.97012   0.00251   0.10065   0.00000  Uiso   1.00
H169   H     0.86134   0.23444   0.33151   0.00000  Uiso   1.00
H170   H     0.90123   0.26458   0.51932   0.00000  Uiso   1.00
H171   H     0.76356   0.24464   0.29917   0.00000  Uiso   1.00
H172   H     0.92056   0.20898   0.16619   0.00000  Uiso   1.00
H173   H     0.94330   0.27453   0.74306   0.00000  Uiso   1.00
H174   H     0.65302   0.23250   0.27881   0.00000  Uiso   1.00
H175   H     0.98410   0.15730   0.99840   0.00000  Uiso   1.00
O176   O     0.96223   0.21370   0.91991   0.00000  Uiso   1.00
O177   O     0.58141   0.15855   0.31081   0.00000  Uiso   1.00
O178   O     0.01578   0.05990   0.94292   0.00000  Uiso   1.00
N179   N     0.92715   0.15204   0.79547   0.00000  Uiso   1.00
N180   N     0.65576   0.11274   0.36144   0.00000  Uiso   1.00
N181   N     0.96528   0.04244   0.09926   0.00000  Uiso   1.00
N182   N     0.93467   0.23532   0.74044   0.00000  Uiso   1.00
N183   N     0.66328   0.19603   0.30642   0.00000  Uiso   1.00
N184   N     0.97280   0.12572   0.04424   0.00000  Uiso   1.00
C185   C     0.65124   0.59508   0.42359   0.00000  Uiso   1.00
C186   C     0.62779   0.63113   0.51262   0.00000  Uiso   1.00
C187   C     0.61227   0.61504   0.61814   0.00000  Uiso   1.00
C188   C     0.59176   0.65409   0.68736   0.00000  Uiso   1.00
C189   C     0.55610   0.70198   0.83097   0.00000  Uiso   1.00
C190   C     0.70259   0.62030   0.39302   0.00000  Uiso   1.00
C191   C     0.74996   0.59511   0.39796   0.00000  Uiso   1.00
C192   C     0.79241   0.62505   0.36648   0.00000  Uiso   1.00
C193   C     0.87288   0.65611   0.32433   0.00000  Uiso   1.00
C194   C     0.61728   0.60092   0.32078   0.00000  Uiso   1.00
C195   C     0.59293   0.55944   0.26495   0.00000  Uiso   1.00
C196   C     0.56356   0.57306   0.17263   0.00000  Uiso   1.00
C197   C     0.51158   0.57405   0.01832   0.00000  Uiso   1.00
C198   C     0.64240   0.69302   0.35888   0.00000  Uiso   1.00
C199   C     0.62299   0.68433   0.47747   0.00000  Uiso   1.00
C200   C     0.60249   0.72341   0.54655   0.00000  Uiso   1.00
C201   C     0.58694   0.70739   0.65215   0.00000  Uiso   1.00
C202   C     0.69779   0.67350   0.35787   0.00000  Uiso   1.00
C203   C     0.74018   0.70348   0.32637   0.00000  Uiso   1.00
C204   C     0.78760   0.67834   0.33127   0.00000  Uiso   1.00
C205   C     0.61248   0.65412   0.28563   0.00000  Uiso   1.00
C206   C     0.58314   0.66781   0.19337   0.00000  Uiso   1.00
C207   C     0.55875   0.62636   0.13742   0.00000  Uiso   1.00
H208   H     0.65498   0.55366   0.45095   0.00000  Uiso   1.00
H209   H     0.61600   0.57387   0.64531   0.00000  Uiso   1.00
H210   H     0.75367   0.55394   0.42515   0.00000  Uiso   1.00
H211   H     0.59666   0.51828   0.29218   0.00000  Uiso   1.00
H212   H     0.57068   0.61975   0.84531   0.00000  Uiso   1.00
H213   H     0.86095   0.57771   0.38107   0.00000  Uiso   1.00
H214   H     0.52988   0.50251   0.10065   0.00000  Uiso   1.00
H215   H     0.63866   0.73444   0.33151   0.00000  Uiso   1.00
H216   H     0.59877   0.76458   0.51932   0.00000  Uiso   1.00
H217   H     0.73644   0.74464   0.29917   0.00000  Uiso   1.00
H218   H     0.57944   0.70898   0.16619   0.00000  Uiso   1.00
H219   H     0.55670   0.77453   0.74306   0.00000  Uiso   1.00
H220   H     0.84698   0.73250   0.27881   0.00000  Uiso   1.00
H221   H     0.51590   0.65730   0.99840   0.00000  Uiso   1.00
O222   O     0.53777   0.71370   0.91991   0.00000  Uiso   1.00
O223   O     0.91859   0.65855   0.31081   0.00000  Uiso   1.00
O224   O     0.48422   0.55990   0.94292   0.00000  Uiso   1.00
N225   N     0.57285   0.65204   0.79547   0.00000  Uiso   1.00
N226   N     0.84424   0.61274   0.36144   0.00000  Uiso   1.00
N227   N     0.53472   0.54244   0.09926   0.00000  Uiso   1.00
N228   N     0.56533   0.73532   0.74044   0.00000  Uiso   1.00
N229   N     0.83672   0.69603   0.30642   0.00000  Uiso   1.00
N230   N     0.52720   0.62572   0.04424   0.00000  Uiso   1.00
C231   C     0.84876   0.90492   0.92359   0.00000  Uiso   1.00
C232   C     0.87221   0.86887   0.01262   0.00000  Uiso   1.00
C233   C     0.88773   0.88496   0.11814   0.00000  Uiso   1.00
C234   C     0.90824   0.84591   0.18736   0.00000  Uiso   1.00
C235   C     0.94390   0.79802   0.33097   0.00000  Uiso   1.00
C236   C     0.79741   0.87970   0.89302   0.00000  Uiso   1.00
C237   C     0.75004   0.90489   0.89796   0.00000  Uiso   1.00
C238   C     0.70759   0.87495   0.86648   0.00000  Uiso   1.00
C239   C     0.62712   0.84389   0.82433   0.00000  Uiso   1.00
C240   C     0.88272   0.89908   0.82078   0.00000  Uiso   1.00
C241   C     0.90707   0.94056   0.76495   0.00000  Uiso   1.00
C242   C     0.93644   0.92694   0.67263   0.00000  Uiso   1.00
C243   C     0.98842   0.92595   0.51832   0.00000  Uiso   1.00
C244   C     0.85760   0.80698   0.85888   0.00000  Uiso   1.00
C245   C     0.87701   0.81567   0.97747   0.00000  Uiso   1.00
C246   C     0.89751   0.77659   0.04655   0.00000  Uiso   1.00
C247   C     0.91306   0.79261   0.15215   0.00000  Uiso   1.00
C248   C     0.80221   0.82650   0.85787   0.00000  Uiso   1.00
C249   C     0.75982   0.79652   0.82637   0.00000  Uiso   1.00
C250   C     0.71240   0.82166   0.83127   0.00000  Uiso   1.00
C251   C     0.88752   0.84588   0.78563   0.00000  Uiso   1.00
C252   C     0.91686   0.83219   0.69337   0.00000  Uiso   1.00
C253   C     0.94125   0.87364   0.63742   0.00000  Uiso   1.00
H254   H     0.84502   0.94634   0.95095   0.00000  Uiso   1.00
H255   H     0.88400   0.92613   0.14531   0.00000  Uiso   1.00
H256   H     0.74633   0.94606   0.92515   0.00000  Uiso   1.00
H257   H     0.90334   0.98172   0.79218   0.00000  Uiso   1.00
H258   H     0.92932   0.88025   0.34531   0.00000  Uiso   1.00
H259   H     0.63905   0.92229   0.88107   0.00000  Uiso   1.00
H260   H     0.97012   0.99749   0.60065   0.00000  Uiso   1.00
H261   H     0.86134   0.76556   0.83151   0.00000  Uiso   1.00
H262   H     0.90123   0.73542   0.01932   0.00000  Uiso   1.00
H263   H     0.76356   0.75536   0.79917   0.00000  Uiso   1.00
H264   H     0.92056   0.79102   0.66619   0.00000  Uiso   1.00
H265   H     0.94330   0.72547   0.24306   0.00000  Uiso   1.00
H266   H     0.65302   0.76750   0.77881   0.00000  Uiso   1.00
H267   H     0.98410   0.84270   0.49840   0.00000  Uiso   1.00
O268   O     0.96223   0.78630   0.41991   0.00000  Uiso   1.00
O269   O     0.58141   0.84145   0.81081   0.00000  Uiso   1.00
O270   O     0.01578   0.94010   0.44292   0.00000  Uiso   1.00
N271   N     0.92715   0.84796   0.29547   0.00000  Uiso   1.00
N272   N     0.65576   0.88726   0.86144   0.00000  Uiso   1.00
N273   N     0.96528   0.95756   0.59926   0.00000  Uiso   1.00
N274   N     0.93467   0.76468   0.24044   0.00000  Uiso   1.00
N275   N     0.66328   0.80397   0.80642   0.00000  Uiso   1.00
N276   N     0.97280   0.87428   0.54424   0.00000  Uiso   1.00
C277   C     0.34876   0.59508   0.07641   0.00000  Uiso   1.00
C278   C     0.37221   0.63113   0.98738   0.00000  Uiso   1.00
C279   C     0.38773   0.61504   0.88186   0.00000  Uiso   1.00
C280   C     0.40824   0.65409   0.81264   0.00000  Uiso   1.00
C281   C     0.44390   0.70198   0.66903   0.00000  Uiso   1.00
C282   C     0.29741   0.62030   0.10698   0.00000  Uiso   1.00
C283   C     0.25004   0.59511   0.10204   0.00000  Uiso   1.00
C284   C     0.20759   0.62505   0.13352   0.00000  Uiso   1.00
C285   C     0.12712   0.65611   0.17567   0.00000  Uiso   1.00
C286   C     0.38272   0.60092   0.17922   0.00000  Uiso   1.00
C287   C     0.40707   0.55944   0.23505   0.00000  Uiso   1.00
C288   C     0.43644   0.57306   0.32737   0.00000  Uiso   1.00
C289   C     0.48842   0.57405   0.48168   0.00000  Uiso   1.00
C290   C     0.35760   0.69302   0.14112   0.00000  Uiso   1.00
C291   C     0.37701   0.68433   0.02253   0.00000  Uiso   1.00
C292   C     0.39751   0.72341   0.95345   0.00000  Uiso   1.00
C293   C     0.41306   0.70739   0.84785   0.00000  Uiso   1.00
C294   C     0.30221   0.67350   0.14213   0.00000  Uiso   1.00
C295   C     0.25982   0.70348   0.17363   0.00000  Uiso   1.00
C296   C     0.21240   0.67834   0.16873   0.00000  Uiso   1.00
C297   C     0.38752   0.65412   0.21437   0.00000  Uiso   1.00
C298   C     0.41686   0.66781   0.30663   0.00000  Uiso   1.00
C299   C     0.44125   0.62636   0.36258   0.00000  Uiso   1.00
H300   H     0.34502   0.55366   0.04905   0.00000  Uiso   1.00
H301   H     0.38400   0.57387   0.85469   0.00000  Uiso   1.00
H302   H     0.24633   0.55394   0.07485   0.00000  Uiso   1.00
H303   H     0.40334   0.51828   0.20782   0.00000  Uiso   1.00
H304   H     0.42932   0.61975   0.65469   0.00000  Uiso   1.00
H305   H     0.13905   0.57771   0.11893   0.00000  Uiso   1.00
H306   H     0.47012   0.50251   0.39935   0.00000  Uiso   1.00
H307   H     0.36134   0.73444   0.16849   0.00000  Uiso   1.00
H308   H     0.40123   0.76458   0.98068   0.00000  Uiso   1.00
H309   H     0.26356   0.74464   0.20083   0.00000  Uiso   1.00
H310   H     0.42056   0.70898   0.33381   0.00000  Uiso   1.00
H311   H     0.44330   0.77453   0.75694   0.00000  Uiso   1.00
H312   H     0.15302   0.73250   0.22119   0.00000  Uiso   1.00
H313   H     0.48410   0.65730   0.50160   0.00000  Uiso   1.00
O314   O     0.46223   0.71370   0.58009   0.00000  Uiso   1.00
O315   O     0.08141   0.65855   0.18919   0.00000  Uiso   1.00
O316   O     0.51578   0.55990   0.55708   0.00000  Uiso   1.00
N317   N     0.42715   0.65204   0.70453   0.00000  Uiso   1.00
N318   N     0.15576   0.61274   0.13856   0.00000  Uiso   1.00
N319   N     0.46528   0.54244   0.40074   0.00000  Uiso   1.00
N320   N     0.43467   0.73532   0.75956   0.00000  Uiso   1.00
N321   N     0.16328   0.69603   0.19358   0.00000  Uiso   1.00
N322   N     0.47280   0.62572   0.45576   0.00000  Uiso   1.00
C323   C     0.15124   0.90492   0.57641   0.00000  Uiso   1.00
C324   C     0.12779   0.86887   0.48738   0.00000  Uiso   1.00
C325   C     0.11227   0.88496   0.38186   0.00000  Uiso   1.00
C326   C     0.09176   0.84591   0.31264   0.00000  Uiso   1.00
C327   C     0.05610   0.79802   0.16903   0.00000  Uiso   1.00
C328   C     0.20259   0.87970   0.60698   0.00000  Uiso   1.00
C329   C     0.24996   0.90489   0.60204   0.00000  Uiso   1.00
C330   C     0.29241   0.87495   0.63352   0.00000  Uiso   1.00
C331   C     0.37288   0.84389   0.67567   0.00000  Uiso   1.00
C332   C     0.11728   0.89908   0.67922   0.00000  Uiso   1.00
C333   C     0.09293   0.94056   0.73505   0.00000  Uiso   1.00
C334   C     0.06356   0.92694   0.82737   0.00000  Uiso   1.00
C335   C     0.01158   0.92595   0.98168   0.00000  Uiso   1.00
C336   C     0.14240   0.80698   0.64112   0.00000  Uiso   1.00
C337   C     0.12299   0.81567   0.52253   0.00000  Uiso   1.00
C338   C     0.10249   0.77659   0.45345   0.00000  Uiso   1.00
C339   C     0.08694   0.79261   0.34785   0.00000  Uiso   1.00
C340   C     0.19779   0.82650   0.64213   0.00000  Uiso   1.00
C341   C     0.24018   0.79652   0.67363   0.00000  Uiso   1.00
C342   C     0.28760   0.82166   0.66873   0.00000  Uiso   1.00
C343   C     0.11248   0.84588   0.71437   0.00000  Uiso   1.00
C344   C     0.08314   0.83219   0.80663   0.00000  Uiso   1.00
C345   C     0.05875   0.87364   0.86258   0.00000  Uiso   1.00
H346   H     0.15498   0.94634   0.54905   0.00000  Uiso   1.00
H347   H     0.11600   0.92613   0.35469   0.00000  Uiso   1.00
H348   H     0.25367   0.94606   0.57485   0.00000  Uiso   1.00
H349   H     0.09666   0.98172   0.70782   0.00000  Uiso   1.00
H350   H     0.07068   0.88025   0.15469   0.00000  Uiso   1.00
H351   H     0.36095   0.92229   0.61893   0.00000  Uiso   1.00
H352   H     0.02988   0.99749   0.89935   0.00000  Uiso   1.00
H353   H     0.13866   0.76556   0.66849   0.00000  Uiso   1.00
H354   H     0.09877   0.73542   0.48068   0.00000  Uiso   1.00
H355   H     0.23644   0.75536   0.70083   0.00000  Uiso   1.00
H356   H     0.07944   0.79102   0.83381   0.00000  Uiso   1.00
H357   H     0.05670   0.72547   0.25694   0.00000  Uiso   1.00
H358   H     0.34698   0.76750   0.72119   0.00000  Uiso   1.00
H359   H     0.01590   0.84270   0.00160   0.00000  Uiso   1.00
O360   O     0.03777   0.78630   0.08009   0.00000  Uiso   1.00
O361   O     0.41859   0.84145   0.68919   0.00000  Uiso   1.00
O362   O     0.98422   0.94010   0.05708   0.00000  Uiso   1.00
N363   N     0.07285   0.84796   0.20453   0.00000  Uiso   1.00
N364   N     0.34424   0.88726   0.63856   0.00000  Uiso   1.00
N365   N     0.03472   0.95756   0.90074   0.00000  Uiso   1.00
N366   N     0.06533   0.76468   0.25956   0.00000  Uiso   1.00
N367   N     0.33672   0.80397   0.69358   0.00000  Uiso   1.00
N368   N     0.02720   0.87428   0.95576   0.00000  Uiso   1.00
