data_job_03291
_audit_creation_date              2018-12-19
_audit_creation_method            'Materials Studio'
_symmetry_space_group_name_H-M    'P1'
_symmetry_Int_Tables_number       1
_symmetry_cell_setting            triclinic
loop_
_symmetry_equiv_pos_as_xyz
  x,y,z
_cell_length_a                    11.9950
_cell_length_b                    16.2643
_cell_length_c                    26.1070
_cell_angle_alpha                 90.0000
_cell_angle_beta                  90.0000
_cell_angle_gamma                 90.0000
loop_
_atom_site_label
_atom_site_type_symbol
_atom_site_fract_x
_atom_site_fract_y
_atom_site_fract_z
_atom_site_U_iso_or_equiv
_atom_site_adp_type
_atom_site_occupancy
C1     C     0.65559   0.60721   0.39074   0.00000  Uiso   1.00
C2     C     0.75152   0.61536   0.42873   0.00000  Uiso   1.00
C3     C     0.75055   0.66244   0.47306   0.00000  Uiso   1.00
C4     C     0.84662   0.66178   0.50271   0.00000  Uiso   1.00
C5     C     0.98136   0.68149   0.56385   0.00000  Uiso   1.00
C6     C     0.70250   0.63262   0.33881   0.00000  Uiso   1.00
C7     C     0.66030   0.69420   0.30753   0.00000  Uiso   1.00
C8     C     0.71510   0.70806   0.26149   0.00000  Uiso   1.00
C9     C     0.77369   0.75451   0.18301   0.00000  Uiso   1.00
C10    C     0.63086   0.51547   0.38675   0.00000  Uiso   1.00
C11    C     0.52841   0.47855   0.39576   0.00000  Uiso   1.00
C12    C     0.52289   0.39377   0.39007   0.00000  Uiso   1.00
C13    C     0.47024   0.25833   0.38601   0.00000  Uiso   1.00
C14    C     0.82794   0.52230   0.36458   0.00000  Uiso   1.00
C15    C     0.84514   0.56924   0.41452   0.00000  Uiso   1.00
C16    C     0.94124   0.56850   0.44411   0.00000  Uiso   1.00
C17    C     0.94041   0.61557   0.48848   0.00000  Uiso   1.00
C18    C     0.79611   0.58650   0.32460   0.00000  Uiso   1.00
C19    C     0.85099   0.60026   0.27859   0.00000  Uiso   1.00
C20    C     0.80889   0.66185   0.24725   0.00000  Uiso   1.00
C21    C     0.72447   0.46935   0.37254   0.00000  Uiso   1.00
C22    C     0.71910   0.38461   0.36682   0.00000  Uiso   1.00
C23    C     0.61667   0.34757   0.37583   0.00000  Uiso   1.00
H24    H     0.58271   0.64312   0.40180   0.00000  Uiso   1.00
H25    H     0.67809   0.69813   0.48404   0.00000  Uiso   1.00
H26    H     0.58785   0.72988   0.31854   0.00000  Uiso   1.00
H27    H     0.45599   0.51426   0.40676   0.00000  Uiso   1.00
H28    H     0.82514   0.73881   0.56894   0.00000  Uiso   1.00
H29    H     0.63484   0.80573   0.21997   0.00000  Uiso   1.00
H30    H     0.35677   0.35106   0.40599   0.00000  Uiso   1.00
H31    H     0.90083   0.48640   0.35351   0.00000  Uiso   1.00
H32    H     0.01367   0.53281   0.43311   0.00000  Uiso   1.00
H33    H     0.92343   0.56456   0.26760   0.00000  Uiso   1.00
H34    H     0.79156   0.34894   0.35582   0.00000  Uiso   1.00
H35    H     0.09751   0.60463   0.52760   0.00000  Uiso   1.00
H36    H     0.90720   0.67155   0.17863   0.00000  Uiso   1.00
H37    H     0.62915   0.21688   0.36465   0.00000  Uiso   1.00
O38    O     0.02983   0.70510   0.60149   0.00000  Uiso   1.00
O39    O     0.78014   0.79289   0.14365   0.00000  Uiso   1.00
O40    O     0.41534   0.19637   0.38771   0.00000  Uiso   1.00
N41    N     0.87375   0.70085   0.54830   0.00000  Uiso   1.00
N42    N     0.69584   0.76343   0.22203   0.00000  Uiso   1.00
N43    N     0.43586   0.33834   0.39593   0.00000  Uiso   1.00
N44    N     0.02031   0.62865   0.52605   0.00000  Uiso   1.00
N45    N     0.84240   0.69122   0.19978   0.00000  Uiso   1.00
N46    N     0.58242   0.26614   0.37369   0.00000  Uiso   1.00
C47    C     0.84441   0.39279   0.89074   0.00000  Uiso   1.00
C48    C     0.74848   0.38464   0.92873   0.00000  Uiso   1.00
C49    C     0.74945   0.33756   0.97306   0.00000  Uiso   1.00
C50    C     0.65338   0.33822   0.00271   0.00000  Uiso   1.00
C51    C     0.51864   0.31851   0.06385   0.00000  Uiso   1.00
C52    C     0.79750   0.36738   0.83881   0.00000  Uiso   1.00
C53    C     0.83970   0.30580   0.80753   0.00000  Uiso   1.00
C54    C     0.78490   0.29194   0.76149   0.00000  Uiso   1.00
C55    C     0.72631   0.24549   0.68301   0.00000  Uiso   1.00
C56    C     0.86914   0.48453   0.88675   0.00000  Uiso   1.00
C57    C     0.97159   0.52145   0.89576   0.00000  Uiso   1.00
C58    C     0.97711   0.60623   0.89007   0.00000  Uiso   1.00
C59    C     0.02976   0.74167   0.88601   0.00000  Uiso   1.00
C60    C     0.67206   0.47770   0.86458   0.00000  Uiso   1.00
C61    C     0.65486   0.43076   0.91452   0.00000  Uiso   1.00
C62    C     0.55876   0.43150   0.94411   0.00000  Uiso   1.00
C63    C     0.55959   0.38443   0.98848   0.00000  Uiso   1.00
C64    C     0.70389   0.41350   0.82460   0.00000  Uiso   1.00
C65    C     0.64901   0.39974   0.77859   0.00000  Uiso   1.00
C66    C     0.69111   0.33815   0.74725   0.00000  Uiso   1.00
C67    C     0.77553   0.53065   0.87254   0.00000  Uiso   1.00
C68    C     0.78090   0.61539   0.86682   0.00000  Uiso   1.00
C69    C     0.88333   0.65243   0.87583   0.00000  Uiso   1.00
H70    H     0.91729   0.35688   0.90180   0.00000  Uiso   1.00
H71    H     0.82191   0.30187   0.98404   0.00000  Uiso   1.00
H72    H     0.91215   0.27012   0.81854   0.00000  Uiso   1.00
H73    H     0.04401   0.48574   0.90676   0.00000  Uiso   1.00
H74    H     0.67486   0.26119   0.06894   0.00000  Uiso   1.00
H75    H     0.86516   0.19427   0.71997   0.00000  Uiso   1.00
H76    H     0.14323   0.64894   0.90599   0.00000  Uiso   1.00
H77    H     0.59917   0.51360   0.85351   0.00000  Uiso   1.00
H78    H     0.48633   0.46719   0.93311   0.00000  Uiso   1.00
H79    H     0.57657   0.43544   0.76760   0.00000  Uiso   1.00
H80    H     0.70844   0.65106   0.85582   0.00000  Uiso   1.00
H81    H     0.40249   0.39537   0.02760   0.00000  Uiso   1.00
H82    H     0.59280   0.32845   0.67863   0.00000  Uiso   1.00
H83    H     0.87085   0.78312   0.86465   0.00000  Uiso   1.00
O84    O     0.47017   0.29490   0.10149   0.00000  Uiso   1.00
O85    O     0.71986   0.20711   0.64365   0.00000  Uiso   1.00
O86    O     0.08466   0.80363   0.88771   0.00000  Uiso   1.00
N87    N     0.62625   0.29915   0.04830   0.00000  Uiso   1.00
N88    N     0.80416   0.23657   0.72203   0.00000  Uiso   1.00
N89    N     0.06414   0.66166   0.89593   0.00000  Uiso   1.00
N90    N     0.47969   0.37135   0.02605   0.00000  Uiso   1.00
N91    N     0.65760   0.30878   0.69978   0.00000  Uiso   1.00
N92    N     0.91758   0.73386   0.87369   0.00000  Uiso   1.00
C93    C     0.34441   0.10721   0.10926   0.00000  Uiso   1.00
C94    C     0.24848   0.11536   0.07127   0.00000  Uiso   1.00
C95    C     0.24945   0.16244   0.02694   0.00000  Uiso   1.00
C96    C     0.15338   0.16178   0.99729   0.00000  Uiso   1.00
C97    C     0.01864   0.18149   0.93615   0.00000  Uiso   1.00
C98    C     0.29750   0.13262   0.16119   0.00000  Uiso   1.00
C99    C     0.33970   0.19420   0.19247   0.00000  Uiso   1.00
C100   C     0.28490   0.20806   0.23851   0.00000  Uiso   1.00
C101   C     0.22631   0.25451   0.31699   0.00000  Uiso   1.00
C102   C     0.36914   0.01547   0.11325   0.00000  Uiso   1.00
C103   C     0.47159   0.97855   0.10424   0.00000  Uiso   1.00
C104   C     0.47711   0.89377   0.10993   0.00000  Uiso   1.00
C105   C     0.52976   0.75833   0.11399   0.00000  Uiso   1.00
C106   C     0.17206   0.02230   0.13542   0.00000  Uiso   1.00
C107   C     0.15486   0.06924   0.08548   0.00000  Uiso   1.00
C108   C     0.05876   0.06850   0.05589   0.00000  Uiso   1.00
C109   C     0.05959   0.11557   0.01152   0.00000  Uiso   1.00
C110   C     0.20389   0.08650   0.17540   0.00000  Uiso   1.00
C111   C     0.14901   0.10026   0.22141   0.00000  Uiso   1.00
C112   C     0.19111   0.16185   0.25275   0.00000  Uiso   1.00
C113   C     0.27553   0.96935   0.12746   0.00000  Uiso   1.00
C114   C     0.28090   0.88461   0.13318   0.00000  Uiso   1.00
C115   C     0.38333   0.84757   0.12417   0.00000  Uiso   1.00
H116   H     0.41729   0.14312   0.09820   0.00000  Uiso   1.00
H117   H     0.32191   0.19813   0.01596   0.00000  Uiso   1.00
H118   H     0.41215   0.22988   0.18146   0.00000  Uiso   1.00
H119   H     0.54401   0.01426   0.09324   0.00000  Uiso   1.00
H120   H     0.17486   0.23881   0.93106   0.00000  Uiso   1.00
H121   H     0.36516   0.30573   0.28003   0.00000  Uiso   1.00
H122   H     0.64323   0.85106   0.09401   0.00000  Uiso   1.00
H123   H     0.09917   0.98640   0.14649   0.00000  Uiso   1.00
H124   H     0.98633   0.03281   0.06689   0.00000  Uiso   1.00
H125   H     0.07657   0.06456   0.23240   0.00000  Uiso   1.00
H126   H     0.20844   0.84894   0.14418   0.00000  Uiso   1.00
H127   H     0.90249   0.10463   0.97240   0.00000  Uiso   1.00
H128   H     0.09280   0.17155   0.32137   0.00000  Uiso   1.00
H129   H     0.37085   0.71688   0.13535   0.00000  Uiso   1.00
O130   O     0.97017   0.20510   0.89851   0.00000  Uiso   1.00
O131   O     0.21986   0.29289   0.35635   0.00000  Uiso   1.00
O132   O     0.58466   0.69637   0.11229   0.00000  Uiso   1.00
N133   N     0.12625   0.20085   0.95170   0.00000  Uiso   1.00
N134   N     0.30416   0.26343   0.27797   0.00000  Uiso   1.00
N135   N     0.56414   0.83834   0.10407   0.00000  Uiso   1.00
N136   N     0.97969   0.12865   0.97395   0.00000  Uiso   1.00
N137   N     0.15760   0.19122   0.30022   0.00000  Uiso   1.00
N138   N     0.41758   0.76614   0.12631   0.00000  Uiso   1.00
C139   C     0.15559   0.89279   0.60926   0.00000  Uiso   1.00
C140   C     0.25152   0.88464   0.57127   0.00000  Uiso   1.00
C141   C     0.25055   0.83756   0.52694   0.00000  Uiso   1.00
C142   C     0.34662   0.83822   0.49729   0.00000  Uiso   1.00
C143   C     0.48136   0.81851   0.43615   0.00000  Uiso   1.00
C144   C     0.20250   0.86738   0.66119   0.00000  Uiso   1.00
C145   C     0.16030   0.80580   0.69247   0.00000  Uiso   1.00
C146   C     0.21510   0.79194   0.73851   0.00000  Uiso   1.00
C147   C     0.27369   0.74549   0.81699   0.00000  Uiso   1.00
C148   C     0.13086   0.98453   0.61325   0.00000  Uiso   1.00
C149   C     0.02841   0.02145   0.60424   0.00000  Uiso   1.00
C150   C     0.02289   0.10623   0.60993   0.00000  Uiso   1.00
C151   C     0.97024   0.24167   0.61399   0.00000  Uiso   1.00
C152   C     0.32794   0.97770   0.63542   0.00000  Uiso   1.00
C153   C     0.34514   0.93076   0.58548   0.00000  Uiso   1.00
C154   C     0.44124   0.93150   0.55589   0.00000  Uiso   1.00
C155   C     0.44041   0.88443   0.51152   0.00000  Uiso   1.00
C156   C     0.29611   0.91350   0.67540   0.00000  Uiso   1.00
C157   C     0.35099   0.89974   0.72141   0.00000  Uiso   1.00
C158   C     0.30889   0.83815   0.75275   0.00000  Uiso   1.00
C159   C     0.22447   0.03065   0.62746   0.00000  Uiso   1.00
C160   C     0.21910   0.11539   0.63318   0.00000  Uiso   1.00
C161   C     0.11667   0.15243   0.62417   0.00000  Uiso   1.00
H162   H     0.08271   0.85688   0.59820   0.00000  Uiso   1.00
H163   H     0.17809   0.80187   0.51596   0.00000  Uiso   1.00
H164   H     0.08785   0.77012   0.68146   0.00000  Uiso   1.00
H165   H     0.95599   0.98574   0.59324   0.00000  Uiso   1.00
H166   H     0.32514   0.76119   0.43106   0.00000  Uiso   1.00
H167   H     0.13484   0.69427   0.78003   0.00000  Uiso   1.00
H168   H     0.85677   0.14894   0.59401   0.00000  Uiso   1.00
H169   H     0.40083   0.01360   0.64649   0.00000  Uiso   1.00
H170   H     0.51367   0.96719   0.56689   0.00000  Uiso   1.00
H171   H     0.42343   0.93544   0.73240   0.00000  Uiso   1.00
H172   H     0.29156   0.15106   0.64418   0.00000  Uiso   1.00
H173   H     0.59751   0.89537   0.47240   0.00000  Uiso   1.00
H174   H     0.40720   0.82845   0.82137   0.00000  Uiso   1.00
H175   H     0.12915   0.28312   0.63535   0.00000  Uiso   1.00
O176   O     0.52983   0.79490   0.39851   0.00000  Uiso   1.00
O177   O     0.28014   0.70711   0.85635   0.00000  Uiso   1.00
O178   O     0.91534   0.30363   0.61229   0.00000  Uiso   1.00
N179   N     0.37375   0.79915   0.45170   0.00000  Uiso   1.00
N180   N     0.19584   0.73657   0.77797   0.00000  Uiso   1.00
N181   N     0.93586   0.16166   0.60407   0.00000  Uiso   1.00
N182   N     0.52031   0.87135   0.47395   0.00000  Uiso   1.00
N183   N     0.34240   0.80878   0.80022   0.00000  Uiso   1.00
N184   N     0.08242   0.23386   0.62631   0.00000  Uiso   1.00
C185   C     0.34441   0.39279   0.60926   0.00000  Uiso   1.00
C186   C     0.24848   0.38464   0.57127   0.00000  Uiso   1.00
C187   C     0.24945   0.33756   0.52694   0.00000  Uiso   1.00
C188   C     0.15338   0.33822   0.49729   0.00000  Uiso   1.00
C189   C     0.01864   0.31851   0.43615   0.00000  Uiso   1.00
C190   C     0.29750   0.36738   0.66119   0.00000  Uiso   1.00
C191   C     0.33970   0.30580   0.69247   0.00000  Uiso   1.00
C192   C     0.28490   0.29194   0.73851   0.00000  Uiso   1.00
C193   C     0.22631   0.24549   0.81699   0.00000  Uiso   1.00
C194   C     0.36914   0.48453   0.61325   0.00000  Uiso   1.00
C195   C     0.47159   0.52145   0.60424   0.00000  Uiso   1.00
C196   C     0.47711   0.60623   0.60993   0.00000  Uiso   1.00
C197   C     0.52976   0.74167   0.61399   0.00000  Uiso   1.00
C198   C     0.17206   0.47770   0.63542   0.00000  Uiso   1.00
C199   C     0.15486   0.43076   0.58548   0.00000  Uiso   1.00
C200   C     0.05876   0.43150   0.55589   0.00000  Uiso   1.00
C201   C     0.05959   0.38443   0.51152   0.00000  Uiso   1.00
C202   C     0.20389   0.41350   0.67540   0.00000  Uiso   1.00
C203   C     0.14901   0.39974   0.72141   0.00000  Uiso   1.00
C204   C     0.19111   0.33815   0.75275   0.00000  Uiso   1.00
C205   C     0.27553   0.53065   0.62746   0.00000  Uiso   1.00
C206   C     0.28090   0.61539   0.63318   0.00000  Uiso   1.00
C207   C     0.38333   0.65243   0.62417   0.00000  Uiso   1.00
H208   H     0.41729   0.35688   0.59820   0.00000  Uiso   1.00
H209   H     0.32191   0.30187   0.51596   0.00000  Uiso   1.00
H210   H     0.41215   0.27012   0.68146   0.00000  Uiso   1.00
H211   H     0.54401   0.48574   0.59324   0.00000  Uiso   1.00
H212   H     0.17486   0.26119   0.43106   0.00000  Uiso   1.00
H213   H     0.36516   0.19427   0.78003   0.00000  Uiso   1.00
H214   H     0.64323   0.64894   0.59401   0.00000  Uiso   1.00
H215   H     0.09917   0.51360   0.64649   0.00000  Uiso   1.00
H216   H     0.98633   0.46719   0.56689   0.00000  Uiso   1.00
H217   H     0.07657   0.43544   0.73240   0.00000  Uiso   1.00
H218   H     0.20844   0.65106   0.64418   0.00000  Uiso   1.00
H219   H     0.90249   0.39537   0.47240   0.00000  Uiso   1.00
H220   H     0.09280   0.32845   0.82137   0.00000  Uiso   1.00
H221   H     0.37085   0.78312   0.63535   0.00000  Uiso   1.00
O222   O     0.97017   0.29490   0.39851   0.00000  Uiso   1.00
O223   O     0.21986   0.20711   0.85635   0.00000  Uiso   1.00
O224   O     0.58466   0.80363   0.61229   0.00000  Uiso   1.00
N225   N     0.12625   0.29915   0.45170   0.00000  Uiso   1.00
N226   N     0.30416   0.23657   0.77797   0.00000  Uiso   1.00
N227   N     0.56414   0.66166   0.60407   0.00000  Uiso   1.00
N228   N     0.97969   0.37135   0.47395   0.00000  Uiso   1.00
N229   N     0.15760   0.30878   0.80022   0.00000  Uiso   1.00
N230   N     0.41758   0.73386   0.62631   0.00000  Uiso   1.00
C231   C     0.15559   0.60721   0.10926   0.00000  Uiso   1.00
C232   C     0.25152   0.61536   0.07127   0.00000  Uiso   1.00
C233   C     0.25055   0.66244   0.02694   0.00000  Uiso   1.00
C234   C     0.34662   0.66178   0.99729   0.00000  Uiso   1.00
C235   C     0.48136   0.68149   0.93615   0.00000  Uiso   1.00
C236   C     0.20250   0.63262   0.16119   0.00000  Uiso   1.00
C237   C     0.16030   0.69420   0.19247   0.00000  Uiso   1.00
C238   C     0.21510   0.70806   0.23851   0.00000  Uiso   1.00
C239   C     0.27369   0.75451   0.31699   0.00000  Uiso   1.00
C240   C     0.13086   0.51547   0.11325   0.00000  Uiso   1.00
C241   C     0.02841   0.47855   0.10424   0.00000  Uiso   1.00
C242   C     0.02289   0.39377   0.10993   0.00000  Uiso   1.00
C243   C     0.97024   0.25833   0.11399   0.00000  Uiso   1.00
C244   C     0.32794   0.52230   0.13542   0.00000  Uiso   1.00
C245   C     0.34514   0.56924   0.08548   0.00000  Uiso   1.00
C246   C     0.44124   0.56850   0.05589   0.00000  Uiso   1.00
C247   C     0.44041   0.61557   0.01152   0.00000  Uiso   1.00
C248   C     0.29611   0.58650   0.17540   0.00000  Uiso   1.00
C249   C     0.35099   0.60026   0.22141   0.00000  Uiso   1.00
C250   C     0.30889   0.66185   0.25275   0.00000  Uiso   1.00
C251   C     0.22447   0.46935   0.12746   0.00000  Uiso   1.00
C252   C     0.21910   0.38461   0.13318   0.00000  Uiso   1.00
C253   C     0.11667   0.34757   0.12417   0.00000  Uiso   1.00
H254   H     0.08271   0.64312   0.09820   0.00000  Uiso   1.00
H255   H     0.17809   0.69813   0.01596   0.00000  Uiso   1.00
H256   H     0.08785   0.72988   0.18146   0.00000  Uiso   1.00
H257   H     0.95599   0.51426   0.09324   0.00000  Uiso   1.00
H258   H     0.32514   0.73881   0.93106   0.00000  Uiso   1.00
H259   H     0.13484   0.80573   0.28003   0.00000  Uiso   1.00
H260   H     0.85677   0.35106   0.09401   0.00000  Uiso   1.00
H261   H     0.40083   0.48640   0.14649   0.00000  Uiso   1.00
H262   H     0.51367   0.53281   0.06689   0.00000  Uiso   1.00
H263   H     0.42343   0.56456   0.23240   0.00000  Uiso   1.00
H264   H     0.29156   0.34894   0.14418   0.00000  Uiso   1.00
H265   H     0.59751   0.60463   0.97240   0.00000  Uiso   1.00
H266   H     0.40720   0.67155   0.32137   0.00000  Uiso   1.00
H267   H     0.12915   0.21688   0.13535   0.00000  Uiso   1.00
O268   O     0.52983   0.70510   0.89851   0.00000  Uiso   1.00
O269   O     0.28014   0.79289   0.35635   0.00000  Uiso   1.00
O270   O     0.91534   0.19637   0.11229   0.00000  Uiso   1.00
N271   N     0.37375   0.70085   0.95170   0.00000  Uiso   1.00
N272   N     0.19584   0.76343   0.27797   0.00000  Uiso   1.00
N273   N     0.93586   0.33834   0.10407   0.00000  Uiso   1.00
N274   N     0.52031   0.62865   0.97395   0.00000  Uiso   1.00
N275   N     0.34240   0.69122   0.30022   0.00000  Uiso   1.00
N276   N     0.08242   0.26614   0.12631   0.00000  Uiso   1.00
C277   C     0.65559   0.89279   0.89074   0.00000  Uiso   1.00
C278   C     0.75152   0.88464   0.92873   0.00000  Uiso   1.00
C279   C     0.75055   0.83756   0.97306   0.00000  Uiso   1.00
C280   C     0.84662   0.83822   0.00271   0.00000  Uiso   1.00
C281   C     0.98136   0.81851   0.06385   0.00000  Uiso   1.00
C282   C     0.70250   0.86738   0.83881   0.00000  Uiso   1.00
C283   C     0.66030   0.80580   0.80753   0.00000  Uiso   1.00
C284   C     0.71510   0.79194   0.76149   0.00000  Uiso   1.00
C285   C     0.77369   0.74549   0.68301   0.00000  Uiso   1.00
C286   C     0.63086   0.98453   0.88675   0.00000  Uiso   1.00
C287   C     0.52841   0.02145   0.89576   0.00000  Uiso   1.00
C288   C     0.52289   0.10623   0.89007   0.00000  Uiso   1.00
C289   C     0.47024   0.24167   0.88601   0.00000  Uiso   1.00
C290   C     0.82794   0.97770   0.86458   0.00000  Uiso   1.00
C291   C     0.84514   0.93076   0.91452   0.00000  Uiso   1.00
C292   C     0.94124   0.93150   0.94411   0.00000  Uiso   1.00
C293   C     0.94041   0.88443   0.98848   0.00000  Uiso   1.00
C294   C     0.79611   0.91350   0.82460   0.00000  Uiso   1.00
C295   C     0.85099   0.89974   0.77859   0.00000  Uiso   1.00
C296   C     0.80889   0.83815   0.74725   0.00000  Uiso   1.00
C297   C     0.72447   0.03065   0.87254   0.00000  Uiso   1.00
C298   C     0.71910   0.11539   0.86682   0.00000  Uiso   1.00
C299   C     0.61667   0.15243   0.87583   0.00000  Uiso   1.00
H300   H     0.58271   0.85688   0.90180   0.00000  Uiso   1.00
H301   H     0.67809   0.80187   0.98404   0.00000  Uiso   1.00
H302   H     0.58785   0.77012   0.81854   0.00000  Uiso   1.00
H303   H     0.45599   0.98574   0.90676   0.00000  Uiso   1.00
H304   H     0.82514   0.76119   0.06894   0.00000  Uiso   1.00
H305   H     0.63484   0.69427   0.71997   0.00000  Uiso   1.00
H306   H     0.35677   0.14894   0.90599   0.00000  Uiso   1.00
H307   H     0.90083   0.01360   0.85351   0.00000  Uiso   1.00
H308   H     0.01367   0.96719   0.93311   0.00000  Uiso   1.00
H309   H     0.92343   0.93544   0.76760   0.00000  Uiso   1.00
H310   H     0.79156   0.15106   0.85582   0.00000  Uiso   1.00
H311   H     0.09751   0.89537   0.02760   0.00000  Uiso   1.00
H312   H     0.90720   0.82845   0.67863   0.00000  Uiso   1.00
H313   H     0.62915   0.28312   0.86465   0.00000  Uiso   1.00
O314   O     0.02983   0.79490   0.10149   0.00000  Uiso   1.00
O315   O     0.78014   0.70711   0.64365   0.00000  Uiso   1.00
O316   O     0.41534   0.30363   0.88771   0.00000  Uiso   1.00
N317   N     0.87375   0.79915   0.04830   0.00000  Uiso   1.00
N318   N     0.69584   0.73657   0.72203   0.00000  Uiso   1.00
N319   N     0.43586   0.16166   0.89593   0.00000  Uiso   1.00
N320   N     0.02031   0.87135   0.02605   0.00000  Uiso   1.00
N321   N     0.84240   0.80878   0.69978   0.00000  Uiso   1.00
N322   N     0.58242   0.23386   0.87369   0.00000  Uiso   1.00
C323   C     0.84441   0.10721   0.39074   0.00000  Uiso   1.00
C324   C     0.74848   0.11536   0.42873   0.00000  Uiso   1.00
C325   C     0.74945   0.16244   0.47306   0.00000  Uiso   1.00
C326   C     0.65338   0.16178   0.50271   0.00000  Uiso   1.00
C327   C     0.51864   0.18149   0.56385   0.00000  Uiso   1.00
C328   C     0.79750   0.13262   0.33881   0.00000  Uiso   1.00
C329   C     0.83970   0.19420   0.30753   0.00000  Uiso   1.00
C330   C     0.78490   0.20806   0.26149   0.00000  Uiso   1.00
C331   C     0.72631   0.25451   0.18301   0.00000  Uiso   1.00
C332   C     0.86914   0.01547   0.38675   0.00000  Uiso   1.00
C333   C     0.97159   0.97855   0.39576   0.00000  Uiso   1.00
C334   C     0.97711   0.89377   0.39007   0.00000  Uiso   1.00
C335   C     0.02976   0.75833   0.38601   0.00000  Uiso   1.00
C336   C     0.67206   0.02230   0.36458   0.00000  Uiso   1.00
C337   C     0.65486   0.06924   0.41452   0.00000  Uiso   1.00
C338   C     0.55876   0.06850   0.44411   0.00000  Uiso   1.00
C339   C     0.55959   0.11557   0.48848   0.00000  Uiso   1.00
C340   C     0.70389   0.08650   0.32460   0.00000  Uiso   1.00
C341   C     0.64901   0.10026   0.27859   0.00000  Uiso   1.00
C342   C     0.69111   0.16185   0.24725   0.00000  Uiso   1.00
C343   C     0.77553   0.96935   0.37254   0.00000  Uiso   1.00
C344   C     0.78090   0.88461   0.36682   0.00000  Uiso   1.00
C345   C     0.88333   0.84757   0.37583   0.00000  Uiso   1.00
H346   H     0.91729   0.14312   0.40180   0.00000  Uiso   1.00
H347   H     0.82191   0.19813   0.48404   0.00000  Uiso   1.00
H348   H     0.91215   0.22988   0.31854   0.00000  Uiso   1.00
H349   H     0.04401   0.01426   0.40676   0.00000  Uiso   1.00
H350   H     0.67486   0.23881   0.56894   0.00000  Uiso   1.00
H351   H     0.86516   0.30573   0.21997   0.00000  Uiso   1.00
H352   H     0.14323   0.85106   0.40599   0.00000  Uiso   1.00
H353   H     0.59917   0.98640   0.35351   0.00000  Uiso   1.00
H354   H     0.48633   0.03281   0.43311   0.00000  Uiso   1.00
H355   H     0.57657   0.06456   0.26760   0.00000  Uiso   1.00
H356   H     0.70844   0.84894   0.35582   0.00000  Uiso   1.00
H357   H     0.40249   0.10463   0.52760   0.00000  Uiso   1.00
H358   H     0.59280   0.17155   0.17863   0.00000  Uiso   1.00
H359   H     0.87085   0.71688   0.36465   0.00000  Uiso   1.00
O360   O     0.47017   0.20510   0.60149   0.00000  Uiso   1.00
O361   O     0.71986   0.29289   0.14365   0.00000  Uiso   1.00
O362   O     0.08466   0.69637   0.38771   0.00000  Uiso   1.00
N363   N     0.62625   0.20085   0.54830   0.00000  Uiso   1.00
N364   N     0.80416   0.26343   0.22203   0.00000  Uiso   1.00
N365   N     0.06414   0.83834   0.39593   0.00000  Uiso   1.00
N366   N     0.47969   0.12865   0.52605   0.00000  Uiso   1.00
N367   N     0.65760   0.19122   0.19978   0.00000  Uiso   1.00
N368   N     0.91758   0.76614   0.37369   0.00000  Uiso   1.00
