data_job_05728
_audit_creation_date              2018-12-19
_audit_creation_method            'Materials Studio'
_symmetry_space_group_name_H-M    'P1'
_symmetry_Int_Tables_number       1
_symmetry_cell_setting            triclinic
loop_
_symmetry_equiv_pos_as_xyz
  x,y,z
_cell_length_a                    15.1196
_cell_length_b                    27.8051
_cell_length_c                    12.2413
_cell_angle_alpha                 90.0000
_cell_angle_beta                  90.0000
_cell_angle_gamma                 90.0000
loop_
_atom_site_label
_atom_site_type_symbol
_atom_site_fract_x
_atom_site_fract_y
_atom_site_fract_z
_atom_site_U_iso_or_equiv
_atom_site_adp_type
_atom_site_occupancy
C1     C     0.42976   0.37011   0.00634   0.00000  Uiso   1.00
C2     C     0.47619   0.36963   0.89576   0.00000  Uiso   1.00
C3     C     0.44199   0.38765   0.79886   0.00000  Uiso   1.00
C4     C     0.49480   0.38379   0.70649   0.00000  Uiso   1.00
C5     C     0.55411   0.38624   0.53410   0.00000  Uiso   1.00
C6     C     0.42696   0.31792   0.04447   0.00000  Uiso   1.00
C7     C     0.35135   0.29247   0.07262   0.00000  Uiso   1.00
C8     C     0.36273   0.24507   0.10545   0.00000  Uiso   1.00
C9     C     0.34560   0.16726   0.16401   0.00000  Uiso   1.00
C10    C     0.49209   0.39610   0.08447   0.00000  Uiso   1.00
C11    C     0.47125   0.43638   0.14627   0.00000  Uiso   1.00
C12    C     0.53746   0.45480   0.21281   0.00000  Uiso   1.00
C13    C     0.62146   0.49837   0.33346   0.00000  Uiso   1.00
C14    C     0.58439   0.33119   0.01464   0.00000  Uiso   1.00
C15    C     0.56018   0.34849   0.90027   0.00000  Uiso   1.00
C16    C     0.61307   0.34459   0.80803   0.00000  Uiso   1.00
C17    C     0.57895   0.36261   0.71101   0.00000  Uiso   1.00
C18    C     0.51094   0.29678   0.04898   0.00000  Uiso   1.00
C19    C     0.52244   0.24941   0.08179   0.00000  Uiso   1.00
C20    C     0.44687   0.22390   0.10997   0.00000  Uiso   1.00
C21    C     0.57608   0.37496   0.08898   0.00000  Uiso   1.00
C22    C     0.64233   0.39332   0.15544   0.00000  Uiso   1.00
C23    C     0.62160   0.43362   0.21732   0.00000  Uiso   1.00
H24    H     0.36437   0.38656   0.00284   0.00000  Uiso   1.00
H25    H     0.37698   0.40400   0.79540   0.00000  Uiso   1.00
H26    H     0.28636   0.30884   0.06913   0.00000  Uiso   1.00
H27    H     0.40624   0.45273   0.14276   0.00000  Uiso   1.00
H28    H     0.42799   0.41401   0.56740   0.00000  Uiso   1.00
H29    H     0.23692   0.21335   0.14461   0.00000  Uiso   1.00
H30    H     0.48971   0.51676   0.29988   0.00000  Uiso   1.00
H31    H     0.64979   0.31473   0.01814   0.00000  Uiso   1.00
H32    H     0.67807   0.32823   0.81154   0.00000  Uiso   1.00
H33    H     0.58744   0.23307   0.08527   0.00000  Uiso   1.00
H34    H     0.70732   0.37695   0.15890   0.00000  Uiso   1.00
H35    H     0.67236   0.35251   0.58050   0.00000  Uiso   1.00
H36    H     0.48129   0.15185   0.15771   0.00000  Uiso   1.00
H37    H     0.73408   0.45526   0.31298   0.00000  Uiso   1.00
O38    O     0.56361   0.39342   0.43776   0.00000  Uiso   1.00
O39    O     0.31294   0.13017   0.19505   0.00000  Uiso   1.00
O40    O     0.64459   0.52824   0.39876   0.00000  Uiso   1.00
N41    N     0.48163   0.39769   0.59884   0.00000  Uiso   1.00
N42    N     0.30299   0.21008   0.13848   0.00000  Uiso   1.00
N43    N     0.53932   0.49374   0.28367   0.00000  Uiso   1.00
N44    N     0.61312   0.36460   0.60589   0.00000  Uiso   1.00
N45    N     0.43448   0.17699   0.14553   0.00000  Uiso   1.00
N46    N     0.67081   0.46065   0.29072   0.00000  Uiso   1.00
C47    C     0.07024   0.62989   0.00634   0.00000  Uiso   1.00
C48    C     0.02381   0.63037   0.89576   0.00000  Uiso   1.00
C49    C     0.05801   0.61235   0.79886   0.00000  Uiso   1.00
C50    C     0.00520   0.61621   0.70649   0.00000  Uiso   1.00
C51    C     0.94589   0.61376   0.53410   0.00000  Uiso   1.00
C52    C     0.07304   0.68208   0.04447   0.00000  Uiso   1.00
C53    C     0.14865   0.70753   0.07262   0.00000  Uiso   1.00
C54    C     0.13727   0.75493   0.10545   0.00000  Uiso   1.00
C55    C     0.15440   0.83274   0.16401   0.00000  Uiso   1.00
C56    C     0.00791   0.60390   0.08447   0.00000  Uiso   1.00
C57    C     0.02875   0.56362   0.14627   0.00000  Uiso   1.00
C58    C     0.96254   0.54520   0.21281   0.00000  Uiso   1.00
C59    C     0.87854   0.50163   0.33346   0.00000  Uiso   1.00
C60    C     0.91561   0.66881   0.01464   0.00000  Uiso   1.00
C61    C     0.93982   0.65151   0.90027   0.00000  Uiso   1.00
C62    C     0.88693   0.65541   0.80803   0.00000  Uiso   1.00
C63    C     0.92105   0.63739   0.71101   0.00000  Uiso   1.00
C64    C     0.98906   0.70322   0.04898   0.00000  Uiso   1.00
C65    C     0.97756   0.75059   0.08179   0.00000  Uiso   1.00
C66    C     0.05313   0.77610   0.10997   0.00000  Uiso   1.00
C67    C     0.92392   0.62504   0.08898   0.00000  Uiso   1.00
C68    C     0.85767   0.60668   0.15544   0.00000  Uiso   1.00
C69    C     0.87840   0.56638   0.21732   0.00000  Uiso   1.00
H70    H     0.13563   0.61344   0.00284   0.00000  Uiso   1.00
H71    H     0.12302   0.59600   0.79540   0.00000  Uiso   1.00
H72    H     0.21364   0.69116   0.06913   0.00000  Uiso   1.00
H73    H     0.09376   0.54727   0.14276   0.00000  Uiso   1.00
H74    H     0.07201   0.58599   0.56740   0.00000  Uiso   1.00
H75    H     0.26308   0.78665   0.14461   0.00000  Uiso   1.00
H76    H     0.01029   0.48324   0.29988   0.00000  Uiso   1.00
H77    H     0.85021   0.68527   0.01814   0.00000  Uiso   1.00
H78    H     0.82193   0.67177   0.81154   0.00000  Uiso   1.00
H79    H     0.91256   0.76693   0.08527   0.00000  Uiso   1.00
H80    H     0.79268   0.62305   0.15890   0.00000  Uiso   1.00
H81    H     0.82764   0.64749   0.58050   0.00000  Uiso   1.00
H82    H     0.01871   0.84815   0.15771   0.00000  Uiso   1.00
H83    H     0.76592   0.54474   0.31298   0.00000  Uiso   1.00
O84    O     0.93639   0.60658   0.43776   0.00000  Uiso   1.00
O85    O     0.18706   0.86983   0.19505   0.00000  Uiso   1.00
O86    O     0.85541   0.47176   0.39876   0.00000  Uiso   1.00
N87    N     0.01837   0.60231   0.59884   0.00000  Uiso   1.00
N88    N     0.19701   0.78992   0.13848   0.00000  Uiso   1.00
N89    N     0.96068   0.50626   0.28367   0.00000  Uiso   1.00
N90    N     0.88688   0.63540   0.60589   0.00000  Uiso   1.00
N91    N     0.06552   0.82301   0.14553   0.00000  Uiso   1.00
N92    N     0.82919   0.53935   0.29072   0.00000  Uiso   1.00
C93    C     0.07024   0.87011   0.49366   0.00000  Uiso   1.00
C94    C     0.02381   0.86963   0.60424   0.00000  Uiso   1.00
C95    C     0.05801   0.88765   0.70114   0.00000  Uiso   1.00
C96    C     0.00520   0.88379   0.79351   0.00000  Uiso   1.00
C97    C     0.94589   0.88624   0.96590   0.00000  Uiso   1.00
C98    C     0.07304   0.81792   0.45553   0.00000  Uiso   1.00
C99    C     0.14865   0.79247   0.42738   0.00000  Uiso   1.00
C100   C     0.13727   0.74507   0.39455   0.00000  Uiso   1.00
C101   C     0.15440   0.66726   0.33599   0.00000  Uiso   1.00
C102   C     0.00791   0.89610   0.41553   0.00000  Uiso   1.00
C103   C     0.02875   0.93638   0.35373   0.00000  Uiso   1.00
C104   C     0.96254   0.95480   0.28719   0.00000  Uiso   1.00
C105   C     0.87854   0.99837   0.16654   0.00000  Uiso   1.00
C106   C     0.91561   0.83119   0.48536   0.00000  Uiso   1.00
C107   C     0.93982   0.84849   0.59973   0.00000  Uiso   1.00
C108   C     0.88693   0.84459   0.69197   0.00000  Uiso   1.00
C109   C     0.92105   0.86261   0.78899   0.00000  Uiso   1.00
C110   C     0.98906   0.79678   0.45102   0.00000  Uiso   1.00
C111   C     0.97756   0.74941   0.41821   0.00000  Uiso   1.00
C112   C     0.05313   0.72390   0.39003   0.00000  Uiso   1.00
C113   C     0.92392   0.87496   0.41102   0.00000  Uiso   1.00
C114   C     0.85767   0.89332   0.34456   0.00000  Uiso   1.00
C115   C     0.87840   0.93362   0.28268   0.00000  Uiso   1.00
H116   H     0.13563   0.88656   0.49716   0.00000  Uiso   1.00
H117   H     0.12302   0.90400   0.70460   0.00000  Uiso   1.00
H118   H     0.21364   0.80884   0.43087   0.00000  Uiso   1.00
H119   H     0.09376   0.95273   0.35724   0.00000  Uiso   1.00
H120   H     0.07201   0.91401   0.93260   0.00000  Uiso   1.00
H121   H     0.26308   0.71335   0.35539   0.00000  Uiso   1.00
H122   H     0.01029   0.01676   0.20012   0.00000  Uiso   1.00
H123   H     0.85021   0.81473   0.48186   0.00000  Uiso   1.00
H124   H     0.82193   0.82823   0.68846   0.00000  Uiso   1.00
H125   H     0.91256   0.73307   0.41473   0.00000  Uiso   1.00
H126   H     0.79268   0.87695   0.34110   0.00000  Uiso   1.00
H127   H     0.82764   0.85251   0.91950   0.00000  Uiso   1.00
H128   H     0.01871   0.65185   0.34229   0.00000  Uiso   1.00
H129   H     0.76592   0.95526   0.18702   0.00000  Uiso   1.00
O130   O     0.93639   0.89342   0.06224   0.00000  Uiso   1.00
O131   O     0.18706   0.63017   0.30495   0.00000  Uiso   1.00
O132   O     0.85541   0.02824   0.10124   0.00000  Uiso   1.00
N133   N     0.01837   0.89769   0.90116   0.00000  Uiso   1.00
N134   N     0.19701   0.71008   0.36152   0.00000  Uiso   1.00
N135   N     0.96068   0.99374   0.21633   0.00000  Uiso   1.00
N136   N     0.88688   0.86460   0.89411   0.00000  Uiso   1.00
N137   N     0.06552   0.67699   0.35447   0.00000  Uiso   1.00
N138   N     0.82919   0.96065   0.20928   0.00000  Uiso   1.00
C139   C     0.42976   0.12989   0.49366   0.00000  Uiso   1.00
C140   C     0.47619   0.13037   0.60424   0.00000  Uiso   1.00
C141   C     0.44199   0.11235   0.70114   0.00000  Uiso   1.00
C142   C     0.49480   0.11621   0.79351   0.00000  Uiso   1.00
C143   C     0.55411   0.11376   0.96590   0.00000  Uiso   1.00
C144   C     0.42696   0.18208   0.45553   0.00000  Uiso   1.00
C145   C     0.35135   0.20753   0.42738   0.00000  Uiso   1.00
C146   C     0.36273   0.25493   0.39455   0.00000  Uiso   1.00
C147   C     0.34560   0.33274   0.33599   0.00000  Uiso   1.00
C148   C     0.49209   0.10390   0.41553   0.00000  Uiso   1.00
C149   C     0.47125   0.06362   0.35373   0.00000  Uiso   1.00
C150   C     0.53746   0.04520   0.28719   0.00000  Uiso   1.00
C151   C     0.62146   0.00163   0.16654   0.00000  Uiso   1.00
C152   C     0.58439   0.16881   0.48536   0.00000  Uiso   1.00
C153   C     0.56018   0.15151   0.59973   0.00000  Uiso   1.00
C154   C     0.61307   0.15541   0.69197   0.00000  Uiso   1.00
C155   C     0.57895   0.13739   0.78899   0.00000  Uiso   1.00
C156   C     0.51094   0.20322   0.45102   0.00000  Uiso   1.00
C157   C     0.52244   0.25059   0.41821   0.00000  Uiso   1.00
C158   C     0.44687   0.27610   0.39003   0.00000  Uiso   1.00
C159   C     0.57608   0.12504   0.41102   0.00000  Uiso   1.00
C160   C     0.64233   0.10668   0.34456   0.00000  Uiso   1.00
C161   C     0.62160   0.06638   0.28268   0.00000  Uiso   1.00
H162   H     0.36437   0.11344   0.49716   0.00000  Uiso   1.00
H163   H     0.37698   0.09600   0.70460   0.00000  Uiso   1.00
H164   H     0.28636   0.19116   0.43087   0.00000  Uiso   1.00
H165   H     0.40624   0.04727   0.35724   0.00000  Uiso   1.00
H166   H     0.42799   0.08599   0.93260   0.00000  Uiso   1.00
H167   H     0.23692   0.28665   0.35539   0.00000  Uiso   1.00
H168   H     0.48971   0.98324   0.20012   0.00000  Uiso   1.00
H169   H     0.64979   0.18527   0.48186   0.00000  Uiso   1.00
H170   H     0.67807   0.17177   0.68846   0.00000  Uiso   1.00
H171   H     0.58744   0.26693   0.41473   0.00000  Uiso   1.00
H172   H     0.70732   0.12305   0.34110   0.00000  Uiso   1.00
H173   H     0.67236   0.14749   0.91950   0.00000  Uiso   1.00
H174   H     0.48129   0.34815   0.34229   0.00000  Uiso   1.00
H175   H     0.73408   0.04474   0.18702   0.00000  Uiso   1.00
O176   O     0.56361   0.10658   0.06224   0.00000  Uiso   1.00
O177   O     0.31294   0.36983   0.30495   0.00000  Uiso   1.00
O178   O     0.64459   0.97176   0.10124   0.00000  Uiso   1.00
N179   N     0.48163   0.10231   0.90116   0.00000  Uiso   1.00
N180   N     0.30299   0.28992   0.36152   0.00000  Uiso   1.00
N181   N     0.53932   0.00626   0.21633   0.00000  Uiso   1.00
N182   N     0.61312   0.13540   0.89411   0.00000  Uiso   1.00
N183   N     0.43448   0.32301   0.35447   0.00000  Uiso   1.00
N184   N     0.67081   0.03935   0.20928   0.00000  Uiso   1.00
C185   C     0.57024   0.62989   0.99366   0.00000  Uiso   1.00
C186   C     0.52381   0.63037   0.10424   0.00000  Uiso   1.00
C187   C     0.55801   0.61235   0.20114   0.00000  Uiso   1.00
C188   C     0.50520   0.61621   0.29351   0.00000  Uiso   1.00
C189   C     0.44589   0.61376   0.46590   0.00000  Uiso   1.00
C190   C     0.57304   0.68208   0.95553   0.00000  Uiso   1.00
C191   C     0.64865   0.70753   0.92738   0.00000  Uiso   1.00
C192   C     0.63727   0.75493   0.89455   0.00000  Uiso   1.00
C193   C     0.65440   0.83274   0.83599   0.00000  Uiso   1.00
C194   C     0.50791   0.60390   0.91553   0.00000  Uiso   1.00
C195   C     0.52875   0.56362   0.85373   0.00000  Uiso   1.00
C196   C     0.46254   0.54520   0.78719   0.00000  Uiso   1.00
C197   C     0.37854   0.50163   0.66654   0.00000  Uiso   1.00
C198   C     0.41561   0.66881   0.98536   0.00000  Uiso   1.00
C199   C     0.43982   0.65151   0.09973   0.00000  Uiso   1.00
C200   C     0.38693   0.65541   0.19197   0.00000  Uiso   1.00
C201   C     0.42105   0.63739   0.28899   0.00000  Uiso   1.00
C202   C     0.48906   0.70322   0.95102   0.00000  Uiso   1.00
C203   C     0.47756   0.75059   0.91821   0.00000  Uiso   1.00
C204   C     0.55313   0.77610   0.89003   0.00000  Uiso   1.00
C205   C     0.42392   0.62504   0.91102   0.00000  Uiso   1.00
C206   C     0.35767   0.60668   0.84456   0.00000  Uiso   1.00
C207   C     0.37840   0.56638   0.78268   0.00000  Uiso   1.00
H208   H     0.63563   0.61344   0.99716   0.00000  Uiso   1.00
H209   H     0.62302   0.59600   0.20460   0.00000  Uiso   1.00
H210   H     0.71364   0.69116   0.93087   0.00000  Uiso   1.00
H211   H     0.59376   0.54727   0.85724   0.00000  Uiso   1.00
H212   H     0.57201   0.58599   0.43260   0.00000  Uiso   1.00
H213   H     0.76308   0.78665   0.85539   0.00000  Uiso   1.00
H214   H     0.51029   0.48324   0.70012   0.00000  Uiso   1.00
H215   H     0.35021   0.68527   0.98186   0.00000  Uiso   1.00
H216   H     0.32193   0.67177   0.18846   0.00000  Uiso   1.00
H217   H     0.41256   0.76693   0.91473   0.00000  Uiso   1.00
H218   H     0.29268   0.62305   0.84110   0.00000  Uiso   1.00
H219   H     0.32764   0.64749   0.41950   0.00000  Uiso   1.00
H220   H     0.51871   0.84815   0.84229   0.00000  Uiso   1.00
H221   H     0.26592   0.54474   0.68702   0.00000  Uiso   1.00
O222   O     0.43639   0.60658   0.56224   0.00000  Uiso   1.00
O223   O     0.68706   0.86983   0.80495   0.00000  Uiso   1.00
O224   O     0.35541   0.47176   0.60124   0.00000  Uiso   1.00
N225   N     0.51837   0.60231   0.40116   0.00000  Uiso   1.00
N226   N     0.69701   0.78992   0.86152   0.00000  Uiso   1.00
N227   N     0.46068   0.50626   0.71633   0.00000  Uiso   1.00
N228   N     0.38688   0.63540   0.39411   0.00000  Uiso   1.00
N229   N     0.56552   0.82301   0.85447   0.00000  Uiso   1.00
N230   N     0.32919   0.53935   0.70928   0.00000  Uiso   1.00
C231   C     0.92976   0.37011   0.99366   0.00000  Uiso   1.00
C232   C     0.97619   0.36963   0.10424   0.00000  Uiso   1.00
C233   C     0.94199   0.38765   0.20114   0.00000  Uiso   1.00
C234   C     0.99480   0.38379   0.29351   0.00000  Uiso   1.00
C235   C     0.05411   0.38624   0.46590   0.00000  Uiso   1.00
C236   C     0.92696   0.31792   0.95553   0.00000  Uiso   1.00
C237   C     0.85135   0.29247   0.92738   0.00000  Uiso   1.00
C238   C     0.86273   0.24507   0.89455   0.00000  Uiso   1.00
C239   C     0.84560   0.16726   0.83599   0.00000  Uiso   1.00
C240   C     0.99209   0.39610   0.91553   0.00000  Uiso   1.00
C241   C     0.97125   0.43638   0.85373   0.00000  Uiso   1.00
C242   C     0.03746   0.45480   0.78719   0.00000  Uiso   1.00
C243   C     0.12146   0.49837   0.66654   0.00000  Uiso   1.00
C244   C     0.08439   0.33119   0.98536   0.00000  Uiso   1.00
C245   C     0.06018   0.34849   0.09973   0.00000  Uiso   1.00
C246   C     0.11307   0.34459   0.19197   0.00000  Uiso   1.00
C247   C     0.07895   0.36261   0.28899   0.00000  Uiso   1.00
C248   C     0.01094   0.29678   0.95102   0.00000  Uiso   1.00
C249   C     0.02244   0.24941   0.91821   0.00000  Uiso   1.00
C250   C     0.94687   0.22390   0.89003   0.00000  Uiso   1.00
C251   C     0.07608   0.37496   0.91102   0.00000  Uiso   1.00
C252   C     0.14233   0.39332   0.84456   0.00000  Uiso   1.00
C253   C     0.12160   0.43362   0.78268   0.00000  Uiso   1.00
H254   H     0.86437   0.38656   0.99716   0.00000  Uiso   1.00
H255   H     0.87698   0.40400   0.20460   0.00000  Uiso   1.00
H256   H     0.78636   0.30884   0.93087   0.00000  Uiso   1.00
H257   H     0.90624   0.45273   0.85724   0.00000  Uiso   1.00
H258   H     0.92799   0.41401   0.43260   0.00000  Uiso   1.00
H259   H     0.73692   0.21335   0.85539   0.00000  Uiso   1.00
H260   H     0.98971   0.51676   0.70012   0.00000  Uiso   1.00
H261   H     0.14979   0.31473   0.98186   0.00000  Uiso   1.00
H262   H     0.17807   0.32823   0.18846   0.00000  Uiso   1.00
H263   H     0.08744   0.23307   0.91473   0.00000  Uiso   1.00
H264   H     0.20732   0.37695   0.84110   0.00000  Uiso   1.00
H265   H     0.17236   0.35251   0.41950   0.00000  Uiso   1.00
H266   H     0.98129   0.15185   0.84229   0.00000  Uiso   1.00
H267   H     0.23408   0.45526   0.68702   0.00000  Uiso   1.00
O268   O     0.06361   0.39342   0.56224   0.00000  Uiso   1.00
O269   O     0.81294   0.13017   0.80495   0.00000  Uiso   1.00
O270   O     0.14459   0.52824   0.60124   0.00000  Uiso   1.00
N271   N     0.98163   0.39769   0.40116   0.00000  Uiso   1.00
N272   N     0.80299   0.21008   0.86152   0.00000  Uiso   1.00
N273   N     0.03932   0.49374   0.71633   0.00000  Uiso   1.00
N274   N     0.11312   0.36460   0.39411   0.00000  Uiso   1.00
N275   N     0.93448   0.17699   0.85447   0.00000  Uiso   1.00
N276   N     0.17081   0.46065   0.70928   0.00000  Uiso   1.00
C277   C     0.92976   0.12989   0.50634   0.00000  Uiso   1.00
C278   C     0.97619   0.13037   0.39576   0.00000  Uiso   1.00
C279   C     0.94199   0.11235   0.29886   0.00000  Uiso   1.00
C280   C     0.99480   0.11621   0.20649   0.00000  Uiso   1.00
C281   C     0.05411   0.11376   0.03410   0.00000  Uiso   1.00
C282   C     0.92696   0.18208   0.54447   0.00000  Uiso   1.00
C283   C     0.85135   0.20753   0.57262   0.00000  Uiso   1.00
C284   C     0.86273   0.25493   0.60545   0.00000  Uiso   1.00
C285   C     0.84560   0.33274   0.66401   0.00000  Uiso   1.00
C286   C     0.99209   0.10390   0.58447   0.00000  Uiso   1.00
C287   C     0.97125   0.06362   0.64627   0.00000  Uiso   1.00
C288   C     0.03746   0.04520   0.71281   0.00000  Uiso   1.00
C289   C     0.12146   0.00163   0.83346   0.00000  Uiso   1.00
C290   C     0.08439   0.16881   0.51464   0.00000  Uiso   1.00
C291   C     0.06018   0.15151   0.40027   0.00000  Uiso   1.00
C292   C     0.11307   0.15541   0.30803   0.00000  Uiso   1.00
C293   C     0.07895   0.13739   0.21101   0.00000  Uiso   1.00
C294   C     0.01094   0.20322   0.54898   0.00000  Uiso   1.00
C295   C     0.02244   0.25059   0.58179   0.00000  Uiso   1.00
C296   C     0.94687   0.27610   0.60997   0.00000  Uiso   1.00
C297   C     0.07608   0.12504   0.58898   0.00000  Uiso   1.00
C298   C     0.14233   0.10668   0.65544   0.00000  Uiso   1.00
C299   C     0.12160   0.06638   0.71732   0.00000  Uiso   1.00
H300   H     0.86437   0.11344   0.50284   0.00000  Uiso   1.00
H301   H     0.87698   0.09600   0.29540   0.00000  Uiso   1.00
H302   H     0.78636   0.19116   0.56913   0.00000  Uiso   1.00
H303   H     0.90624   0.04727   0.64276   0.00000  Uiso   1.00
H304   H     0.92799   0.08599   0.06740   0.00000  Uiso   1.00
H305   H     0.73692   0.28665   0.64461   0.00000  Uiso   1.00
H306   H     0.98971   0.98324   0.79988   0.00000  Uiso   1.00
H307   H     0.14979   0.18527   0.51814   0.00000  Uiso   1.00
H308   H     0.17807   0.17177   0.31154   0.00000  Uiso   1.00
H309   H     0.08744   0.26693   0.58527   0.00000  Uiso   1.00
H310   H     0.20732   0.12305   0.65890   0.00000  Uiso   1.00
H311   H     0.17236   0.14749   0.08050   0.00000  Uiso   1.00
H312   H     0.98129   0.34815   0.65771   0.00000  Uiso   1.00
H313   H     0.23408   0.04474   0.81298   0.00000  Uiso   1.00
O314   O     0.06361   0.10658   0.93776   0.00000  Uiso   1.00
O315   O     0.81294   0.36983   0.69505   0.00000  Uiso   1.00
O316   O     0.14459   0.97176   0.89876   0.00000  Uiso   1.00
N317   N     0.98163   0.10231   0.09884   0.00000  Uiso   1.00
N318   N     0.80299   0.28992   0.63848   0.00000  Uiso   1.00
N319   N     0.03932   0.00626   0.78367   0.00000  Uiso   1.00
N320   N     0.11312   0.13540   0.10589   0.00000  Uiso   1.00
N321   N     0.93448   0.32301   0.64553   0.00000  Uiso   1.00
N322   N     0.17081   0.03935   0.79072   0.00000  Uiso   1.00
C323   C     0.57024   0.87011   0.50634   0.00000  Uiso   1.00
C324   C     0.52381   0.86963   0.39576   0.00000  Uiso   1.00
C325   C     0.55801   0.88765   0.29886   0.00000  Uiso   1.00
C326   C     0.50520   0.88379   0.20649   0.00000  Uiso   1.00
C327   C     0.44589   0.88624   0.03410   0.00000  Uiso   1.00
C328   C     0.57304   0.81792   0.54447   0.00000  Uiso   1.00
C329   C     0.64865   0.79247   0.57262   0.00000  Uiso   1.00
C330   C     0.63727   0.74507   0.60545   0.00000  Uiso   1.00
C331   C     0.65440   0.66726   0.66401   0.00000  Uiso   1.00
C332   C     0.50791   0.89610   0.58447   0.00000  Uiso   1.00
C333   C     0.52875   0.93638   0.64627   0.00000  Uiso   1.00
C334   C     0.46254   0.95480   0.71281   0.00000  Uiso   1.00
C335   C     0.37854   0.99837   0.83346   0.00000  Uiso   1.00
C336   C     0.41561   0.83119   0.51464   0.00000  Uiso   1.00
C337   C     0.43982   0.84849   0.40027   0.00000  Uiso   1.00
C338   C     0.38693   0.84459   0.30803   0.00000  Uiso   1.00
C339   C     0.42105   0.86261   0.21101   0.00000  Uiso   1.00
C340   C     0.48906   0.79678   0.54898   0.00000  Uiso   1.00
C341   C     0.47756   0.74941   0.58179   0.00000  Uiso   1.00
C342   C     0.55313   0.72390   0.60997   0.00000  Uiso   1.00
C343   C     0.42392   0.87496   0.58898   0.00000  Uiso   1.00
C344   C     0.35767   0.89332   0.65544   0.00000  Uiso   1.00
C345   C     0.37840   0.93362   0.71732   0.00000  Uiso   1.00
H346   H     0.63563   0.88656   0.50284   0.00000  Uiso   1.00
H347   H     0.62302   0.90400   0.29540   0.00000  Uiso   1.00
H348   H     0.71364   0.80884   0.56913   0.00000  Uiso   1.00
H349   H     0.59376   0.95273   0.64276   0.00000  Uiso   1.00
H350   H     0.57201   0.91401   0.06740   0.00000  Uiso   1.00
H351   H     0.76308   0.71335   0.64461   0.00000  Uiso   1.00
H352   H     0.51029   0.01676   0.79988   0.00000  Uiso   1.00
H353   H     0.35021   0.81473   0.51814   0.00000  Uiso   1.00
H354   H     0.32193   0.82823   0.31154   0.00000  Uiso   1.00
H355   H     0.41256   0.73307   0.58527   0.00000  Uiso   1.00
H356   H     0.29268   0.87695   0.65890   0.00000  Uiso   1.00
H357   H     0.32764   0.85251   0.08050   0.00000  Uiso   1.00
H358   H     0.51871   0.65185   0.65771   0.00000  Uiso   1.00
H359   H     0.26592   0.95526   0.81298   0.00000  Uiso   1.00
O360   O     0.43639   0.89342   0.93776   0.00000  Uiso   1.00
O361   O     0.68706   0.63017   0.69505   0.00000  Uiso   1.00
O362   O     0.35541   0.02824   0.89876   0.00000  Uiso   1.00
N363   N     0.51837   0.89769   0.09884   0.00000  Uiso   1.00
N364   N     0.69701   0.71008   0.63848   0.00000  Uiso   1.00
N365   N     0.46068   0.99374   0.78367   0.00000  Uiso   1.00
N366   N     0.38688   0.86460   0.10589   0.00000  Uiso   1.00
N367   N     0.56552   0.67699   0.64553   0.00000  Uiso   1.00
N368   N     0.32919   0.96065   0.79072   0.00000  Uiso   1.00
