data_job_04838
_audit_creation_date              2018-12-19
_audit_creation_method            'Materials Studio'
_symmetry_space_group_name_H-M    'P1'
_symmetry_Int_Tables_number       1
_symmetry_cell_setting            triclinic
loop_
_symmetry_equiv_pos_as_xyz
  x,y,z
_cell_length_a                    41.9115
_cell_length_b                    6.9283
_cell_length_c                    43.5009
_cell_angle_alpha                 90.0000
_cell_angle_beta                  163.4922
_cell_angle_gamma                 90.0000
loop_
_atom_site_label
_atom_site_type_symbol
_atom_site_fract_x
_atom_site_fract_y
_atom_site_fract_z
_atom_site_U_iso_or_equiv
_atom_site_adp_type
_atom_site_occupancy
C1     C     0.45611   0.52112   0.29383   0.00000  Uiso   1.00
C2     C     0.55427   0.65135   0.37577   0.00000  Uiso   1.00
C3     C     0.66384   0.59137   0.47181   0.00000  Uiso   1.00
C4     C     0.74142   0.73278   0.53570   0.00000  Uiso   1.00
C5     C     0.89857   0.90544   0.66769   0.00000  Uiso   1.00
C6     C     0.40899   0.60249   0.28022   0.00000  Uiso   1.00
C7     C     0.39640   0.50141   0.29591   0.00000  Uiso   1.00
C8     C     0.35166   0.60169   0.27936   0.00000  Uiso   1.00
C9     C     0.28319   0.69845   0.26292   0.00000  Uiso   1.00
C10    C     0.36596   0.55474   0.18625   0.00000  Uiso   1.00
C11    C     0.31715   0.41350   0.12291   0.00000  Uiso   1.00
C12    C     0.23617   0.47358   0.02722   0.00000  Uiso   1.00
C13    C     0.10087   0.49620   0.86488   0.00000  Uiso   1.00
C14    C     0.39904   0.87895   0.23652   0.00000  Uiso   1.00
C15    C     0.52327   0.84571   0.34463   0.00000  Uiso   1.00
C16    C     0.60070   0.98725   0.40840   0.00000  Uiso   1.00
C17    C     0.71037   0.92748   0.50452   0.00000  Uiso   1.00
C18    C     0.37800   0.79684   0.24909   0.00000  Uiso   1.00
C19    C     0.33326   0.89729   0.23250   0.00000  Uiso   1.00
C20    C     0.32061   0.79639   0.24817   0.00000  Uiso   1.00
C21    C     0.33496   0.74910   0.15512   0.00000  Uiso   1.00
C22    C     0.25403   0.80940   0.05951   0.00000  Uiso   1.00
C23    C     0.20511   0.66828   0.99604   0.00000  Uiso   1.00
H24    H     0.48023   0.36981   0.31807   0.00000  Uiso   1.00
H25    H     0.68779   0.44094   0.49587   0.00000  Uiso   1.00
H26    H     0.42038   0.35100   0.31999   0.00000  Uiso   1.00
H27    H     0.34116   0.26312   0.14702   0.00000  Uiso   1.00
H28    H     0.90425   0.60553   0.67930   0.00000  Uiso   1.00
H29    H     0.34036   0.41585   0.30840   0.00000  Uiso   1.00
H30    H     0.17330   0.23053   0.94366   0.00000  Uiso   1.00
H31    H     0.37491   0.03027   0.21228   0.00000  Uiso   1.00
H32    H     0.57669   0.13765   0.38429   0.00000  Uiso   1.00
H33    H     0.30928   0.04769   0.20841   0.00000  Uiso   1.00
H34    H     0.23006   0.95981   0.03544   0.00000  Uiso   1.00
H35    H     0.81408   0.17100   0.58874   0.00000  Uiso   1.00
H36    H     0.25018   0.98131   0.21784   0.00000  Uiso   1.00
H37    H     0.08313   0.79600   0.85310   0.00000  Uiso   1.00
O38    O     0.99381   0.94699   0.74909   0.00000  Uiso   1.00
O39    O     0.25399   0.69813   0.26247   0.00000  Uiso   1.00
O40    O     0.03482   0.45499   0.78394   0.00000  Uiso   1.00
N41    N     0.85533   0.72387   0.63437   0.00000  Uiso   1.00
N42    N     0.32814   0.54654   0.28762   0.00000  Uiso   1.00
N43    N     0.17194   0.37327   0.94660   0.00000  Uiso   1.00
N44    N     0.80681   0.02815   0.58564   0.00000  Uiso   1.00
N45    N     0.27962   0.85082   0.23889   0.00000  Uiso   1.00
N46    N     0.12342   0.67755   0.89787   0.00000  Uiso   1.00
C47    C     0.12615   0.37826   0.28811   0.00000  Uiso   1.00
C48    C     0.19020   0.24833   0.36948   0.00000  Uiso   1.00
C49    C     0.27107   0.30856   0.46505   0.00000  Uiso   1.00
C50    C     0.31994   0.16739   0.52848   0.00000  Uiso   1.00
C51    C     0.42414   0.99518   0.65959   0.00000  Uiso   1.00
C52    C     0.14728   0.29630   0.27561   0.00000  Uiso   1.00
C53    C     0.19204   0.39688   0.29224   0.00000  Uiso   1.00
C54    C     0.20477   0.29610   0.27663   0.00000  Uiso   1.00
C55    C     0.24225   0.19841   0.26192   0.00000  Uiso   1.00
C56    C     0.00191   0.34495   0.17996   0.00000  Uiso   1.00
C57    C     0.92444   0.48645   0.11616   0.00000  Uiso   1.00
C58    C     0.81477   0.42663   0.02000   0.00000  Uiso   1.00
C59    C     0.62656   0.40448   0.85680   0.00000  Uiso   1.00
C60    C     0.06914   0.02044   0.23079   0.00000  Uiso   1.00
C61    C     0.15923   0.05397   0.33835   0.00000  Uiso   1.00
C62    C     0.20799   0.91267   0.40164   0.00000  Uiso   1.00
C63    C     0.28891   0.97269   0.49729   0.00000  Uiso   1.00
C64    C     0.11631   0.10195   0.24448   0.00000  Uiso   1.00
C65    C     0.12896   0.00100   0.22883   0.00000  Uiso   1.00
C66    C     0.17374   0.10140   0.24544   0.00000  Uiso   1.00
C67    C     0.97094   0.15060   0.14883   0.00000  Uiso   1.00
C68    C     0.86137   0.09055   0.05275   0.00000  Uiso   1.00
C69    C     0.78375   0.23192   0.98881   0.00000  Uiso   1.00
H70    H     0.15026   0.52957   0.31234   0.00000  Uiso   1.00
H71    H     0.29502   0.45898   0.48912   0.00000  Uiso   1.00
H72    H     0.21599   0.54729   0.31632   0.00000  Uiso   1.00
H73    H     0.94844   0.63683   0.14027   0.00000  Uiso   1.00
H74    H     0.44188   0.29499   0.67140   0.00000  Uiso   1.00
H75    H     0.27521   0.48122   0.30701   0.00000  Uiso   1.00
H76    H     0.71102   0.67004   0.93577   0.00000  Uiso   1.00
H77    H     0.04502   0.86913   0.20655   0.00000  Uiso   1.00
H78    H     0.18401   0.76228   0.37753   0.00000  Uiso   1.00
H79    H     0.10498   0.85060   0.20473   0.00000  Uiso   1.00
H80    H     0.83743   0.94014   0.02868   0.00000  Uiso   1.00
H81    H     0.35179   0.72952   0.58083   0.00000  Uiso   1.00
H82    H     0.18511   0.91576   0.21643   0.00000  Uiso   1.00
H83    H     0.62092   0.10458   0.84520   0.00000  Uiso   1.00
O84    O     0.49019   0.95388   0.74052   0.00000  Uiso   1.00
O85    O     0.27150   0.19823   0.26243   0.00000  Uiso   1.00
O86    O     0.53130   0.44595   0.77538   0.00000  Uiso   1.00
N87    N     0.40159   0.17657   0.62661   0.00000  Uiso   1.00
N88    N     0.24578   0.35068   0.28594   0.00000  Uiso   1.00
N89    N     0.71830   0.52722   0.93886   0.00000  Uiso   1.00
N90    N     0.35311   0.87230   0.57788   0.00000  Uiso   1.00
N91    N     0.19730   0.04641   0.23721   0.00000  Uiso   1.00
N92    N     0.66982   0.22295   0.89012   0.00000  Uiso   1.00
C93    C     0.45611   0.47888   0.79383   0.00000  Uiso   1.00
C94    C     0.55427   0.34865   0.87577   0.00000  Uiso   1.00
C95    C     0.66384   0.40863   0.97181   0.00000  Uiso   1.00
C96    C     0.74142   0.26722   0.03570   0.00000  Uiso   1.00
C97    C     0.89857   0.09456   0.16769   0.00000  Uiso   1.00
C98    C     0.40899   0.39751   0.78022   0.00000  Uiso   1.00
C99    C     0.39640   0.49859   0.79591   0.00000  Uiso   1.00
C100   C     0.35166   0.39831   0.77936   0.00000  Uiso   1.00
C101   C     0.28319   0.30155   0.76292   0.00000  Uiso   1.00
C102   C     0.36596   0.44526   0.68625   0.00000  Uiso   1.00
C103   C     0.31715   0.58650   0.62291   0.00000  Uiso   1.00
C104   C     0.23617   0.52642   0.52722   0.00000  Uiso   1.00
C105   C     0.10087   0.50380   0.36488   0.00000  Uiso   1.00
C106   C     0.39904   0.12105   0.73652   0.00000  Uiso   1.00
C107   C     0.52327   0.15429   0.84463   0.00000  Uiso   1.00
C108   C     0.60070   0.01275   0.90840   0.00000  Uiso   1.00
C109   C     0.71037   0.07252   0.00452   0.00000  Uiso   1.00
C110   C     0.37800   0.20316   0.74909   0.00000  Uiso   1.00
C111   C     0.33326   0.10271   0.73250   0.00000  Uiso   1.00
C112   C     0.32061   0.20361   0.74817   0.00000  Uiso   1.00
C113   C     0.33496   0.25090   0.65512   0.00000  Uiso   1.00
C114   C     0.25403   0.19060   0.55951   0.00000  Uiso   1.00
C115   C     0.20511   0.33172   0.49604   0.00000  Uiso   1.00
H116   H     0.48023   0.63019   0.81807   0.00000  Uiso   1.00
H117   H     0.68779   0.55906   0.99587   0.00000  Uiso   1.00
H118   H     0.42038   0.64900   0.81999   0.00000  Uiso   1.00
H119   H     0.34116   0.73688   0.64702   0.00000  Uiso   1.00
H120   H     0.90425   0.39447   0.17930   0.00000  Uiso   1.00
H121   H     0.34036   0.58415   0.80840   0.00000  Uiso   1.00
H122   H     0.17330   0.76947   0.44366   0.00000  Uiso   1.00
H123   H     0.37491   0.96973   0.71228   0.00000  Uiso   1.00
H124   H     0.57669   0.86235   0.88429   0.00000  Uiso   1.00
H125   H     0.30928   0.95231   0.70841   0.00000  Uiso   1.00
H126   H     0.23006   0.04019   0.53544   0.00000  Uiso   1.00
H127   H     0.81408   0.82900   0.08874   0.00000  Uiso   1.00
H128   H     0.25018   0.01869   0.71784   0.00000  Uiso   1.00
H129   H     0.08313   0.20400   0.35310   0.00000  Uiso   1.00
O130   O     0.99381   0.05301   0.24909   0.00000  Uiso   1.00
O131   O     0.25399   0.30187   0.76247   0.00000  Uiso   1.00
O132   O     0.03482   0.54501   0.28394   0.00000  Uiso   1.00
N133   N     0.85533   0.27613   0.13437   0.00000  Uiso   1.00
N134   N     0.32814   0.45346   0.78762   0.00000  Uiso   1.00
N135   N     0.17194   0.62673   0.44660   0.00000  Uiso   1.00
N136   N     0.80681   0.97185   0.08564   0.00000  Uiso   1.00
N137   N     0.27962   0.14918   0.73889   0.00000  Uiso   1.00
N138   N     0.12342   0.32245   0.39787   0.00000  Uiso   1.00
C139   C     0.12615   0.62174   0.78811   0.00000  Uiso   1.00
C140   C     0.19020   0.75167   0.86948   0.00000  Uiso   1.00
C141   C     0.27107   0.69144   0.96505   0.00000  Uiso   1.00
C142   C     0.31994   0.83261   0.02848   0.00000  Uiso   1.00
C143   C     0.42414   0.00482   0.15959   0.00000  Uiso   1.00
C144   C     0.14728   0.70370   0.77561   0.00000  Uiso   1.00
C145   C     0.19204   0.60312   0.79224   0.00000  Uiso   1.00
C146   C     0.20477   0.70390   0.77663   0.00000  Uiso   1.00
C147   C     0.24225   0.80159   0.76192   0.00000  Uiso   1.00
C148   C     0.00191   0.65505   0.67996   0.00000  Uiso   1.00
C149   C     0.92444   0.51355   0.61616   0.00000  Uiso   1.00
C150   C     0.81477   0.57337   0.52000   0.00000  Uiso   1.00
C151   C     0.62656   0.59552   0.35680   0.00000  Uiso   1.00
C152   C     0.06914   0.97956   0.73079   0.00000  Uiso   1.00
C153   C     0.15923   0.94603   0.83835   0.00000  Uiso   1.00
C154   C     0.20799   0.08733   0.90164   0.00000  Uiso   1.00
C155   C     0.28891   0.02731   0.99729   0.00000  Uiso   1.00
C156   C     0.11631   0.89805   0.74448   0.00000  Uiso   1.00
C157   C     0.12896   0.99900   0.72883   0.00000  Uiso   1.00
C158   C     0.17374   0.89860   0.74544   0.00000  Uiso   1.00
C159   C     0.97094   0.84940   0.64883   0.00000  Uiso   1.00
C160   C     0.86137   0.90945   0.55275   0.00000  Uiso   1.00
C161   C     0.78375   0.76808   0.48881   0.00000  Uiso   1.00
H162   H     0.15026   0.47043   0.81234   0.00000  Uiso   1.00
H163   H     0.29502   0.54102   0.98912   0.00000  Uiso   1.00
H164   H     0.21599   0.45271   0.81632   0.00000  Uiso   1.00
H165   H     0.94844   0.36317   0.64027   0.00000  Uiso   1.00
H166   H     0.44188   0.70501   0.17140   0.00000  Uiso   1.00
H167   H     0.27521   0.51878   0.80701   0.00000  Uiso   1.00
H168   H     0.71102   0.32996   0.43577   0.00000  Uiso   1.00
H169   H     0.04502   0.13087   0.70655   0.00000  Uiso   1.00
H170   H     0.18401   0.23772   0.87753   0.00000  Uiso   1.00
H171   H     0.10498   0.14940   0.70473   0.00000  Uiso   1.00
H172   H     0.83743   0.05986   0.52868   0.00000  Uiso   1.00
H173   H     0.35179   0.27048   0.08083   0.00000  Uiso   1.00
H174   H     0.18511   0.08424   0.71643   0.00000  Uiso   1.00
H175   H     0.62092   0.89542   0.34520   0.00000  Uiso   1.00
O176   O     0.49019   0.04612   0.24052   0.00000  Uiso   1.00
O177   O     0.27150   0.80177   0.76243   0.00000  Uiso   1.00
O178   O     0.53130   0.55405   0.27538   0.00000  Uiso   1.00
N179   N     0.40159   0.82343   0.12661   0.00000  Uiso   1.00
N180   N     0.24578   0.64932   0.78594   0.00000  Uiso   1.00
N181   N     0.71830   0.47278   0.43886   0.00000  Uiso   1.00
N182   N     0.35311   0.12770   0.07788   0.00000  Uiso   1.00
N183   N     0.19730   0.95359   0.73721   0.00000  Uiso   1.00
N184   N     0.66982   0.77705   0.39012   0.00000  Uiso   1.00
