data_job_05815
_audit_creation_date              2018-12-19
_audit_creation_method            'Materials Studio'
_symmetry_space_group_name_H-M    'P1'
_symmetry_Int_Tables_number       1
_symmetry_cell_setting            triclinic
loop_
_symmetry_equiv_pos_as_xyz
  x,y,z
_cell_length_a                    20.5187
_cell_length_b                    12.1108
_cell_length_c                    11.5323
_cell_angle_alpha                 90.0000
_cell_angle_beta                  90.0000
_cell_angle_gamma                 90.0000
loop_
_atom_site_label
_atom_site_type_symbol
_atom_site_fract_x
_atom_site_fract_y
_atom_site_fract_z
_atom_site_U_iso_or_equiv
_atom_site_adp_type
_atom_site_occupancy
C1     C     0.35079   0.97865   0.74154   0.00000  Uiso   1.00
C2     C     0.27861   0.95963   0.71721   0.00000  Uiso   1.00
C3     C     0.25266   0.91765   0.61521   0.00000  Uiso   1.00
C4     C     0.18537   0.90652   0.61000   0.00000  Uiso   1.00
C5     C     0.07935   0.87250   0.55798   0.00000  Uiso   1.00
C6     C     0.35732   0.10024   0.77391   0.00000  Uiso   1.00
C7     C     0.39755   0.17646   0.71958   0.00000  Uiso   1.00
C8     C     0.39653   0.28370   0.76212   0.00000  Uiso   1.00
C9     C     0.41274   0.46795   0.79817   0.00000  Uiso   1.00
C10    C     0.36619   0.91373   0.85147   0.00000  Uiso   1.00
C11    C     0.41390   0.83316   0.86237   0.00000  Uiso   1.00
C12    C     0.42036   0.78339   0.97023   0.00000  Uiso   1.00
C13    C     0.45034   0.67806   0.12671   0.00000  Uiso   1.00
C14    C     0.27746   0.03356   0.91369   0.00000  Uiso   1.00
C15    C     0.23878   0.98946   0.81071   0.00000  Uiso   1.00
C16    C     0.17152   0.97839   0.80567   0.00000  Uiso   1.00
C17    C     0.14547   0.93639   0.70367   0.00000  Uiso   1.00
C18    C     0.31749   0.13006   0.86741   0.00000  Uiso   1.00
C19    C     0.31641   0.23721   0.91004   0.00000  Uiso   1.00
C20    C     0.35663   0.31358   0.85579   0.00000  Uiso   1.00
C21    C     0.32636   0.94355   0.94497   0.00000  Uiso   1.00
C22    C     0.33275   0.89390   0.05283   0.00000  Uiso   1.00
C23    C     0.38045   0.81327   0.06390   0.00000  Uiso   1.00
H24    H     0.38180   0.95544   0.66874   0.00000  Uiso   1.00
H25    H     0.28350   0.89459   0.54286   0.00000  Uiso   1.00
H26    H     0.42837   0.15336   0.64723   0.00000  Uiso   1.00
H27    H     0.44471   0.81010   0.79000   0.00000  Uiso   1.00
H28    H     0.15694   0.84030   0.44451   0.00000  Uiso   1.00
H29    H     0.46243   0.38593   0.66461   0.00000  Uiso   1.00
H30    H     0.49689   0.66211   0.96566   0.00000  Uiso   1.00
H31    H     0.24644   0.05678   0.98649   0.00000  Uiso   1.00
H32    H     0.14070   0.00148   0.87804   0.00000  Uiso   1.00
H33    H     0.28558   0.26025   0.98240   0.00000  Uiso   1.00
H34    H     0.30192   0.91700   0.12517   0.00000  Uiso   1.00
H35    H     0.04104   0.92707   0.71655   0.00000  Uiso   1.00
H36    H     0.34654   0.47269   0.93665   0.00000  Uiso   1.00
H37    H     0.38099   0.74888   0.23770   0.00000  Uiso   1.00
O38    O     0.03187   0.84551   0.50344   0.00000  Uiso   1.00
O39    O     0.43268   0.56134   0.79222   0.00000  Uiso   1.00
O40    O     0.47788   0.61171   0.18718   0.00000  Uiso   1.00
N41    N     0.14417   0.86829   0.52343   0.00000  Uiso   1.00
N42    N     0.42979   0.37842   0.72920   0.00000  Uiso   1.00
N43    N     0.46201   0.70174   0.01066   0.00000  Uiso   1.00
N44    N     0.08181   0.91498   0.66981   0.00000  Uiso   1.00
N45    N     0.36742   0.42511   0.87558   0.00000  Uiso   1.00
N46    N     0.39965   0.74842   0.15704   0.00000  Uiso   1.00
C47    C     0.64921   0.02135   0.74154   0.00000  Uiso   1.00
C48    C     0.72139   0.04037   0.71721   0.00000  Uiso   1.00
C49    C     0.74734   0.08235   0.61521   0.00000  Uiso   1.00
C50    C     0.81463   0.09348   0.61000   0.00000  Uiso   1.00
C51    C     0.92065   0.12750   0.55798   0.00000  Uiso   1.00
C52    C     0.64268   0.89976   0.77391   0.00000  Uiso   1.00
C53    C     0.60245   0.82354   0.71958   0.00000  Uiso   1.00
C54    C     0.60347   0.71630   0.76212   0.00000  Uiso   1.00
C55    C     0.58726   0.53205   0.79817   0.00000  Uiso   1.00
C56    C     0.63381   0.08627   0.85147   0.00000  Uiso   1.00
C57    C     0.58610   0.16684   0.86237   0.00000  Uiso   1.00
C58    C     0.57964   0.21661   0.97023   0.00000  Uiso   1.00
C59    C     0.54966   0.32194   0.12671   0.00000  Uiso   1.00
C60    C     0.72254   0.96644   0.91369   0.00000  Uiso   1.00
C61    C     0.76122   0.01054   0.81071   0.00000  Uiso   1.00
C62    C     0.82848   0.02161   0.80567   0.00000  Uiso   1.00
C63    C     0.85453   0.06361   0.70367   0.00000  Uiso   1.00
C64    C     0.68251   0.86994   0.86741   0.00000  Uiso   1.00
C65    C     0.68359   0.76279   0.91004   0.00000  Uiso   1.00
C66    C     0.64337   0.68642   0.85579   0.00000  Uiso   1.00
C67    C     0.67364   0.05645   0.94497   0.00000  Uiso   1.00
C68    C     0.66725   0.10610   0.05283   0.00000  Uiso   1.00
C69    C     0.61955   0.18673   0.06390   0.00000  Uiso   1.00
H70    H     0.61820   0.04456   0.66874   0.00000  Uiso   1.00
H71    H     0.71650   0.10541   0.54286   0.00000  Uiso   1.00
H72    H     0.57163   0.84664   0.64723   0.00000  Uiso   1.00
H73    H     0.55529   0.18990   0.79000   0.00000  Uiso   1.00
H74    H     0.84306   0.15970   0.44451   0.00000  Uiso   1.00
H75    H     0.53757   0.61407   0.66461   0.00000  Uiso   1.00
H76    H     0.50311   0.33789   0.96566   0.00000  Uiso   1.00
H77    H     0.75356   0.94322   0.98649   0.00000  Uiso   1.00
H78    H     0.85930   0.99852   0.87804   0.00000  Uiso   1.00
H79    H     0.71442   0.73975   0.98240   0.00000  Uiso   1.00
H80    H     0.69808   0.08300   0.12517   0.00000  Uiso   1.00
H81    H     0.95896   0.07293   0.71655   0.00000  Uiso   1.00
H82    H     0.65346   0.52731   0.93665   0.00000  Uiso   1.00
H83    H     0.61901   0.25112   0.23770   0.00000  Uiso   1.00
O84    O     0.96813   0.15449   0.50344   0.00000  Uiso   1.00
O85    O     0.56732   0.43866   0.79222   0.00000  Uiso   1.00
O86    O     0.52212   0.38829   0.18718   0.00000  Uiso   1.00
N87    N     0.85583   0.13171   0.52343   0.00000  Uiso   1.00
N88    N     0.57021   0.62158   0.72920   0.00000  Uiso   1.00
N89    N     0.53799   0.29826   0.01066   0.00000  Uiso   1.00
N90    N     0.91819   0.08502   0.66981   0.00000  Uiso   1.00
N91    N     0.63258   0.57489   0.87558   0.00000  Uiso   1.00
N92    N     0.60035   0.25158   0.15704   0.00000  Uiso   1.00
C93    C     0.14921   0.47865   0.25846   0.00000  Uiso   1.00
C94    C     0.22139   0.45963   0.28279   0.00000  Uiso   1.00
C95    C     0.24734   0.41765   0.38479   0.00000  Uiso   1.00
C96    C     0.31463   0.40652   0.39000   0.00000  Uiso   1.00
C97    C     0.42065   0.37250   0.44202   0.00000  Uiso   1.00
C98    C     0.14268   0.60024   0.22609   0.00000  Uiso   1.00
C99    C     0.10245   0.67646   0.28042   0.00000  Uiso   1.00
C100   C     0.10347   0.78370   0.23788   0.00000  Uiso   1.00
C101   C     0.08726   0.96795   0.20183   0.00000  Uiso   1.00
C102   C     0.13381   0.41373   0.14853   0.00000  Uiso   1.00
C103   C     0.08610   0.33316   0.13763   0.00000  Uiso   1.00
C104   C     0.07964   0.28339   0.02977   0.00000  Uiso   1.00
C105   C     0.04966   0.17806   0.87329   0.00000  Uiso   1.00
C106   C     0.22254   0.53356   0.08631   0.00000  Uiso   1.00
C107   C     0.26122   0.48946   0.18929   0.00000  Uiso   1.00
C108   C     0.32848   0.47839   0.19433   0.00000  Uiso   1.00
C109   C     0.35453   0.43639   0.29633   0.00000  Uiso   1.00
C110   C     0.18251   0.63006   0.13259   0.00000  Uiso   1.00
C111   C     0.18359   0.73721   0.08996   0.00000  Uiso   1.00
C112   C     0.14337   0.81358   0.14421   0.00000  Uiso   1.00
C113   C     0.17364   0.44355   0.05503   0.00000  Uiso   1.00
C114   C     0.16725   0.39390   0.94717   0.00000  Uiso   1.00
C115   C     0.11955   0.31327   0.93610   0.00000  Uiso   1.00
H116   H     0.11820   0.45544   0.33126   0.00000  Uiso   1.00
H117   H     0.21650   0.39459   0.45714   0.00000  Uiso   1.00
H118   H     0.07163   0.65336   0.35277   0.00000  Uiso   1.00
H119   H     0.05529   0.31010   0.21000   0.00000  Uiso   1.00
H120   H     0.34306   0.34030   0.55549   0.00000  Uiso   1.00
H121   H     0.03757   0.88593   0.33539   0.00000  Uiso   1.00
H122   H     0.00311   0.16211   0.03434   0.00000  Uiso   1.00
H123   H     0.25356   0.55678   0.01351   0.00000  Uiso   1.00
H124   H     0.35930   0.50148   0.12196   0.00000  Uiso   1.00
H125   H     0.21442   0.76025   0.01760   0.00000  Uiso   1.00
H126   H     0.19808   0.41700   0.87483   0.00000  Uiso   1.00
H127   H     0.45896   0.42707   0.28345   0.00000  Uiso   1.00
H128   H     0.15346   0.97269   0.06335   0.00000  Uiso   1.00
H129   H     0.11901   0.24888   0.76230   0.00000  Uiso   1.00
O130   O     0.46813   0.34551   0.49656   0.00000  Uiso   1.00
O131   O     0.06732   0.06134   0.20778   0.00000  Uiso   1.00
O132   O     0.02212   0.11171   0.81282   0.00000  Uiso   1.00
N133   N     0.35583   0.36829   0.47657   0.00000  Uiso   1.00
N134   N     0.07021   0.87842   0.27080   0.00000  Uiso   1.00
N135   N     0.03799   0.20174   0.98934   0.00000  Uiso   1.00
N136   N     0.41819   0.41498   0.33019   0.00000  Uiso   1.00
N137   N     0.13258   0.92511   0.12442   0.00000  Uiso   1.00
N138   N     0.10035   0.24842   0.84296   0.00000  Uiso   1.00
C139   C     0.85079   0.52135   0.25846   0.00000  Uiso   1.00
C140   C     0.77861   0.54037   0.28279   0.00000  Uiso   1.00
C141   C     0.75266   0.58235   0.38479   0.00000  Uiso   1.00
C142   C     0.68537   0.59348   0.39000   0.00000  Uiso   1.00
C143   C     0.57935   0.62750   0.44202   0.00000  Uiso   1.00
C144   C     0.85732   0.39976   0.22609   0.00000  Uiso   1.00
C145   C     0.89755   0.32354   0.28042   0.00000  Uiso   1.00
C146   C     0.89653   0.21630   0.23788   0.00000  Uiso   1.00
C147   C     0.91274   0.03205   0.20183   0.00000  Uiso   1.00
C148   C     0.86619   0.58627   0.14853   0.00000  Uiso   1.00
C149   C     0.91390   0.66684   0.13763   0.00000  Uiso   1.00
C150   C     0.92036   0.71661   0.02977   0.00000  Uiso   1.00
C151   C     0.95034   0.82194   0.87329   0.00000  Uiso   1.00
C152   C     0.77746   0.46644   0.08631   0.00000  Uiso   1.00
C153   C     0.73878   0.51054   0.18929   0.00000  Uiso   1.00
C154   C     0.67152   0.52161   0.19433   0.00000  Uiso   1.00
C155   C     0.64547   0.56361   0.29633   0.00000  Uiso   1.00
C156   C     0.81749   0.36994   0.13259   0.00000  Uiso   1.00
C157   C     0.81641   0.26279   0.08996   0.00000  Uiso   1.00
C158   C     0.85663   0.18642   0.14421   0.00000  Uiso   1.00
C159   C     0.82636   0.55645   0.05503   0.00000  Uiso   1.00
C160   C     0.83275   0.60610   0.94717   0.00000  Uiso   1.00
C161   C     0.88045   0.68673   0.93610   0.00000  Uiso   1.00
H162   H     0.88180   0.54456   0.33126   0.00000  Uiso   1.00
H163   H     0.78350   0.60541   0.45714   0.00000  Uiso   1.00
H164   H     0.92837   0.34664   0.35277   0.00000  Uiso   1.00
H165   H     0.94471   0.68990   0.21000   0.00000  Uiso   1.00
H166   H     0.65694   0.65970   0.55549   0.00000  Uiso   1.00
H167   H     0.96243   0.11407   0.33539   0.00000  Uiso   1.00
H168   H     0.99689   0.83789   0.03434   0.00000  Uiso   1.00
H169   H     0.74644   0.44322   0.01351   0.00000  Uiso   1.00
H170   H     0.64070   0.49852   0.12196   0.00000  Uiso   1.00
H171   H     0.78558   0.23975   0.01760   0.00000  Uiso   1.00
H172   H     0.80192   0.58300   0.87483   0.00000  Uiso   1.00
H173   H     0.54104   0.57293   0.28345   0.00000  Uiso   1.00
H174   H     0.84654   0.02731   0.06335   0.00000  Uiso   1.00
H175   H     0.88099   0.75112   0.76230   0.00000  Uiso   1.00
O176   O     0.53187   0.65449   0.49656   0.00000  Uiso   1.00
O177   O     0.93268   0.93866   0.20778   0.00000  Uiso   1.00
O178   O     0.97788   0.88829   0.81282   0.00000  Uiso   1.00
N179   N     0.64417   0.63171   0.47657   0.00000  Uiso   1.00
N180   N     0.92979   0.12158   0.27080   0.00000  Uiso   1.00
N181   N     0.96201   0.79826   0.98934   0.00000  Uiso   1.00
N182   N     0.58181   0.58502   0.33019   0.00000  Uiso   1.00
N183   N     0.86742   0.07489   0.12442   0.00000  Uiso   1.00
N184   N     0.89965   0.75158   0.84296   0.00000  Uiso   1.00
