data_job_01565
_audit_creation_date              2018-12-19
_audit_creation_method            'Materials Studio'
_symmetry_space_group_name_H-M    'P1'
_symmetry_Int_Tables_number       1
_symmetry_cell_setting            triclinic
loop_
_symmetry_equiv_pos_as_xyz
  x,y,z
_cell_length_a                    21.3887
_cell_length_b                    21.3887
_cell_length_c                    11.8120
_cell_angle_alpha                 90.0000
_cell_angle_beta                  90.0000
_cell_angle_gamma                 90.0000
loop_
_atom_site_label
_atom_site_type_symbol
_atom_site_fract_x
_atom_site_fract_y
_atom_site_fract_z
_atom_site_U_iso_or_equiv
_atom_site_adp_type
_atom_site_occupancy
C1     C     0.72534   0.17810   0.20714   0.00000  Uiso   1.00
C2     C     0.67886   0.17551   0.30492   0.00000  Uiso   1.00
C3     C     0.65073   0.22669   0.35611   0.00000  Uiso   1.00
C4     C     0.60956   0.21451   0.44427   0.00000  Uiso   1.00
C5     C     0.53932   0.21980   0.59072   0.00000  Uiso   1.00
C6     C     0.78369   0.14392   0.24804   0.00000  Uiso   1.00
C7     C     0.84370   0.16854   0.25138   0.00000  Uiso   1.00
C8     C     0.89078   0.12976   0.29164   0.00000  Uiso   1.00
C9     C     0.98330   0.08599   0.34970   0.00000  Uiso   1.00
C10    C     0.69765   0.13768   0.11337   0.00000  Uiso   1.00
C11    C     0.68533   0.15704   0.00347   0.00000  Uiso   1.00
C12    C     0.65997   0.11299   0.93034   0.00000  Uiso   1.00
C13    C     0.61889   0.05952   0.77931   0.00000  Uiso   1.00
C14    C     0.70225   0.06546   0.27267   0.00000  Uiso   1.00
C15    C     0.66632   0.11433   0.34052   0.00000  Uiso   1.00
C16    C     0.62518   0.10207   0.42861   0.00000  Uiso   1.00
C17    C     0.59699   0.15322   0.47992   0.00000  Uiso   1.00
C18    C     0.77115   0.08274   0.28363   0.00000  Uiso   1.00
C19    C     0.81815   0.04392   0.32388   0.00000  Uiso   1.00
C20    C     0.87821   0.06847   0.32729   0.00000  Uiso   1.00
C21    C     0.68510   0.07649   0.14896   0.00000  Uiso   1.00
C22    C     0.65977   0.03241   0.07598   0.00000  Uiso   1.00
C23    C     0.64740   0.05170   0.96599   0.00000  Uiso   1.00
H24    H     0.73511   0.22573   0.17943   0.00000  Uiso   1.00
H25    H     0.66046   0.27403   0.32855   0.00000  Uiso   1.00
H26    H     0.85340   0.21589   0.22383   0.00000  Uiso   1.00
H27    H     0.69504   0.20438   0.97596   0.00000  Uiso   1.00
H28    H     0.57217   0.30060   0.50960   0.00000  Uiso   1.00
H29    H     0.97900   0.17799   0.28874   0.00000  Uiso   1.00
H30    H     0.64508   0.15374   0.76607   0.00000  Uiso   1.00
H31    H     0.69248   0.01782   0.30038   0.00000  Uiso   1.00
H32    H     0.61548   0.05472   0.45613   0.00000  Uiso   1.00
H33    H     0.80842   0.99657   0.35141   0.00000  Uiso   1.00
H34    H     0.65007   0.98507   0.10355   0.00000  Uiso   1.00
H35    H     0.53567   0.12260   0.61315   0.00000  Uiso   1.00
H36    H     0.94250   0.99999   0.39229   0.00000  Uiso   1.00
H37    H     0.60857   0.97573   0.86962   0.00000  Uiso   1.00
O38    O     0.50405   0.23962   0.66168   0.00000  Uiso   1.00
O39    O     0.03779   0.07876   0.37190   0.00000  Uiso   1.00
O40    O     0.59969   0.04694   0.68618   0.00000  Uiso   1.00
N41    N     0.57414   0.25365   0.51258   0.00000  Uiso   1.00
N42    N     0.95450   0.13901   0.30611   0.00000  Uiso   1.00
N43    N     0.64232   0.11633   0.81745   0.00000  Uiso   1.00
N44    N     0.55449   0.15786   0.56830   0.00000  Uiso   1.00
N45    N     0.93485   0.04323   0.36183   0.00000  Uiso   1.00
N46    N     0.62268   0.02055   0.87317   0.00000  Uiso   1.00
C47    C     0.27466   0.82190   0.20714   0.00000  Uiso   1.00
C48    C     0.32114   0.82449   0.30492   0.00000  Uiso   1.00
C49    C     0.34927   0.77331   0.35611   0.00000  Uiso   1.00
C50    C     0.39044   0.78549   0.44427   0.00000  Uiso   1.00
C51    C     0.46068   0.78020   0.59072   0.00000  Uiso   1.00
C52    C     0.21631   0.85608   0.24804   0.00000  Uiso   1.00
C53    C     0.15630   0.83146   0.25138   0.00000  Uiso   1.00
C54    C     0.10922   0.87024   0.29164   0.00000  Uiso   1.00
C55    C     0.01670   0.91401   0.34970   0.00000  Uiso   1.00
C56    C     0.30235   0.86232   0.11337   0.00000  Uiso   1.00
C57    C     0.31467   0.84296   0.00347   0.00000  Uiso   1.00
C58    C     0.34003   0.88701   0.93034   0.00000  Uiso   1.00
C59    C     0.38111   0.94048   0.77931   0.00000  Uiso   1.00
C60    C     0.29775   0.93454   0.27267   0.00000  Uiso   1.00
C61    C     0.33368   0.88567   0.34052   0.00000  Uiso   1.00
C62    C     0.37482   0.89793   0.42861   0.00000  Uiso   1.00
C63    C     0.40301   0.84678   0.47992   0.00000  Uiso   1.00
C64    C     0.22885   0.91726   0.28363   0.00000  Uiso   1.00
C65    C     0.18185   0.95608   0.32388   0.00000  Uiso   1.00
C66    C     0.12179   0.93153   0.32729   0.00000  Uiso   1.00
C67    C     0.31490   0.92351   0.14896   0.00000  Uiso   1.00
C68    C     0.34023   0.96759   0.07598   0.00000  Uiso   1.00
C69    C     0.35260   0.94830   0.96599   0.00000  Uiso   1.00
H70    H     0.26489   0.77427   0.17943   0.00000  Uiso   1.00
H71    H     0.33954   0.72597   0.32855   0.00000  Uiso   1.00
H72    H     0.14660   0.78411   0.22383   0.00000  Uiso   1.00
H73    H     0.30496   0.79562   0.97596   0.00000  Uiso   1.00
H74    H     0.42783   0.69940   0.50960   0.00000  Uiso   1.00
H75    H     0.02100   0.82201   0.28874   0.00000  Uiso   1.00
H76    H     0.35492   0.84626   0.76607   0.00000  Uiso   1.00
H77    H     0.30752   0.98218   0.30038   0.00000  Uiso   1.00
H78    H     0.38452   0.94528   0.45613   0.00000  Uiso   1.00
H79    H     0.19158   0.00343   0.35141   0.00000  Uiso   1.00
H80    H     0.34993   0.01493   0.10355   0.00000  Uiso   1.00
H81    H     0.46433   0.87740   0.61315   0.00000  Uiso   1.00
H82    H     0.05750   0.00001   0.39229   0.00000  Uiso   1.00
H83    H     0.39143   0.02427   0.86962   0.00000  Uiso   1.00
O84    O     0.49595   0.76038   0.66168   0.00000  Uiso   1.00
O85    O     0.96221   0.92124   0.37190   0.00000  Uiso   1.00
O86    O     0.40031   0.95306   0.68618   0.00000  Uiso   1.00
N87    N     0.42586   0.74635   0.51258   0.00000  Uiso   1.00
N88    N     0.04550   0.86099   0.30611   0.00000  Uiso   1.00
N89    N     0.35768   0.88367   0.81745   0.00000  Uiso   1.00
N90    N     0.44551   0.84214   0.56830   0.00000  Uiso   1.00
N91    N     0.06515   0.95677   0.36183   0.00000  Uiso   1.00
N92    N     0.37732   0.97945   0.87317   0.00000  Uiso   1.00
C93    C     0.32190   0.22534   0.20714   0.00000  Uiso   1.00
C94    C     0.32449   0.17886   0.30492   0.00000  Uiso   1.00
C95    C     0.27331   0.15073   0.35611   0.00000  Uiso   1.00
C96    C     0.28549   0.10956   0.44427   0.00000  Uiso   1.00
C97    C     0.28020   0.03932   0.59072   0.00000  Uiso   1.00
C98    C     0.35608   0.28369   0.24804   0.00000  Uiso   1.00
C99    C     0.33146   0.34370   0.25138   0.00000  Uiso   1.00
C100   C     0.37024   0.39078   0.29164   0.00000  Uiso   1.00
C101   C     0.41401   0.48330   0.34970   0.00000  Uiso   1.00
C102   C     0.36232   0.19765   0.11337   0.00000  Uiso   1.00
C103   C     0.34296   0.18533   0.00347   0.00000  Uiso   1.00
C104   C     0.38701   0.15997   0.93034   0.00000  Uiso   1.00
C105   C     0.44048   0.11889   0.77931   0.00000  Uiso   1.00
C106   C     0.43454   0.20225   0.27267   0.00000  Uiso   1.00
C107   C     0.38567   0.16632   0.34052   0.00000  Uiso   1.00
C108   C     0.39793   0.12518   0.42861   0.00000  Uiso   1.00
C109   C     0.34678   0.09699   0.47992   0.00000  Uiso   1.00
C110   C     0.41726   0.27115   0.28363   0.00000  Uiso   1.00
C111   C     0.45608   0.31815   0.32388   0.00000  Uiso   1.00
C112   C     0.43153   0.37821   0.32729   0.00000  Uiso   1.00
C113   C     0.42351   0.18510   0.14896   0.00000  Uiso   1.00
C114   C     0.46759   0.15977   0.07598   0.00000  Uiso   1.00
C115   C     0.44830   0.14740   0.96599   0.00000  Uiso   1.00
H116   H     0.27427   0.23511   0.17943   0.00000  Uiso   1.00
H117   H     0.22597   0.16046   0.32855   0.00000  Uiso   1.00
H118   H     0.28411   0.35340   0.22383   0.00000  Uiso   1.00
H119   H     0.29562   0.19504   0.97596   0.00000  Uiso   1.00
H120   H     0.19940   0.07217   0.50960   0.00000  Uiso   1.00
H121   H     0.32201   0.47900   0.28874   0.00000  Uiso   1.00
H122   H     0.34626   0.14508   0.76607   0.00000  Uiso   1.00
H123   H     0.48218   0.19248   0.30038   0.00000  Uiso   1.00
H124   H     0.44528   0.11548   0.45613   0.00000  Uiso   1.00
H125   H     0.50343   0.30842   0.35141   0.00000  Uiso   1.00
H126   H     0.51493   0.15007   0.10355   0.00000  Uiso   1.00
H127   H     0.37740   0.03567   0.61315   0.00000  Uiso   1.00
H128   H     0.50001   0.44250   0.39229   0.00000  Uiso   1.00
H129   H     0.52427   0.10857   0.86962   0.00000  Uiso   1.00
O130   O     0.26038   0.00405   0.66168   0.00000  Uiso   1.00
O131   O     0.42124   0.53779   0.37190   0.00000  Uiso   1.00
O132   O     0.45306   0.09969   0.68618   0.00000  Uiso   1.00
N133   N     0.24635   0.07414   0.51258   0.00000  Uiso   1.00
N134   N     0.36099   0.45450   0.30611   0.00000  Uiso   1.00
N135   N     0.38367   0.14232   0.81745   0.00000  Uiso   1.00
N136   N     0.34214   0.05449   0.56830   0.00000  Uiso   1.00
N137   N     0.45677   0.43485   0.36183   0.00000  Uiso   1.00
N138   N     0.47945   0.12268   0.87317   0.00000  Uiso   1.00
C139   C     0.67810   0.77466   0.20714   0.00000  Uiso   1.00
C140   C     0.67551   0.82114   0.30492   0.00000  Uiso   1.00
C141   C     0.72669   0.84927   0.35611   0.00000  Uiso   1.00
C142   C     0.71451   0.89044   0.44427   0.00000  Uiso   1.00
C143   C     0.71980   0.96068   0.59072   0.00000  Uiso   1.00
C144   C     0.64392   0.71631   0.24804   0.00000  Uiso   1.00
C145   C     0.66854   0.65630   0.25138   0.00000  Uiso   1.00
C146   C     0.62976   0.60922   0.29164   0.00000  Uiso   1.00
C147   C     0.58599   0.51670   0.34970   0.00000  Uiso   1.00
C148   C     0.63768   0.80235   0.11337   0.00000  Uiso   1.00
C149   C     0.65704   0.81467   0.00347   0.00000  Uiso   1.00
C150   C     0.61299   0.84003   0.93034   0.00000  Uiso   1.00
C151   C     0.55952   0.88111   0.77931   0.00000  Uiso   1.00
C152   C     0.56546   0.79775   0.27267   0.00000  Uiso   1.00
C153   C     0.61433   0.83368   0.34052   0.00000  Uiso   1.00
C154   C     0.60207   0.87482   0.42861   0.00000  Uiso   1.00
C155   C     0.65322   0.90301   0.47992   0.00000  Uiso   1.00
C156   C     0.58274   0.72885   0.28363   0.00000  Uiso   1.00
C157   C     0.54392   0.68185   0.32388   0.00000  Uiso   1.00
C158   C     0.56847   0.62179   0.32729   0.00000  Uiso   1.00
C159   C     0.57649   0.81490   0.14896   0.00000  Uiso   1.00
C160   C     0.53241   0.84023   0.07598   0.00000  Uiso   1.00
C161   C     0.55170   0.85260   0.96599   0.00000  Uiso   1.00
H162   H     0.72573   0.76489   0.17943   0.00000  Uiso   1.00
H163   H     0.77403   0.83954   0.32855   0.00000  Uiso   1.00
H164   H     0.71589   0.64660   0.22383   0.00000  Uiso   1.00
H165   H     0.70438   0.80496   0.97596   0.00000  Uiso   1.00
H166   H     0.80060   0.92783   0.50960   0.00000  Uiso   1.00
H167   H     0.67799   0.52100   0.28874   0.00000  Uiso   1.00
H168   H     0.65374   0.85492   0.76607   0.00000  Uiso   1.00
H169   H     0.51782   0.80752   0.30038   0.00000  Uiso   1.00
H170   H     0.55472   0.88452   0.45613   0.00000  Uiso   1.00
H171   H     0.49657   0.69158   0.35141   0.00000  Uiso   1.00
H172   H     0.48507   0.84993   0.10355   0.00000  Uiso   1.00
H173   H     0.62260   0.96433   0.61315   0.00000  Uiso   1.00
H174   H     0.49999   0.55750   0.39229   0.00000  Uiso   1.00
H175   H     0.47573   0.89143   0.86962   0.00000  Uiso   1.00
O176   O     0.73962   0.99595   0.66168   0.00000  Uiso   1.00
O177   O     0.57876   0.46221   0.37190   0.00000  Uiso   1.00
O178   O     0.54694   0.90031   0.68618   0.00000  Uiso   1.00
N179   N     0.75365   0.92586   0.51258   0.00000  Uiso   1.00
N180   N     0.63901   0.54550   0.30611   0.00000  Uiso   1.00
N181   N     0.61633   0.85768   0.81745   0.00000  Uiso   1.00
N182   N     0.65786   0.94551   0.56830   0.00000  Uiso   1.00
N183   N     0.54323   0.56515   0.36183   0.00000  Uiso   1.00
N184   N     0.52055   0.87732   0.87317   0.00000  Uiso   1.00
C185   C     0.77466   0.32190   0.79286   0.00000  Uiso   1.00
C186   C     0.82114   0.32449   0.69508   0.00000  Uiso   1.00
C187   C     0.84927   0.27331   0.64389   0.00000  Uiso   1.00
C188   C     0.89044   0.28549   0.55573   0.00000  Uiso   1.00
C189   C     0.96068   0.28020   0.40928   0.00000  Uiso   1.00
C190   C     0.71631   0.35608   0.75196   0.00000  Uiso   1.00
C191   C     0.65630   0.33146   0.74862   0.00000  Uiso   1.00
C192   C     0.60922   0.37024   0.70836   0.00000  Uiso   1.00
C193   C     0.51670   0.41401   0.65030   0.00000  Uiso   1.00
C194   C     0.80235   0.36232   0.88663   0.00000  Uiso   1.00
C195   C     0.81467   0.34296   0.99653   0.00000  Uiso   1.00
C196   C     0.84003   0.38701   0.06966   0.00000  Uiso   1.00
C197   C     0.88111   0.44048   0.22069   0.00000  Uiso   1.00
C198   C     0.79775   0.43454   0.72733   0.00000  Uiso   1.00
C199   C     0.83368   0.38567   0.65948   0.00000  Uiso   1.00
C200   C     0.87482   0.39793   0.57139   0.00000  Uiso   1.00
C201   C     0.90301   0.34678   0.52008   0.00000  Uiso   1.00
C202   C     0.72885   0.41726   0.71637   0.00000  Uiso   1.00
C203   C     0.68185   0.45608   0.67612   0.00000  Uiso   1.00
C204   C     0.62179   0.43153   0.67271   0.00000  Uiso   1.00
C205   C     0.81490   0.42351   0.85104   0.00000  Uiso   1.00
C206   C     0.84023   0.46759   0.92402   0.00000  Uiso   1.00
C207   C     0.85260   0.44830   0.03401   0.00000  Uiso   1.00
H208   H     0.76489   0.27427   0.82057   0.00000  Uiso   1.00
H209   H     0.83954   0.22597   0.67145   0.00000  Uiso   1.00
H210   H     0.64660   0.28411   0.77617   0.00000  Uiso   1.00
H211   H     0.80496   0.29562   0.02404   0.00000  Uiso   1.00
H212   H     0.92783   0.19940   0.49040   0.00000  Uiso   1.00
H213   H     0.52100   0.32201   0.71126   0.00000  Uiso   1.00
H214   H     0.85492   0.34626   0.23393   0.00000  Uiso   1.00
H215   H     0.80752   0.48218   0.69962   0.00000  Uiso   1.00
H216   H     0.88452   0.44528   0.54387   0.00000  Uiso   1.00
H217   H     0.69158   0.50343   0.64859   0.00000  Uiso   1.00
H218   H     0.84993   0.51493   0.89645   0.00000  Uiso   1.00
H219   H     0.96433   0.37740   0.38685   0.00000  Uiso   1.00
H220   H     0.55750   0.50001   0.60771   0.00000  Uiso   1.00
H221   H     0.89143   0.52427   0.13038   0.00000  Uiso   1.00
O222   O     0.99595   0.26038   0.33832   0.00000  Uiso   1.00
O223   O     0.46221   0.42124   0.62810   0.00000  Uiso   1.00
O224   O     0.90031   0.45306   0.31382   0.00000  Uiso   1.00
N225   N     0.92586   0.24635   0.48742   0.00000  Uiso   1.00
N226   N     0.54550   0.36099   0.69389   0.00000  Uiso   1.00
N227   N     0.85768   0.38367   0.18255   0.00000  Uiso   1.00
N228   N     0.94551   0.34214   0.43170   0.00000  Uiso   1.00
N229   N     0.56515   0.45677   0.63817   0.00000  Uiso   1.00
N230   N     0.87732   0.47945   0.12683   0.00000  Uiso   1.00
C231   C     0.22534   0.67810   0.79286   0.00000  Uiso   1.00
C232   C     0.17886   0.67551   0.69508   0.00000  Uiso   1.00
C233   C     0.15073   0.72669   0.64389   0.00000  Uiso   1.00
C234   C     0.10956   0.71451   0.55573   0.00000  Uiso   1.00
C235   C     0.03932   0.71980   0.40928   0.00000  Uiso   1.00
C236   C     0.28369   0.64392   0.75196   0.00000  Uiso   1.00
C237   C     0.34370   0.66854   0.74862   0.00000  Uiso   1.00
C238   C     0.39078   0.62976   0.70836   0.00000  Uiso   1.00
C239   C     0.48330   0.58599   0.65030   0.00000  Uiso   1.00
C240   C     0.19765   0.63768   0.88663   0.00000  Uiso   1.00
C241   C     0.18533   0.65704   0.99653   0.00000  Uiso   1.00
C242   C     0.15997   0.61299   0.06966   0.00000  Uiso   1.00
C243   C     0.11889   0.55952   0.22069   0.00000  Uiso   1.00
C244   C     0.20225   0.56546   0.72733   0.00000  Uiso   1.00
C245   C     0.16632   0.61433   0.65948   0.00000  Uiso   1.00
C246   C     0.12518   0.60207   0.57139   0.00000  Uiso   1.00
C247   C     0.09699   0.65322   0.52008   0.00000  Uiso   1.00
C248   C     0.27115   0.58274   0.71637   0.00000  Uiso   1.00
C249   C     0.31815   0.54392   0.67612   0.00000  Uiso   1.00
C250   C     0.37821   0.56847   0.67271   0.00000  Uiso   1.00
C251   C     0.18510   0.57649   0.85104   0.00000  Uiso   1.00
C252   C     0.15977   0.53241   0.92402   0.00000  Uiso   1.00
C253   C     0.14740   0.55170   0.03401   0.00000  Uiso   1.00
H254   H     0.23511   0.72573   0.82057   0.00000  Uiso   1.00
H255   H     0.16046   0.77403   0.67145   0.00000  Uiso   1.00
H256   H     0.35340   0.71589   0.77617   0.00000  Uiso   1.00
H257   H     0.19504   0.70438   0.02404   0.00000  Uiso   1.00
H258   H     0.07217   0.80060   0.49040   0.00000  Uiso   1.00
H259   H     0.47900   0.67799   0.71126   0.00000  Uiso   1.00
H260   H     0.14508   0.65374   0.23393   0.00000  Uiso   1.00
H261   H     0.19248   0.51782   0.69962   0.00000  Uiso   1.00
H262   H     0.11548   0.55472   0.54387   0.00000  Uiso   1.00
H263   H     0.30842   0.49657   0.64859   0.00000  Uiso   1.00
H264   H     0.15007   0.48507   0.89645   0.00000  Uiso   1.00
H265   H     0.03567   0.62260   0.38685   0.00000  Uiso   1.00
H266   H     0.44250   0.49999   0.60771   0.00000  Uiso   1.00
H267   H     0.10857   0.47573   0.13038   0.00000  Uiso   1.00
O268   O     0.00405   0.73962   0.33832   0.00000  Uiso   1.00
O269   O     0.53779   0.57876   0.62810   0.00000  Uiso   1.00
O270   O     0.09969   0.54694   0.31382   0.00000  Uiso   1.00
N271   N     0.07414   0.75365   0.48742   0.00000  Uiso   1.00
N272   N     0.45450   0.63901   0.69389   0.00000  Uiso   1.00
N273   N     0.14232   0.61633   0.18255   0.00000  Uiso   1.00
N274   N     0.05449   0.65786   0.43170   0.00000  Uiso   1.00
N275   N     0.43485   0.54323   0.63817   0.00000  Uiso   1.00
N276   N     0.12268   0.52055   0.12683   0.00000  Uiso   1.00
C277   C     0.17810   0.27466   0.79286   0.00000  Uiso   1.00
C278   C     0.17551   0.32114   0.69508   0.00000  Uiso   1.00
C279   C     0.22669   0.34927   0.64389   0.00000  Uiso   1.00
C280   C     0.21451   0.39044   0.55573   0.00000  Uiso   1.00
C281   C     0.21980   0.46068   0.40928   0.00000  Uiso   1.00
C282   C     0.14392   0.21631   0.75196   0.00000  Uiso   1.00
C283   C     0.16854   0.15630   0.74862   0.00000  Uiso   1.00
C284   C     0.12976   0.10922   0.70836   0.00000  Uiso   1.00
C285   C     0.08599   0.01670   0.65030   0.00000  Uiso   1.00
C286   C     0.13768   0.30235   0.88663   0.00000  Uiso   1.00
C287   C     0.15704   0.31467   0.99653   0.00000  Uiso   1.00
C288   C     0.11299   0.34003   0.06966   0.00000  Uiso   1.00
C289   C     0.05952   0.38111   0.22069   0.00000  Uiso   1.00
C290   C     0.06546   0.29775   0.72733   0.00000  Uiso   1.00
C291   C     0.11433   0.33368   0.65948   0.00000  Uiso   1.00
C292   C     0.10207   0.37482   0.57139   0.00000  Uiso   1.00
C293   C     0.15322   0.40301   0.52008   0.00000  Uiso   1.00
C294   C     0.08274   0.22885   0.71637   0.00000  Uiso   1.00
C295   C     0.04392   0.18185   0.67612   0.00000  Uiso   1.00
C296   C     0.06847   0.12179   0.67271   0.00000  Uiso   1.00
C297   C     0.07649   0.31490   0.85104   0.00000  Uiso   1.00
C298   C     0.03241   0.34023   0.92402   0.00000  Uiso   1.00
C299   C     0.05170   0.35260   0.03401   0.00000  Uiso   1.00
H300   H     0.22573   0.26489   0.82057   0.00000  Uiso   1.00
H301   H     0.27403   0.33954   0.67145   0.00000  Uiso   1.00
H302   H     0.21589   0.14660   0.77617   0.00000  Uiso   1.00
H303   H     0.20438   0.30496   0.02404   0.00000  Uiso   1.00
H304   H     0.30060   0.42783   0.49040   0.00000  Uiso   1.00
H305   H     0.17799   0.02100   0.71126   0.00000  Uiso   1.00
H306   H     0.15374   0.35492   0.23393   0.00000  Uiso   1.00
H307   H     0.01782   0.30752   0.69962   0.00000  Uiso   1.00
H308   H     0.05472   0.38452   0.54387   0.00000  Uiso   1.00
H309   H     0.99657   0.19158   0.64859   0.00000  Uiso   1.00
H310   H     0.98507   0.34993   0.89645   0.00000  Uiso   1.00
H311   H     0.12260   0.46433   0.38685   0.00000  Uiso   1.00
H312   H     0.99999   0.05750   0.60771   0.00000  Uiso   1.00
H313   H     0.97573   0.39143   0.13038   0.00000  Uiso   1.00
O314   O     0.23962   0.49595   0.33832   0.00000  Uiso   1.00
O315   O     0.07876   0.96221   0.62810   0.00000  Uiso   1.00
O316   O     0.04694   0.40031   0.31382   0.00000  Uiso   1.00
N317   N     0.25365   0.42586   0.48742   0.00000  Uiso   1.00
N318   N     0.13901   0.04550   0.69389   0.00000  Uiso   1.00
N319   N     0.11633   0.35768   0.18255   0.00000  Uiso   1.00
N320   N     0.15786   0.44551   0.43170   0.00000  Uiso   1.00
N321   N     0.04323   0.06515   0.63817   0.00000  Uiso   1.00
N322   N     0.02055   0.37732   0.12683   0.00000  Uiso   1.00
C323   C     0.82190   0.72534   0.79286   0.00000  Uiso   1.00
C324   C     0.82449   0.67886   0.69508   0.00000  Uiso   1.00
C325   C     0.77331   0.65073   0.64389   0.00000  Uiso   1.00
C326   C     0.78549   0.60956   0.55573   0.00000  Uiso   1.00
C327   C     0.78020   0.53932   0.40928   0.00000  Uiso   1.00
C328   C     0.85608   0.78369   0.75196   0.00000  Uiso   1.00
C329   C     0.83146   0.84370   0.74862   0.00000  Uiso   1.00
C330   C     0.87024   0.89078   0.70836   0.00000  Uiso   1.00
C331   C     0.91401   0.98330   0.65030   0.00000  Uiso   1.00
C332   C     0.86232   0.69765   0.88663   0.00000  Uiso   1.00
C333   C     0.84296   0.68533   0.99653   0.00000  Uiso   1.00
C334   C     0.88701   0.65997   0.06966   0.00000  Uiso   1.00
C335   C     0.94048   0.61889   0.22069   0.00000  Uiso   1.00
C336   C     0.93454   0.70225   0.72733   0.00000  Uiso   1.00
C337   C     0.88567   0.66632   0.65948   0.00000  Uiso   1.00
C338   C     0.89793   0.62518   0.57139   0.00000  Uiso   1.00
C339   C     0.84678   0.59699   0.52008   0.00000  Uiso   1.00
C340   C     0.91726   0.77115   0.71637   0.00000  Uiso   1.00
C341   C     0.95608   0.81815   0.67612   0.00000  Uiso   1.00
C342   C     0.93153   0.87821   0.67271   0.00000  Uiso   1.00
C343   C     0.92351   0.68510   0.85104   0.00000  Uiso   1.00
C344   C     0.96759   0.65977   0.92402   0.00000  Uiso   1.00
C345   C     0.94830   0.64740   0.03401   0.00000  Uiso   1.00
H346   H     0.77427   0.73511   0.82057   0.00000  Uiso   1.00
H347   H     0.72597   0.66046   0.67145   0.00000  Uiso   1.00
H348   H     0.78411   0.85340   0.77617   0.00000  Uiso   1.00
H349   H     0.79562   0.69504   0.02404   0.00000  Uiso   1.00
H350   H     0.69940   0.57217   0.49040   0.00000  Uiso   1.00
H351   H     0.82201   0.97900   0.71126   0.00000  Uiso   1.00
H352   H     0.84626   0.64508   0.23393   0.00000  Uiso   1.00
H353   H     0.98218   0.69248   0.69962   0.00000  Uiso   1.00
H354   H     0.94528   0.61548   0.54387   0.00000  Uiso   1.00
H355   H     0.00343   0.80842   0.64859   0.00000  Uiso   1.00
H356   H     0.01493   0.65007   0.89645   0.00000  Uiso   1.00
H357   H     0.87740   0.53567   0.38685   0.00000  Uiso   1.00
H358   H     0.00001   0.94250   0.60771   0.00000  Uiso   1.00
H359   H     0.02427   0.60857   0.13038   0.00000  Uiso   1.00
O360   O     0.76038   0.50405   0.33832   0.00000  Uiso   1.00
O361   O     0.92124   0.03779   0.62810   0.00000  Uiso   1.00
O362   O     0.95306   0.59969   0.31382   0.00000  Uiso   1.00
N363   N     0.74635   0.57414   0.48742   0.00000  Uiso   1.00
N364   N     0.86099   0.95450   0.69389   0.00000  Uiso   1.00
N365   N     0.88367   0.64232   0.18255   0.00000  Uiso   1.00
N366   N     0.84214   0.55449   0.43170   0.00000  Uiso   1.00
N367   N     0.95677   0.93485   0.63817   0.00000  Uiso   1.00
N368   N     0.97945   0.62268   0.12683   0.00000  Uiso   1.00
