data_job_00807
_audit_creation_date              2018-12-19
_audit_creation_method            'Materials Studio'
_symmetry_space_group_name_H-M    'P1'
_symmetry_Int_Tables_number       1
_symmetry_cell_setting            triclinic
loop_
_symmetry_equiv_pos_as_xyz
  x,y,z
_cell_length_a                    23.7773
_cell_length_b                    10.2083
_cell_length_c                    23.5243
_cell_angle_alpha                 90.0000
_cell_angle_beta                  67.3502
_cell_angle_gamma                 90.0000
loop_
_atom_site_label
_atom_site_type_symbol
_atom_site_fract_x
_atom_site_fract_y
_atom_site_fract_z
_atom_site_U_iso_or_equiv
_atom_site_adp_type
_atom_site_occupancy
C1     C     0.91577   0.83086   0.65627   0.00000  Uiso   1.00
C2     C     0.88934   0.82571   0.60664   0.00000  Uiso   1.00
C3     C     0.88575   0.93019   0.57045   0.00000  Uiso   1.00
C4     C     0.86000   0.90547   0.52764   0.00000  Uiso   1.00
C5     C     0.82218   0.91647   0.45157   0.00000  Uiso   1.00
C6     C     0.86542   0.78266   0.71535   0.00000  Uiso   1.00
C7     C     0.84172   0.85094   0.77055   0.00000  Uiso   1.00
C8     C     0.79584   0.78996   0.81925   0.00000  Uiso   1.00
C9     C     0.72092   0.73408   0.91196   0.00000  Uiso   1.00
C10    C     0.96558   0.72679   0.63883   0.00000  Uiso   1.00
C11    C     0.02609   0.74809   0.62971   0.00000  Uiso   1.00
C12    C     0.06453   0.64006   0.61401   0.00000  Uiso   1.00
C13    C     0.14512   0.49744   0.58791   0.00000  Uiso   1.00
C14    C     0.87642   0.60114   0.64461   0.00000  Uiso   1.00
C15    C     0.86797   0.70094   0.60031   0.00000  Uiso   1.00
C16    C     0.84221   0.67604   0.55755   0.00000  Uiso   1.00
C17    C     0.83859   0.78047   0.52130   0.00000  Uiso   1.00
C18    C     0.84404   0.65789   0.70902   0.00000  Uiso   1.00
C19    C     0.79819   0.59679   0.75765   0.00000  Uiso   1.00
C20    C     0.77442   0.66496   0.81291   0.00000  Uiso   1.00
C21    C     0.94420   0.60202   0.63250   0.00000  Uiso   1.00
C22    C     0.98255   0.49393   0.61681   0.00000  Uiso   1.00
C23    C     0.04312   0.51506   0.60766   0.00000  Uiso   1.00
H24    H     0.93241   0.92800   0.66120   0.00000  Uiso   1.00
H25    H     0.90229   0.02675   0.57537   0.00000  Uiso   1.00
H26    H     0.85828   0.94749   0.77544   0.00000  Uiso   1.00
H27    H     0.04262   0.84466   0.63462   0.00000  Uiso   1.00
H28    H     0.85946   0.08121   0.47743   0.00000  Uiso   1.00
H29    H     0.76666   0.91409   0.89929   0.00000  Uiso   1.00
H30    H     0.15538   0.69723   0.60234   0.00000  Uiso   1.00
H31    H     0.85978   0.50400   0.63968   0.00000  Uiso   1.00
H32    H     0.82568   0.57947   0.55266   0.00000  Uiso   1.00
H33    H     0.78166   0.50023   0.75273   0.00000  Uiso   1.00
H34    H     0.96600   0.39739   0.61191   0.00000  Uiso   1.00
H35    H     0.79727   0.71818   0.45900   0.00000  Uiso   1.00
H36    H     0.70448   0.55107   0.88086   0.00000  Uiso   1.00
H37    H     0.09319   0.33421   0.58392   0.00000  Uiso   1.00
O38    O     0.80722   0.95701   0.41137   0.00000  Uiso   1.00
O39    O     0.68549   0.73775   0.96484   0.00000  Uiso   1.00
O40    O     0.19548   0.45324   0.57525   0.00000  Uiso   1.00
N41    N     0.84951   0.98540   0.48502   0.00000  Uiso   1.00
N42    N     0.76275   0.82917   0.87944   0.00000  Uiso   1.00
N43    N     0.12616   0.62642   0.60184   0.00000  Uiso   1.00
N44    N     0.81605   0.79006   0.47511   0.00000  Uiso   1.00
N45    N     0.72929   0.63383   0.86952   0.00000  Uiso   1.00
N46    N     0.09270   0.43108   0.59192   0.00000  Uiso   1.00
C47    C     0.41577   0.33086   0.65627   0.00000  Uiso   1.00
C48    C     0.38934   0.32571   0.60664   0.00000  Uiso   1.00
C49    C     0.38575   0.43019   0.57045   0.00000  Uiso   1.00
C50    C     0.36000   0.40547   0.52764   0.00000  Uiso   1.00
C51    C     0.32218   0.41647   0.45157   0.00000  Uiso   1.00
C52    C     0.36542   0.28266   0.71535   0.00000  Uiso   1.00
C53    C     0.34172   0.35094   0.77055   0.00000  Uiso   1.00
C54    C     0.29584   0.28996   0.81925   0.00000  Uiso   1.00
C55    C     0.22092   0.23408   0.91196   0.00000  Uiso   1.00
C56    C     0.46558   0.22679   0.63883   0.00000  Uiso   1.00
C57    C     0.52609   0.24809   0.62971   0.00000  Uiso   1.00
C58    C     0.56453   0.14006   0.61401   0.00000  Uiso   1.00
C59    C     0.64512   0.99744   0.58791   0.00000  Uiso   1.00
C60    C     0.37642   0.10114   0.64461   0.00000  Uiso   1.00
C61    C     0.36797   0.20094   0.60031   0.00000  Uiso   1.00
C62    C     0.34221   0.17604   0.55755   0.00000  Uiso   1.00
C63    C     0.33859   0.28047   0.52130   0.00000  Uiso   1.00
C64    C     0.34404   0.15789   0.70902   0.00000  Uiso   1.00
C65    C     0.29819   0.09679   0.75765   0.00000  Uiso   1.00
C66    C     0.27442   0.16496   0.81291   0.00000  Uiso   1.00
C67    C     0.44420   0.10202   0.63250   0.00000  Uiso   1.00
C68    C     0.48255   0.99393   0.61681   0.00000  Uiso   1.00
C69    C     0.54312   0.01506   0.60766   0.00000  Uiso   1.00
H70    H     0.43241   0.42800   0.66120   0.00000  Uiso   1.00
H71    H     0.40229   0.52675   0.57537   0.00000  Uiso   1.00
H72    H     0.35828   0.44749   0.77544   0.00000  Uiso   1.00
H73    H     0.54262   0.34466   0.63462   0.00000  Uiso   1.00
H74    H     0.35946   0.58121   0.47743   0.00000  Uiso   1.00
H75    H     0.26666   0.41409   0.89929   0.00000  Uiso   1.00
H76    H     0.65538   0.19723   0.60234   0.00000  Uiso   1.00
H77    H     0.35978   0.00400   0.63968   0.00000  Uiso   1.00
H78    H     0.32568   0.07947   0.55266   0.00000  Uiso   1.00
H79    H     0.28166   0.00023   0.75273   0.00000  Uiso   1.00
H80    H     0.46600   0.89739   0.61191   0.00000  Uiso   1.00
H81    H     0.29727   0.21818   0.45900   0.00000  Uiso   1.00
H82    H     0.20448   0.05107   0.88086   0.00000  Uiso   1.00
H83    H     0.59319   0.83421   0.58392   0.00000  Uiso   1.00
O84    O     0.30722   0.45701   0.41137   0.00000  Uiso   1.00
O85    O     0.18549   0.23775   0.96484   0.00000  Uiso   1.00
O86    O     0.69548   0.95324   0.57525   0.00000  Uiso   1.00
N87    N     0.34951   0.48540   0.48502   0.00000  Uiso   1.00
N88    N     0.26275   0.32917   0.87944   0.00000  Uiso   1.00
N89    N     0.62616   0.12642   0.60184   0.00000  Uiso   1.00
N90    N     0.31605   0.29006   0.47511   0.00000  Uiso   1.00
N91    N     0.22929   0.13383   0.86952   0.00000  Uiso   1.00
N92    N     0.59270   0.93108   0.59192   0.00000  Uiso   1.00
C93    C     0.08423   0.83086   0.84373   0.00000  Uiso   1.00
C94    C     0.11066   0.82571   0.89336   0.00000  Uiso   1.00
C95    C     0.11425   0.93019   0.92955   0.00000  Uiso   1.00
C96    C     0.14000   0.90547   0.97236   0.00000  Uiso   1.00
C97    C     0.17782   0.91647   0.04843   0.00000  Uiso   1.00
C98    C     0.13458   0.78266   0.78465   0.00000  Uiso   1.00
C99    C     0.15828   0.85094   0.72945   0.00000  Uiso   1.00
C100   C     0.20416   0.78996   0.68075   0.00000  Uiso   1.00
C101   C     0.27908   0.73408   0.58804   0.00000  Uiso   1.00
C102   C     0.03442   0.72679   0.86117   0.00000  Uiso   1.00
C103   C     0.97391   0.74809   0.87029   0.00000  Uiso   1.00
C104   C     0.93547   0.64006   0.88599   0.00000  Uiso   1.00
C105   C     0.85488   0.49744   0.91209   0.00000  Uiso   1.00
C106   C     0.12358   0.60114   0.85539   0.00000  Uiso   1.00
C107   C     0.13203   0.70094   0.89969   0.00000  Uiso   1.00
C108   C     0.15779   0.67604   0.94245   0.00000  Uiso   1.00
C109   C     0.16141   0.78047   0.97870   0.00000  Uiso   1.00
C110   C     0.15596   0.65789   0.79098   0.00000  Uiso   1.00
C111   C     0.20181   0.59679   0.74235   0.00000  Uiso   1.00
C112   C     0.22558   0.66496   0.68709   0.00000  Uiso   1.00
C113   C     0.05580   0.60202   0.86750   0.00000  Uiso   1.00
C114   C     0.01745   0.49393   0.88319   0.00000  Uiso   1.00
C115   C     0.95688   0.51506   0.89234   0.00000  Uiso   1.00
H116   H     0.06759   0.92800   0.83880   0.00000  Uiso   1.00
H117   H     0.09771   0.02675   0.92463   0.00000  Uiso   1.00
H118   H     0.14172   0.94749   0.72456   0.00000  Uiso   1.00
H119   H     0.95738   0.84466   0.86538   0.00000  Uiso   1.00
H120   H     0.14054   0.08121   0.02257   0.00000  Uiso   1.00
H121   H     0.23334   0.91409   0.60071   0.00000  Uiso   1.00
H122   H     0.84462   0.69723   0.89766   0.00000  Uiso   1.00
H123   H     0.14022   0.50400   0.86032   0.00000  Uiso   1.00
H124   H     0.17432   0.57947   0.94734   0.00000  Uiso   1.00
H125   H     0.21834   0.50023   0.74727   0.00000  Uiso   1.00
H126   H     0.03400   0.39739   0.88809   0.00000  Uiso   1.00
H127   H     0.20273   0.71818   0.04100   0.00000  Uiso   1.00
H128   H     0.29552   0.55107   0.61914   0.00000  Uiso   1.00
H129   H     0.90681   0.33421   0.91608   0.00000  Uiso   1.00
O130   O     0.19278   0.95701   0.08863   0.00000  Uiso   1.00
O131   O     0.31451   0.73775   0.53516   0.00000  Uiso   1.00
O132   O     0.80452   0.45324   0.92475   0.00000  Uiso   1.00
N133   N     0.15049   0.98540   0.01498   0.00000  Uiso   1.00
N134   N     0.23725   0.82917   0.62056   0.00000  Uiso   1.00
N135   N     0.87384   0.62642   0.89816   0.00000  Uiso   1.00
N136   N     0.18395   0.79006   0.02489   0.00000  Uiso   1.00
N137   N     0.27071   0.63383   0.63048   0.00000  Uiso   1.00
N138   N     0.90730   0.43108   0.90808   0.00000  Uiso   1.00
C139   C     0.58423   0.33086   0.84373   0.00000  Uiso   1.00
C140   C     0.61066   0.32571   0.89336   0.00000  Uiso   1.00
C141   C     0.61425   0.43019   0.92955   0.00000  Uiso   1.00
C142   C     0.64000   0.40547   0.97236   0.00000  Uiso   1.00
C143   C     0.67782   0.41647   0.04843   0.00000  Uiso   1.00
C144   C     0.63458   0.28266   0.78465   0.00000  Uiso   1.00
C145   C     0.65828   0.35094   0.72945   0.00000  Uiso   1.00
C146   C     0.70416   0.28996   0.68075   0.00000  Uiso   1.00
C147   C     0.77908   0.23408   0.58804   0.00000  Uiso   1.00
C148   C     0.53442   0.22679   0.86117   0.00000  Uiso   1.00
C149   C     0.47391   0.24809   0.87029   0.00000  Uiso   1.00
C150   C     0.43547   0.14006   0.88599   0.00000  Uiso   1.00
C151   C     0.35488   0.99744   0.91209   0.00000  Uiso   1.00
C152   C     0.62358   0.10114   0.85539   0.00000  Uiso   1.00
C153   C     0.63203   0.20094   0.89969   0.00000  Uiso   1.00
C154   C     0.65779   0.17604   0.94245   0.00000  Uiso   1.00
C155   C     0.66141   0.28047   0.97870   0.00000  Uiso   1.00
C156   C     0.65596   0.15789   0.79098   0.00000  Uiso   1.00
C157   C     0.70181   0.09679   0.74235   0.00000  Uiso   1.00
C158   C     0.72558   0.16496   0.68709   0.00000  Uiso   1.00
C159   C     0.55580   0.10202   0.86750   0.00000  Uiso   1.00
C160   C     0.51745   0.99393   0.88319   0.00000  Uiso   1.00
C161   C     0.45688   0.01506   0.89234   0.00000  Uiso   1.00
H162   H     0.56759   0.42800   0.83880   0.00000  Uiso   1.00
H163   H     0.59771   0.52675   0.92463   0.00000  Uiso   1.00
H164   H     0.64172   0.44749   0.72456   0.00000  Uiso   1.00
H165   H     0.45738   0.34466   0.86538   0.00000  Uiso   1.00
H166   H     0.64054   0.58121   0.02257   0.00000  Uiso   1.00
H167   H     0.73334   0.41409   0.60071   0.00000  Uiso   1.00
H168   H     0.34462   0.19723   0.89766   0.00000  Uiso   1.00
H169   H     0.64022   0.00400   0.86032   0.00000  Uiso   1.00
H170   H     0.67432   0.07947   0.94734   0.00000  Uiso   1.00
H171   H     0.71834   0.00023   0.74727   0.00000  Uiso   1.00
H172   H     0.53400   0.89739   0.88809   0.00000  Uiso   1.00
H173   H     0.70273   0.21818   0.04100   0.00000  Uiso   1.00
H174   H     0.79552   0.05107   0.61914   0.00000  Uiso   1.00
H175   H     0.40681   0.83421   0.91608   0.00000  Uiso   1.00
O176   O     0.69278   0.45701   0.08863   0.00000  Uiso   1.00
O177   O     0.81451   0.23775   0.53516   0.00000  Uiso   1.00
O178   O     0.30452   0.95324   0.92475   0.00000  Uiso   1.00
N179   N     0.65049   0.48540   0.01498   0.00000  Uiso   1.00
N180   N     0.73725   0.32917   0.62056   0.00000  Uiso   1.00
N181   N     0.37384   0.12642   0.89816   0.00000  Uiso   1.00
N182   N     0.68395   0.29006   0.02489   0.00000  Uiso   1.00
N183   N     0.77071   0.13383   0.63048   0.00000  Uiso   1.00
N184   N     0.40730   0.93108   0.90808   0.00000  Uiso   1.00
C185   C     0.08423   0.16914   0.34373   0.00000  Uiso   1.00
C186   C     0.11066   0.17429   0.39336   0.00000  Uiso   1.00
C187   C     0.11425   0.06981   0.42955   0.00000  Uiso   1.00
C188   C     0.14000   0.09453   0.47236   0.00000  Uiso   1.00
C189   C     0.17782   0.08353   0.54843   0.00000  Uiso   1.00
C190   C     0.13458   0.21734   0.28465   0.00000  Uiso   1.00
C191   C     0.15828   0.14906   0.22945   0.00000  Uiso   1.00
C192   C     0.20416   0.21004   0.18075   0.00000  Uiso   1.00
C193   C     0.27908   0.26592   0.08804   0.00000  Uiso   1.00
C194   C     0.03442   0.27321   0.36117   0.00000  Uiso   1.00
C195   C     0.97391   0.25191   0.37029   0.00000  Uiso   1.00
C196   C     0.93547   0.35994   0.38599   0.00000  Uiso   1.00
C197   C     0.85488   0.50256   0.41209   0.00000  Uiso   1.00
C198   C     0.12358   0.39886   0.35539   0.00000  Uiso   1.00
C199   C     0.13203   0.29906   0.39969   0.00000  Uiso   1.00
C200   C     0.15779   0.32396   0.44245   0.00000  Uiso   1.00
C201   C     0.16141   0.21953   0.47870   0.00000  Uiso   1.00
C202   C     0.15596   0.34211   0.29098   0.00000  Uiso   1.00
C203   C     0.20181   0.40321   0.24235   0.00000  Uiso   1.00
C204   C     0.22558   0.33504   0.18709   0.00000  Uiso   1.00
C205   C     0.05580   0.39798   0.36750   0.00000  Uiso   1.00
C206   C     0.01745   0.50607   0.38319   0.00000  Uiso   1.00
C207   C     0.95688   0.48494   0.39234   0.00000  Uiso   1.00
H208   H     0.06759   0.07200   0.33880   0.00000  Uiso   1.00
H209   H     0.09771   0.97325   0.42463   0.00000  Uiso   1.00
H210   H     0.14172   0.05251   0.22456   0.00000  Uiso   1.00
H211   H     0.95738   0.15534   0.36538   0.00000  Uiso   1.00
H212   H     0.14054   0.91879   0.52257   0.00000  Uiso   1.00
H213   H     0.23334   0.08591   0.10071   0.00000  Uiso   1.00
H214   H     0.84462   0.30277   0.39766   0.00000  Uiso   1.00
H215   H     0.14022   0.49600   0.36032   0.00000  Uiso   1.00
H216   H     0.17432   0.42053   0.44734   0.00000  Uiso   1.00
H217   H     0.21834   0.49977   0.24727   0.00000  Uiso   1.00
H218   H     0.03400   0.60261   0.38809   0.00000  Uiso   1.00
H219   H     0.20273   0.28182   0.54100   0.00000  Uiso   1.00
H220   H     0.29552   0.44893   0.11914   0.00000  Uiso   1.00
H221   H     0.90681   0.66579   0.41608   0.00000  Uiso   1.00
O222   O     0.19278   0.04299   0.58863   0.00000  Uiso   1.00
O223   O     0.31451   0.26225   0.03516   0.00000  Uiso   1.00
O224   O     0.80452   0.54676   0.42475   0.00000  Uiso   1.00
N225   N     0.15049   0.01460   0.51498   0.00000  Uiso   1.00
N226   N     0.23725   0.17083   0.12056   0.00000  Uiso   1.00
N227   N     0.87384   0.37358   0.39816   0.00000  Uiso   1.00
N228   N     0.18395   0.20994   0.52489   0.00000  Uiso   1.00
N229   N     0.27071   0.36617   0.13048   0.00000  Uiso   1.00
N230   N     0.90730   0.56892   0.40808   0.00000  Uiso   1.00
C231   C     0.58423   0.66914   0.34373   0.00000  Uiso   1.00
C232   C     0.61066   0.67429   0.39336   0.00000  Uiso   1.00
C233   C     0.61425   0.56981   0.42955   0.00000  Uiso   1.00
C234   C     0.64000   0.59453   0.47236   0.00000  Uiso   1.00
C235   C     0.67782   0.58353   0.54843   0.00000  Uiso   1.00
C236   C     0.63458   0.71734   0.28465   0.00000  Uiso   1.00
C237   C     0.65828   0.64906   0.22945   0.00000  Uiso   1.00
C238   C     0.70416   0.71004   0.18075   0.00000  Uiso   1.00
C239   C     0.77908   0.76592   0.08804   0.00000  Uiso   1.00
C240   C     0.53442   0.77321   0.36117   0.00000  Uiso   1.00
C241   C     0.47391   0.75191   0.37029   0.00000  Uiso   1.00
C242   C     0.43547   0.85994   0.38599   0.00000  Uiso   1.00
C243   C     0.35488   0.00256   0.41209   0.00000  Uiso   1.00
C244   C     0.62358   0.89886   0.35539   0.00000  Uiso   1.00
C245   C     0.63203   0.79906   0.39969   0.00000  Uiso   1.00
C246   C     0.65779   0.82396   0.44245   0.00000  Uiso   1.00
C247   C     0.66141   0.71953   0.47870   0.00000  Uiso   1.00
C248   C     0.65596   0.84211   0.29098   0.00000  Uiso   1.00
C249   C     0.70181   0.90321   0.24235   0.00000  Uiso   1.00
C250   C     0.72558   0.83504   0.18709   0.00000  Uiso   1.00
C251   C     0.55580   0.89798   0.36750   0.00000  Uiso   1.00
C252   C     0.51745   0.00607   0.38319   0.00000  Uiso   1.00
C253   C     0.45688   0.98494   0.39234   0.00000  Uiso   1.00
H254   H     0.56759   0.57200   0.33880   0.00000  Uiso   1.00
H255   H     0.59771   0.47325   0.42463   0.00000  Uiso   1.00
H256   H     0.64172   0.55251   0.22456   0.00000  Uiso   1.00
H257   H     0.45738   0.65534   0.36538   0.00000  Uiso   1.00
H258   H     0.64054   0.41879   0.52257   0.00000  Uiso   1.00
H259   H     0.73334   0.58591   0.10071   0.00000  Uiso   1.00
H260   H     0.34462   0.80277   0.39766   0.00000  Uiso   1.00
H261   H     0.64022   0.99600   0.36032   0.00000  Uiso   1.00
H262   H     0.67432   0.92053   0.44734   0.00000  Uiso   1.00
H263   H     0.71834   0.99977   0.24727   0.00000  Uiso   1.00
H264   H     0.53400   0.10261   0.38809   0.00000  Uiso   1.00
H265   H     0.70273   0.78182   0.54100   0.00000  Uiso   1.00
H266   H     0.79552   0.94893   0.11914   0.00000  Uiso   1.00
H267   H     0.40681   0.16579   0.41608   0.00000  Uiso   1.00
O268   O     0.69278   0.54299   0.58863   0.00000  Uiso   1.00
O269   O     0.81451   0.76225   0.03516   0.00000  Uiso   1.00
O270   O     0.30452   0.04676   0.42475   0.00000  Uiso   1.00
N271   N     0.65049   0.51460   0.51498   0.00000  Uiso   1.00
N272   N     0.73725   0.67083   0.12056   0.00000  Uiso   1.00
N273   N     0.37384   0.87358   0.39816   0.00000  Uiso   1.00
N274   N     0.68395   0.70994   0.52489   0.00000  Uiso   1.00
N275   N     0.77071   0.86617   0.13048   0.00000  Uiso   1.00
N276   N     0.40730   0.06892   0.40808   0.00000  Uiso   1.00
C277   C     0.91577   0.16914   0.15627   0.00000  Uiso   1.00
C278   C     0.88934   0.17429   0.10664   0.00000  Uiso   1.00
C279   C     0.88575   0.06981   0.07045   0.00000  Uiso   1.00
C280   C     0.86000   0.09453   0.02764   0.00000  Uiso   1.00
C281   C     0.82218   0.08353   0.95157   0.00000  Uiso   1.00
C282   C     0.86542   0.21734   0.21535   0.00000  Uiso   1.00
C283   C     0.84172   0.14906   0.27055   0.00000  Uiso   1.00
C284   C     0.79584   0.21004   0.31925   0.00000  Uiso   1.00
C285   C     0.72092   0.26592   0.41196   0.00000  Uiso   1.00
C286   C     0.96558   0.27321   0.13883   0.00000  Uiso   1.00
C287   C     0.02609   0.25191   0.12971   0.00000  Uiso   1.00
C288   C     0.06453   0.35994   0.11401   0.00000  Uiso   1.00
C289   C     0.14512   0.50256   0.08791   0.00000  Uiso   1.00
C290   C     0.87642   0.39886   0.14461   0.00000  Uiso   1.00
C291   C     0.86797   0.29906   0.10031   0.00000  Uiso   1.00
C292   C     0.84221   0.32396   0.05755   0.00000  Uiso   1.00
C293   C     0.83859   0.21953   0.02130   0.00000  Uiso   1.00
C294   C     0.84404   0.34211   0.20902   0.00000  Uiso   1.00
C295   C     0.79819   0.40321   0.25765   0.00000  Uiso   1.00
C296   C     0.77442   0.33504   0.31291   0.00000  Uiso   1.00
C297   C     0.94420   0.39798   0.13250   0.00000  Uiso   1.00
C298   C     0.98255   0.50607   0.11681   0.00000  Uiso   1.00
C299   C     0.04312   0.48494   0.10766   0.00000  Uiso   1.00
H300   H     0.93241   0.07200   0.16120   0.00000  Uiso   1.00
H301   H     0.90229   0.97325   0.07537   0.00000  Uiso   1.00
H302   H     0.85828   0.05251   0.27544   0.00000  Uiso   1.00
H303   H     0.04262   0.15534   0.13462   0.00000  Uiso   1.00
H304   H     0.85946   0.91879   0.97743   0.00000  Uiso   1.00
H305   H     0.76666   0.08591   0.39929   0.00000  Uiso   1.00
H306   H     0.15538   0.30277   0.10234   0.00000  Uiso   1.00
H307   H     0.85978   0.49600   0.13968   0.00000  Uiso   1.00
H308   H     0.82568   0.42053   0.05266   0.00000  Uiso   1.00
H309   H     0.78166   0.49977   0.25273   0.00000  Uiso   1.00
H310   H     0.96600   0.60261   0.11191   0.00000  Uiso   1.00
H311   H     0.79727   0.28182   0.95900   0.00000  Uiso   1.00
H312   H     0.70448   0.44893   0.38086   0.00000  Uiso   1.00
H313   H     0.09319   0.66579   0.08392   0.00000  Uiso   1.00
O314   O     0.80722   0.04299   0.91137   0.00000  Uiso   1.00
O315   O     0.68549   0.26225   0.46484   0.00000  Uiso   1.00
O316   O     0.19548   0.54676   0.07525   0.00000  Uiso   1.00
N317   N     0.84951   0.01460   0.98502   0.00000  Uiso   1.00
N318   N     0.76275   0.17083   0.37944   0.00000  Uiso   1.00
N319   N     0.12616   0.37358   0.10184   0.00000  Uiso   1.00
N320   N     0.81605   0.20994   0.97511   0.00000  Uiso   1.00
N321   N     0.72929   0.36617   0.36952   0.00000  Uiso   1.00
N322   N     0.09270   0.56892   0.09192   0.00000  Uiso   1.00
C323   C     0.41577   0.66914   0.15627   0.00000  Uiso   1.00
C324   C     0.38934   0.67429   0.10664   0.00000  Uiso   1.00
C325   C     0.38575   0.56981   0.07045   0.00000  Uiso   1.00
C326   C     0.36000   0.59453   0.02764   0.00000  Uiso   1.00
C327   C     0.32218   0.58353   0.95157   0.00000  Uiso   1.00
C328   C     0.36542   0.71734   0.21535   0.00000  Uiso   1.00
C329   C     0.34172   0.64906   0.27055   0.00000  Uiso   1.00
C330   C     0.29584   0.71004   0.31925   0.00000  Uiso   1.00
C331   C     0.22092   0.76592   0.41196   0.00000  Uiso   1.00
C332   C     0.46558   0.77321   0.13883   0.00000  Uiso   1.00
C333   C     0.52609   0.75191   0.12971   0.00000  Uiso   1.00
C334   C     0.56453   0.85994   0.11401   0.00000  Uiso   1.00
C335   C     0.64512   0.00256   0.08791   0.00000  Uiso   1.00
C336   C     0.37642   0.89886   0.14461   0.00000  Uiso   1.00
C337   C     0.36797   0.79906   0.10031   0.00000  Uiso   1.00
C338   C     0.34221   0.82396   0.05755   0.00000  Uiso   1.00
C339   C     0.33859   0.71953   0.02130   0.00000  Uiso   1.00
C340   C     0.34404   0.84211   0.20902   0.00000  Uiso   1.00
C341   C     0.29819   0.90321   0.25765   0.00000  Uiso   1.00
C342   C     0.27442   0.83504   0.31291   0.00000  Uiso   1.00
C343   C     0.44420   0.89798   0.13250   0.00000  Uiso   1.00
C344   C     0.48255   0.00607   0.11681   0.00000  Uiso   1.00
C345   C     0.54312   0.98494   0.10766   0.00000  Uiso   1.00
H346   H     0.43241   0.57200   0.16120   0.00000  Uiso   1.00
H347   H     0.40229   0.47325   0.07537   0.00000  Uiso   1.00
H348   H     0.35828   0.55251   0.27544   0.00000  Uiso   1.00
H349   H     0.54262   0.65534   0.13462   0.00000  Uiso   1.00
H350   H     0.35946   0.41879   0.97743   0.00000  Uiso   1.00
H351   H     0.26666   0.58591   0.39929   0.00000  Uiso   1.00
H352   H     0.65538   0.80277   0.10234   0.00000  Uiso   1.00
H353   H     0.35978   0.99600   0.13968   0.00000  Uiso   1.00
H354   H     0.32568   0.92053   0.05266   0.00000  Uiso   1.00
H355   H     0.28166   0.99977   0.25273   0.00000  Uiso   1.00
H356   H     0.46600   0.10261   0.11191   0.00000  Uiso   1.00
H357   H     0.29727   0.78182   0.95900   0.00000  Uiso   1.00
H358   H     0.20448   0.94893   0.38086   0.00000  Uiso   1.00
H359   H     0.59319   0.16579   0.08392   0.00000  Uiso   1.00
O360   O     0.30722   0.54299   0.91137   0.00000  Uiso   1.00
O361   O     0.18549   0.76225   0.46484   0.00000  Uiso   1.00
O362   O     0.69548   0.04676   0.07525   0.00000  Uiso   1.00
N363   N     0.34951   0.51460   0.98502   0.00000  Uiso   1.00
N364   N     0.26275   0.67083   0.37944   0.00000  Uiso   1.00
N365   N     0.62616   0.87358   0.10184   0.00000  Uiso   1.00
N366   N     0.31605   0.70994   0.97511   0.00000  Uiso   1.00
N367   N     0.22929   0.86617   0.36952   0.00000  Uiso   1.00
N368   N     0.59270   0.06892   0.09192   0.00000  Uiso   1.00
