data_job_07027
_audit_creation_date              2018-12-19
_audit_creation_method            'Materials Studio'
_symmetry_space_group_name_H-M    'P1'
_symmetry_Int_Tables_number       1
_symmetry_cell_setting            triclinic
loop_
_symmetry_equiv_pos_as_xyz
  x,y,z
_cell_length_a                    19.3036
_cell_length_b                    21.7004
_cell_length_c                    22.8935
_cell_angle_alpha                 111.2415
_cell_angle_beta                  73.0177
_cell_angle_gamma                 88.8891
loop_
_atom_site_label
_atom_site_type_symbol
_atom_site_fract_x
_atom_site_fract_y
_atom_site_fract_z
_atom_site_U_iso_or_equiv
_atom_site_adp_type
_atom_site_occupancy
C1     C     0.86673   0.43550   0.40108   0.00000  Uiso   1.00
C2     C     0.94411   0.44215   0.36417   0.00000  Uiso   1.00
C3     C     0.00121   0.39011   0.32630   0.00000  Uiso   1.00
C4     C     0.06786   0.40651   0.29652   0.00000  Uiso   1.00
C5     C     0.18663   0.40678   0.23804   0.00000  Uiso   1.00
C6     C     0.85175   0.48169   0.47321   0.00000  Uiso   1.00
C7     C     0.83118   0.46290   0.52702   0.00000  Uiso   1.00
C8     C     0.82006   0.51259   0.58903   0.00000  Uiso   1.00
C9     C     0.79538   0.57426   0.69984   0.00000  Uiso   1.00
C10    C     0.81585   0.46604   0.37577   0.00000  Uiso   1.00
C11    C     0.76509   0.43410   0.34766   0.00000  Uiso   1.00
C12    C     0.72373   0.47062   0.32764   0.00000  Uiso   1.00
C13    C     0.64333   0.50800   0.28715   0.00000  Uiso   1.00
C14    C     0.88354   0.55716   0.41552   0.00000  Uiso   1.00
C15    C     0.95324   0.50823   0.37202   0.00000  Uiso   1.00
C16    C     0.01981   0.52471   0.34228   0.00000  Uiso   1.00
C17    C     0.07700   0.47270   0.30437   0.00000  Uiso   1.00
C18    C     0.86087   0.54777   0.48105   0.00000  Uiso   1.00
C19    C     0.84977   0.59750   0.54300   0.00000  Uiso   1.00
C20    C     0.82920   0.57879   0.59689   0.00000  Uiso   1.00
C21    C     0.82498   0.53212   0.38361   0.00000  Uiso   1.00
C22    C     0.78369   0.56870   0.36363   0.00000  Uiso   1.00
C23    C     0.73288   0.53682   0.33550   0.00000  Uiso   1.00
H24    H     0.85962   0.38406   0.39498   0.00000  Uiso   1.00
H25    H     0.99413   0.33898   0.32025   0.00000  Uiso   1.00
H26    H     0.82411   0.41176   0.52094   0.00000  Uiso   1.00
H27    H     0.75804   0.38297   0.34160   0.00000  Uiso   1.00
H28    H     0.14729   0.31814   0.24088   0.00000  Uiso   1.00
H29    H     0.78878   0.47161   0.66404   0.00000  Uiso   1.00
H30    H     0.64944   0.41089   0.28588   0.00000  Uiso   1.00
H31    H     0.89064   0.60861   0.42163   0.00000  Uiso   1.00
H32    H     0.02686   0.57585   0.34836   0.00000  Uiso   1.00
H33    H     0.85684   0.64863   0.54905   0.00000  Uiso   1.00
H34    H     0.79077   0.61983   0.36971   0.00000  Uiso   1.00
H35    H     0.17386   0.51040   0.26369   0.00000  Uiso   1.00
H36    H     0.81534   0.66386   0.68685   0.00000  Uiso   1.00
H37    H     0.67601   0.60315   0.30869   0.00000  Uiso   1.00
O38    O     0.24963   0.38867   0.20363   0.00000  Uiso   1.00
O39    O     0.77926   0.59001   0.75879   0.00000  Uiso   1.00
O40    O     0.59646   0.51035   0.26265   0.00000  Uiso   1.00
N41    N     0.13485   0.36788   0.25629   0.00000  Uiso   1.00
N42    N     0.79967   0.51136   0.65192   0.00000  Uiso   1.00
N43    N     0.66939   0.45460   0.29839   0.00000  Uiso   1.00
N44    N     0.14914   0.47133   0.26857   0.00000  Uiso   1.00
N45    N     0.81396   0.61481   0.66420   0.00000  Uiso   1.00
N46    N     0.68368   0.55805   0.31066   0.00000  Uiso   1.00
C47    C     0.66059   0.90755   0.94242   0.00000  Uiso   1.00
C48    C     0.73910   0.92144   0.92012   0.00000  Uiso   1.00
C49    C     0.79925   0.87401   0.87735   0.00000  Uiso   1.00
C50    C     0.86645   0.89678   0.86310   0.00000  Uiso   1.00
C51    C     0.98734   0.90803   0.82431   0.00000  Uiso   1.00
C52    C     0.63611   0.93540   0.01783   0.00000  Uiso   1.00
C53    C     0.60967   0.89970   0.05721   0.00000  Uiso   1.00
C54    C     0.59016   0.93423   0.12520   0.00000  Uiso   1.00
C55    C     0.55111   0.96717   0.23811   0.00000  Uiso   1.00
C56    C     0.61503   0.95133   0.92407   0.00000  Uiso   1.00
C57    C     0.57084   0.92904   0.88463   0.00000  Uiso   1.00
C58    C     0.53356   0.97699   0.87370   0.00000  Uiso   1.00
C59    C     0.46177   0.03466   0.84104   0.00000  Uiso   1.00
C60    C     0.67294   0.03235   0.99314   0.00000  Uiso   1.00
C61    C     0.74581   0.98923   0.94767   0.00000  Uiso   1.00
C62    C     0.81292   0.01208   0.93347   0.00000  Uiso   1.00
C63    C     0.87317   0.96469   0.89069   0.00000  Uiso   1.00
C64    C     0.64282   0.00318   0.04538   0.00000  Uiso   1.00
C65    C     0.62334   0.03778   0.11333   0.00000  Uiso   1.00
C66    C     0.59689   0.00214   0.15281   0.00000  Uiso   1.00
C67    C     0.62174   0.01912   0.95162   0.00000  Uiso   1.00
C68    C     0.58451   0.06711   0.94075   0.00000  Uiso   1.00
C69    C     0.54028   0.04489   0.90131   0.00000  Uiso   1.00
H70    H     0.65536   0.85478   0.92097   0.00000  Uiso   1.00
H71    H     0.79404   0.82155   0.85605   0.00000  Uiso   1.00
H72    H     0.60448   0.84725   0.03588   0.00000  Uiso   1.00
H73    H     0.56566   0.87658   0.86332   0.00000  Uiso   1.00
H74    H     0.95075   0.81461   0.79624   0.00000  Uiso   1.00
H75    H     0.55103   0.86879   0.17541   0.00000  Uiso   1.00
H76    H     0.46917   0.93064   0.81155   0.00000  Uiso   1.00
H77    H     0.67817   0.08513   0.01459   0.00000  Uiso   1.00
H78    H     0.81810   0.06454   0.95480   0.00000  Uiso   1.00
H79    H     0.62854   0.09023   0.13463   0.00000  Uiso   1.00
H80    H     0.58972   0.11956   0.96208   0.00000  Uiso   1.00
H81    H     0.97028   0.01182   0.87639   0.00000  Uiso   1.00
H82    H     0.57056   0.06601   0.25557   0.00000  Uiso   1.00
H83    H     0.48870   0.12785   0.89171   0.00000  Uiso   1.00
O84    O     0.05216   0.89551   0.79531   0.00000  Uiso   1.00
O85    O     0.52773   0.96660   0.29278   0.00000  Uiso   1.00
O86    O     0.42033   0.04774   0.81540   0.00000  Uiso   1.00
N87    N     0.93614   0.86385   0.82330   0.00000  Uiso   1.00
N88    N     0.56244   0.91451   0.17781   0.00000  Uiso   1.00
N89    N     0.48589   0.97233   0.83764   0.00000  Uiso   1.00
N90    N     0.94665   0.96997   0.86643   0.00000  Uiso   1.00
N91    N     0.57295   0.02063   0.22094   0.00000  Uiso   1.00
N92    N     0.49639   0.07845   0.88077   0.00000  Uiso   1.00
C93    C     0.30569   0.75920   0.63336   0.00000  Uiso   1.00
C94    C     0.23794   0.75501   0.61144   0.00000  Uiso   1.00
C95    C     0.16758   0.75405   0.64945   0.00000  Uiso   1.00
C96    C     0.11306   0.75003   0.62041   0.00000  Uiso   1.00
C97    C     0.00552   0.74394   0.59621   0.00000  Uiso   1.00
C98    C     0.36076   0.69870   0.58244   0.00000  Uiso   1.00
C99    C     0.39368   0.65042   0.59607   0.00000  Uiso   1.00
C100   C     0.44256   0.59901   0.54262   0.00000  Uiso   1.00
C101   C     0.52576   0.50553   0.47340   0.00000  Uiso   1.00
C102   C     0.33774   0.82014   0.62453   0.00000  Uiso   1.00
C103   C     0.35133   0.87396   0.67355   0.00000  Uiso   1.00
C104   C     0.38085   0.92478   0.65554   0.00000  Uiso   1.00
C105   C     0.42830   0.01986   0.65168   0.00000  Uiso   1.00
C106   C     0.33396   0.75376   0.51420   0.00000  Uiso   1.00
C107   C     0.25330   0.75205   0.54672   0.00000  Uiso   1.00
C108   C     0.19886   0.74803   0.51762   0.00000  Uiso   1.00
C109   C     0.12844   0.74707   0.55557   0.00000  Uiso   1.00
C110   C     0.37612   0.69575   0.51772   0.00000  Uiso   1.00
C111   C     0.42496   0.64440   0.46424   0.00000  Uiso   1.00
C112   C     0.45795   0.59605   0.47778   0.00000  Uiso   1.00
C113   C     0.35310   0.81719   0.55981   0.00000  Uiso   1.00
C114   C     0.38261   0.86794   0.54172   0.00000  Uiso   1.00
C115   C     0.39623   0.92182   0.59070   0.00000  Uiso   1.00
H116   H     0.29374   0.76149   0.68374   0.00000  Uiso   1.00
H117   H     0.15572   0.75633   0.69953   0.00000  Uiso   1.00
H118   H     0.38179   0.65272   0.64616   0.00000  Uiso   1.00
H119   H     0.33944   0.87623   0.72363   0.00000  Uiso   1.00
H120   H     0.00948   0.74928   0.68848   0.00000  Uiso   1.00
H121   H     0.48619   0.53082   0.57595   0.00000  Uiso   1.00
H122   H     0.39688   0.00213   0.73931   0.00000  Uiso   1.00
H123   H     0.34592   0.75146   0.46381   0.00000  Uiso   1.00
H124   H     0.21076   0.74575   0.46753   0.00000  Uiso   1.00
H125   H     0.43684   0.64213   0.41416   0.00000  Uiso   1.00
H126   H     0.39448   0.86564   0.49163   0.00000  Uiso   1.00
H127   H     0.05416   0.74068   0.50018   0.00000  Uiso   1.00
H128   H     0.53087   0.52223   0.38765   0.00000  Uiso   1.00
H129   H     0.44156   0.99354   0.55101   0.00000  Uiso   1.00
O130   O     0.94197   0.74138   0.60074   0.00000  Uiso   1.00
O131   O     0.56740   0.45479   0.45310   0.00000  Uiso   1.00
O132   O     0.45023   0.07313   0.66743   0.00000  Uiso   1.00
N133   N     0.03854   0.74805   0.64366   0.00000  Uiso   1.00
N134   N     0.48423   0.54380   0.53845   0.00000  Uiso   1.00
N135   N     0.40075   0.98443   0.69117   0.00000  Uiso   1.00
N136   N     0.06258   0.74343   0.54234   0.00000  Uiso   1.00
N137   N     0.50826   0.53918   0.43712   0.00000  Uiso   1.00
N138   N     0.42479   0.97981   0.58985   0.00000  Uiso   1.00
C139   C     0.49039   0.64884   0.12136   0.00000  Uiso   1.00
C140   C     0.54630   0.65289   0.06055   0.00000  Uiso   1.00
C141   C     0.60084   0.69363   0.06118   0.00000  Uiso   1.00
C142   C     0.64650   0.69002   0.00027   0.00000  Uiso   1.00
C143   C     0.73465   0.70279   0.91487   0.00000  Uiso   1.00
C144   C     0.49854   0.57567   0.11249   0.00000  Uiso   1.00
C145   C     0.51292   0.55148   0.15680   0.00000  Uiso   1.00
C146   C     0.51838   0.48288   0.13963   0.00000  Uiso   1.00
C147   C     0.53233   0.37577   0.13489   0.00000  Uiso   1.00
C148   C     0.41544   0.66394   0.11616   0.00000  Uiso   1.00
C149   C     0.35993   0.71396   0.16356   0.00000  Uiso   1.00
C150   C     0.29541   0.71966   0.14948   0.00000  Uiso   1.00
C151   C     0.18034   0.74960   0.15044   0.00000  Uiso   1.00
C152   C     0.47450   0.57000   0.01208   0.00000  Uiso   1.00
C153   C     0.53766   0.61006   0.00119   0.00000  Uiso   1.00
C154   C     0.58326   0.60640   0.94027   0.00000  Uiso   1.00
C155   C     0.63785   0.64713   0.94081   0.00000  Uiso   1.00
C156   C     0.48991   0.53285   0.05313   0.00000  Uiso   1.00
C157   C     0.49534   0.46426   0.03589   0.00000  Uiso   1.00
C158   C     0.50973   0.43998   0.08016   0.00000  Uiso   1.00
C159   C     0.40681   0.62112   0.05680   0.00000  Uiso   1.00
C160   C     0.34236   0.62674   0.04264   0.00000  Uiso   1.00
C161   C     0.28677   0.67676   0.09001   0.00000  Uiso   1.00
H162   H     0.49711   0.68218   0.16758   0.00000  Uiso   1.00
H163   H     0.60750   0.72675   0.10712   0.00000  Uiso   1.00
H164   H     0.51959   0.58464   0.20274   0.00000  Uiso   1.00
H165   H     0.36663   0.74709   0.20949   0.00000  Uiso   1.00
H166   H     0.72611   0.75727   0.01392   0.00000  Uiso   1.00
H167   H     0.54072   0.45761   0.21554   0.00000  Uiso   1.00
H168   H     0.21817   0.80017   0.22978   0.00000  Uiso   1.00
H169   H     0.46777   0.53666   0.96586   0.00000  Uiso   1.00
H170   H     0.57656   0.57326   0.89434   0.00000  Uiso   1.00
H171   H     0.48865   0.43114   0.98995   0.00000  Uiso   1.00
H172   H     0.33570   0.59359   0.99670   0.00000  Uiso   1.00
H173   H     0.70100   0.63269   0.84122   0.00000  Uiso   1.00
H174   H     0.51560   0.33303   0.04284   0.00000  Uiso   1.00
H175   H     0.19306   0.67559   0.05707   0.00000  Uiso   1.00
O176   O     0.78566   0.72166   0.88416   0.00000  Uiso   1.00
O177   O     0.54242   0.32852   0.14868   0.00000  Uiso   1.00
O178   O     0.11926   0.77795   0.16736   0.00000  Uiso   1.00
N179   N     0.70526   0.72294   0.98309   0.00000  Uiso   1.00
N180   N     0.53194   0.44277   0.17159   0.00000  Uiso   1.00
N181   N     0.23038   0.76303   0.18491   0.00000  Uiso   1.00
N182   N     0.69175   0.65590   0.89016   0.00000  Uiso   1.00
N183   N     0.51843   0.37573   0.07866   0.00000  Uiso   1.00
N184   N     0.21687   0.69599   0.09198   0.00000  Uiso   1.00
C185   C     0.23294   0.41798   0.88830   0.00000  Uiso   1.00
C186   C     0.16534   0.39523   0.86970   0.00000  Uiso   1.00
C187   C     0.15388   0.32945   0.84208   0.00000  Uiso   1.00
C188   C     0.08845   0.31904   0.82869   0.00000  Uiso   1.00
C189   C     0.99138   0.27558   0.79775   0.00000  Uiso   1.00
C190   C     0.20521   0.46359   0.96145   0.00000  Uiso   1.00
C191   C     0.22728   0.45530   0.01096   0.00000  Uiso   1.00
C192   C     0.19542   0.50244   0.07480   0.00000  Uiso   1.00
C193   C     0.16028   0.56513   0.18629   0.00000  Uiso   1.00
C194   C     0.26261   0.46261   0.85110   0.00000  Uiso   1.00
C195   C     0.33296   0.45350   0.80785   0.00000  Uiso   1.00
C196   C     0.34943   0.49983   0.77879   0.00000  Uiso   1.00
C197   C     0.40343   0.56100   0.71895   0.00000  Uiso   1.00
C198   C     0.13711   0.51646   0.91361   0.00000  Uiso   1.00
C199   C     0.11328   0.44872   0.88346   0.00000  Uiso   1.00
C200   C     0.04785   0.43840   0.87009   0.00000  Uiso   1.00
C201   C     0.03630   0.37263   0.84246   0.00000  Uiso   1.00
C202   C     0.15315   0.51708   0.97520   0.00000  Uiso   1.00
C203   C     0.12125   0.56425   0.03897   0.00000  Uiso   1.00
C204   C     0.14327   0.55602   0.08857   0.00000  Uiso   1.00
C205   C     0.21056   0.51610   0.86485   0.00000  Uiso   1.00
C206   C     0.22693   0.56245   0.83586   0.00000  Uiso   1.00
C207   C     0.29729   0.55342   0.79256   0.00000  Uiso   1.00
H208   H     0.27347   0.37634   0.87759   0.00000  Uiso   1.00
H209   H     0.19418   0.28807   0.83145   0.00000  Uiso   1.00
H210   H     0.26757   0.41390   0.00031   0.00000  Uiso   1.00
H211   H     0.37323   0.41211   0.79722   0.00000  Uiso   1.00
H212   H     0.08330   0.21380   0.78638   0.00000  Uiso   1.00
H213   H     0.23807   0.47913   0.14241   0.00000  Uiso   1.00
H214   H     0.46088   0.47534   0.71417   0.00000  Uiso   1.00
H215   H     0.09658   0.55810   0.92432   0.00000  Uiso   1.00
H216   H     0.00758   0.47981   0.88074   0.00000  Uiso   1.00
H217   H     0.08098   0.60563   0.04960   0.00000  Uiso   1.00
H218   H     0.18663   0.60384   0.84651   0.00000  Uiso   1.00
H219   H     0.93185   0.36942   0.82639   0.00000  Uiso   1.00
H220   H     0.08663   0.63475   0.18242   0.00000  Uiso   1.00
H221   H     0.30943   0.63096   0.75417   0.00000  Uiso   1.00
O222   O     0.95221   0.23683   0.77690   0.00000  Uiso   1.00
O223   O     0.15528   0.58493   0.24399   0.00000  Uiso   1.00
O224   O     0.44758   0.57996   0.68214   0.00000  Uiso   1.00
N225   N     0.05988   0.26117   0.80177   0.00000  Uiso   1.00
N226   N     0.20457   0.50923   0.13464   0.00000  Uiso   1.00
N227   N     0.41288   0.50570   0.73427   0.00000  Uiso   1.00
N228   N     0.97838   0.34491   0.82329   0.00000  Uiso   1.00
N229   N     0.12308   0.59297   0.15616   0.00000  Uiso   1.00
N230   N     0.33139   0.58944   0.75580   0.00000  Uiso   1.00
C231   C     0.85675   0.86660   0.27727   0.00000  Uiso   1.00
C232   C     0.78915   0.91400   0.32898   0.00000  Uiso   1.00
C233   C     0.71821   0.89875   0.34320   0.00000  Uiso   1.00
C234   C     0.66394   0.94898   0.39222   0.00000  Uiso   1.00
C235   C     0.55652   0.01296   0.46743   0.00000  Uiso   1.00
C236   C     0.91034   0.86396   0.31408   0.00000  Uiso   1.00
C237   C     0.94130   0.80663   0.31576   0.00000  Uiso   1.00
C238   C     0.98906   0.81474   0.35224   0.00000  Uiso   1.00
C239   C     0.06983   0.80102   0.40427   0.00000  Uiso   1.00
C240   C     0.89116   0.90157   0.23109   0.00000  Uiso   1.00
C241   C     0.90602   0.87585   0.16300   0.00000  Uiso   1.00
C242   C     0.93765   0.91562   0.12960   0.00000  Uiso   1.00
C243   C     0.98864   0.96029   0.05279   0.00000  Uiso   1.00
C244   C     0.88652   0.98294   0.33904   0.00000  Uiso   1.00
C245   C     0.80532   0.97719   0.36253   0.00000  Uiso   1.00
C246   C     0.75115   0.02746   0.41154   0.00000  Uiso   1.00
C247   C     0.68014   0.01229   0.42583   0.00000  Uiso   1.00
C248   C     0.92651   0.92715   0.34763   0.00000  Uiso   1.00
C249   C     0.97424   0.93534   0.38410   0.00000  Uiso   1.00
C250   C     0.00526   0.87804   0.38585   0.00000  Uiso   1.00
C251   C     0.90733   0.96476   0.26464   0.00000  Uiso   1.00
C252   C     0.93895   0.00457   0.23134   0.00000  Uiso   1.00
C253   C     0.95385   0.97892   0.16321   0.00000  Uiso   1.00
H254   H     0.84416   0.81741   0.25115   0.00000  Uiso   1.00
H255   H     0.70572   0.84984   0.31723   0.00000  Uiso   1.00
H256   H     0.92878   0.75773   0.28979   0.00000  Uiso   1.00
H257   H     0.89350   0.82695   0.13705   0.00000  Uiso   1.00
H258   H     0.55937   0.91365   0.40530   0.00000  Uiso   1.00
H259   H     0.02973   0.71945   0.34743   0.00000  Uiso   1.00
H260   H     0.95533   0.86540   0.02535   0.00000  Uiso   1.00
H261   H     0.89911   0.03214   0.36516   0.00000  Uiso   1.00
H262   H     0.76367   0.07636   0.43749   0.00000  Uiso   1.00
H263   H     0.98674   0.98425   0.41006   0.00000  Uiso   1.00
H264   H     0.95145   0.05347   0.25732   0.00000  Uiso   1.00
H265   H     0.60640   0.09751   0.50291   0.00000  Uiso   1.00
H266   H     0.07677   0.90330   0.44504   0.00000  Uiso   1.00
H267   H     0.00237   0.04925   0.12296   0.00000  Uiso   1.00
O268   O     0.49281   0.03079   0.49965   0.00000  Uiso   1.00
O269   O     0.10991   0.77599   0.42371   0.00000  Uiso   1.00
O270   O     0.01230   0.96748   0.00115   0.00000  Uiso   1.00
N271   N     0.58902   0.95086   0.41833   0.00000  Uiso   1.00
N272   N     0.02877   0.76929   0.36424   0.00000  Uiso   1.00
N273   N     0.95923   0.90573   0.06312   0.00000  Uiso   1.00
N274   N     0.61433   0.04979   0.47086   0.00000  Uiso   1.00
N275   N     0.05408   0.86822   0.41676   0.00000  Uiso   1.00
N276   N     0.98454   0.00466   0.11564   0.00000  Uiso   1.00
C277   C     0.17662   0.56283   0.67255   0.00000  Uiso   1.00
C278   C     0.10997   0.60964   0.72654   0.00000  Uiso   1.00
C279   C     0.11158   0.66576   0.78001   0.00000  Uiso   1.00
C280   C     0.04467   0.70204   0.82394   0.00000  Uiso   1.00
C281   C     0.95124   0.77767   0.90917   0.00000  Uiso   1.00
C282   C     0.17028   0.56138   0.60723   0.00000  Uiso   1.00
C283   C     0.22260   0.57691   0.56038   0.00000  Uiso   1.00
C284   C     0.20645   0.57256   0.50387   0.00000  Uiso   1.00
C285   C     0.20668   0.57322   0.40384   0.00000  Uiso   1.00
C286   C     0.16621   0.49323   0.67219   0.00000  Uiso   1.00
C287   C     0.21512   0.45144   0.67994   0.00000  Uiso   1.00
C288   C     0.19556   0.38970   0.67810   0.00000  Uiso   1.00
C289   C     0.18947   0.28453   0.67893   0.00000  Uiso   1.00
C290   C     0.05494   0.52746   0.65549   0.00000  Uiso   1.00
C291   C     0.04388   0.59043   0.71727   0.00000  Uiso   1.00
C292   C     0.97695   0.62663   0.76113   0.00000  Uiso   1.00
C293   C     0.97845   0.68280   0.81466   0.00000  Uiso   1.00
C294   C     0.10419   0.54217   0.59796   0.00000  Uiso   1.00
C295   C     0.08797   0.53779   0.54150   0.00000  Uiso   1.00
C296   C     0.14024   0.55331   0.49458   0.00000  Uiso   1.00
C297   C     0.10012   0.47402   0.66292   0.00000  Uiso   1.00
C298   C     0.08049   0.41232   0.66106   0.00000  Uiso   1.00
C299   C     0.12935   0.37045   0.66881   0.00000  Uiso   1.00
H300   H     0.22808   0.57778   0.67976   0.00000  Uiso   1.00
H301   H     0.16274   0.68061   0.78717   0.00000  Uiso   1.00
H302   H     0.27374   0.59177   0.56757   0.00000  Uiso   1.00
H303   H     0.26626   0.46633   0.68711   0.00000  Uiso   1.00
H304   H     0.06115   0.78616   0.90214   0.00000  Uiso   1.00
H305   H     0.29522   0.59882   0.43909   0.00000  Uiso   1.00
H306   H     0.27944   0.33428   0.69117   0.00000  Uiso   1.00
H307   H     0.00348   0.51251   0.64827   0.00000  Uiso   1.00
H308   H     0.92581   0.61176   0.75395   0.00000  Uiso   1.00
H309   H     0.03682   0.52292   0.53434   0.00000  Uiso   1.00
H310   H     0.02934   0.39747   0.65389   0.00000  Uiso   1.00
H311   H     0.86885   0.73028   0.87518   0.00000  Uiso   1.00
H312   H     0.10292   0.54293   0.41212   0.00000  Uiso   1.00
H313   H     0.08715   0.27840   0.66421   0.00000  Uiso   1.00
O314   O     0.91796   0.82470   0.95873   0.00000  Uiso   1.00
O315   O     0.22506   0.57890   0.35123   0.00000  Uiso   1.00
O316   O     0.20436   0.23184   0.68195   0.00000  Uiso   1.00
N317   N     0.02655   0.75938   0.88130   0.00000  Uiso   1.00
N318   N     0.24539   0.58423   0.44838   0.00000  Uiso   1.00
N319   N     0.23065   0.33691   0.68403   0.00000  Uiso   1.00
N320   N     0.92308   0.72931   0.86679   0.00000  Uiso   1.00
N321   N     0.14191   0.55416   0.43387   0.00000  Uiso   1.00
N322   N     0.12717   0.30684   0.66953   0.00000  Uiso   1.00
C323   C     0.27866   0.20662   0.33561   0.00000  Uiso   1.00
C324   C     0.27492   0.13297   0.32300   0.00000  Uiso   1.00
C325   C     0.21147   0.10358   0.33157   0.00000  Uiso   1.00
C326   C     0.21963   0.03547   0.31736   0.00000  Uiso   1.00
C327   C     0.20331   0.92677   0.30110   0.00000  Uiso   1.00
C328   C     0.32803   0.20862   0.27095   0.00000  Uiso   1.00
C329   C     0.30924   0.24284   0.23576   0.00000  Uiso   1.00
C330   C     0.36212   0.23842   0.17773   0.00000  Uiso   1.00
C331   C     0.42827   0.24722   0.08068   0.00000  Uiso   1.00
C332   C     0.32027   0.23120   0.38512   0.00000  Uiso   1.00
C333   C     0.29496   0.28442   0.44593   0.00000  Uiso   1.00
C334   C     0.34131   0.29902   0.48402   0.00000  Uiso   1.00
C335   C     0.39542   0.34288   0.56424   0.00000  Uiso   1.00
C336   C     0.40597   0.13793   0.29513   0.00000  Uiso   1.00
C337   C     0.34408   0.09566   0.30102   0.00000  Uiso   1.00
C338   C     0.35233   0.02758   0.28679   0.00000  Uiso   1.00
C339   C     0.28891   0.99809   0.29533   0.00000  Uiso   1.00
C340   C     0.39718   0.17131   0.24896   0.00000  Uiso   1.00
C341   C     0.45010   0.16684   0.19097   0.00000  Uiso   1.00
C342   C     0.43139   0.20104   0.15570   0.00000  Uiso   1.00
C343   C     0.38942   0.19389   0.36314   0.00000  Uiso   1.00
C344   C     0.43582   0.20841   0.40114   0.00000  Uiso   1.00
C345   C     0.41059   0.26164   0.46199   0.00000  Uiso   1.00
H346   H     0.22482   0.23567   0.35272   0.00000  Uiso   1.00
H347   H     0.15796   0.13247   0.34858   0.00000  Uiso   1.00
H348   H     0.25572   0.27171   0.25279   0.00000  Uiso   1.00
H349   H     0.24145   0.31328   0.46292   0.00000  Uiso   1.00
H350   H     0.11434   0.00159   0.33427   0.00000  Uiso   1.00
H351   H     0.32048   0.29522   0.13230   0.00000  Uiso   1.00
H352   H     0.29037   0.38287   0.57541   0.00000  Uiso   1.00
H353   H     0.45982   0.10888   0.27801   0.00000  Uiso   1.00
H354   H     0.40586   0.99871   0.26977   0.00000  Uiso   1.00
H355   H     0.50361   0.13796   0.17398   0.00000  Uiso   1.00
H356   H     0.48934   0.17953   0.38411   0.00000  Uiso   1.00
H357   H     0.31554   0.89303   0.27030   0.00000  Uiso   1.00
H358   H     0.52168   0.18667   0.06833   0.00000  Uiso   1.00
H359   H     0.49157   0.27432   0.51144   0.00000  Uiso   1.00
O360   O     0.17521   0.87713   0.29819   0.00000  Uiso   1.00
O361   O     0.44565   0.26237   0.03322   0.00000  Uiso   1.00
O362   O     0.40615   0.37737   0.61457   0.00000  Uiso   1.00
N363   N     0.16910   0.99116   0.32036   0.00000  Uiso   1.00
N364   N     0.36182   0.26568   0.13152   0.00000  Uiso   1.00
N365   N     0.33368   0.34764   0.54578   0.00000  Uiso   1.00
N366   N     0.27736   0.93275   0.28594   0.00000  Uiso   1.00
N367   N     0.47008   0.20727   0.09710   0.00000  Uiso   1.00
N368   N     0.44194   0.28923   0.51136   0.00000  Uiso   1.00
C369   C     0.79635   0.13922   0.16645   0.00000  Uiso   1.00
C370   C     0.85461   0.15850   0.20014   0.00000  Uiso   1.00
C371   C     0.92181   0.17585   0.17313   0.00000  Uiso   1.00
C372   C     0.96744   0.19188   0.21186   0.00000  Uiso   1.00
C373   C     0.06107   0.22204   0.25452   0.00000  Uiso   1.00
C374   C     0.72685   0.18711   0.21311   0.00000  Uiso   1.00
C375   C     0.68663   0.22851   0.19700   0.00000  Uiso   1.00
C376   C     0.62470   0.26862   0.24665   0.00000  Uiso   1.00
C377   C     0.51994   0.34317   0.30943   0.00000  Uiso   1.00
C378   C     0.78123   0.07042   0.16618   0.00000  Uiso   1.00
C379   C     0.78671   0.01371   0.11061   0.00000  Uiso   1.00
C380   C     0.77054   0.95557   0.12075   0.00000  Uiso   1.00
C381   C     0.75022   0.84895   0.11067   0.00000  Uiso   1.00
C382   C     0.75788   0.13684   0.28327   0.00000  Uiso   1.00
C383   C     0.83371   0.15721   0.26359   0.00000  Uiso   1.00
C384   C     0.87925   0.17321   0.30237   0.00000  Uiso   1.00
C385   C     0.94651   0.19058   0.27542   0.00000  Uiso   1.00
C386   C     0.70595   0.18582   0.27655   0.00000  Uiso   1.00
C387   C     0.64406   0.22587   0.32624   0.00000  Uiso   1.00
C388   C     0.60376   0.26732   0.31021   0.00000  Uiso   1.00
C389   C     0.76033   0.06913   0.22963   0.00000  Uiso   1.00
C390   C     0.74415   0.01107   0.23986   0.00000  Uiso   1.00
C391   C     0.74961   0.95428   0.18432   0.00000  Uiso   1.00
H392   H     0.81262   0.14023   0.11706   0.00000  Uiso   1.00
H393   H     0.93796   0.17685   0.12403   0.00000  Uiso   1.00
H394   H     0.70281   0.22950   0.14789   0.00000  Uiso   1.00
H395   H     0.80288   0.01473   0.06152   0.00000  Uiso   1.00
H396   H     0.06770   0.21690   0.15974   0.00000  Uiso   1.00
H397   H     0.57186   0.32789   0.21005   0.00000  Uiso   1.00
H398   H     0.78287   0.87501   0.02792   0.00000  Uiso   1.00
H399   H     0.74161   0.13583   0.33267   0.00000  Uiso   1.00
H400   H     0.86307   0.17221   0.35147   0.00000  Uiso   1.00
H401   H     0.62791   0.22486   0.37533   0.00000  Uiso   1.00
H402   H     0.72798   0.01009   0.28896   0.00000  Uiso   1.00
H403   H     0.00691   0.21314   0.34434   0.00000  Uiso   1.00
H404   H     0.51106   0.32413   0.39466   0.00000  Uiso   1.00
H405   H     0.72208   0.87125   0.21253   0.00000  Uiso   1.00
O406   O     0.11848   0.23905   0.26053   0.00000  Uiso   1.00
O407   O     0.46794   0.38466   0.32653   0.00000  Uiso   1.00
O408   O     0.74479   0.79049   0.08758   0.00000  Uiso   1.00
N409   N     0.03674   0.21101   0.20060   0.00000  Uiso   1.00
N410   N     0.57315   0.31479   0.24764   0.00000  Uiso   1.00
N411   N     0.77042   0.89139   0.07737   0.00000  Uiso   1.00
N412   N     0.00403   0.20898   0.29994   0.00000  Uiso   1.00
N413   N     0.54044   0.31276   0.34698   0.00000  Uiso   1.00
N414   N     0.73771   0.88936   0.17670   0.00000  Uiso   1.00
C415   C     0.63348   0.30174   0.73670   0.00000  Uiso   1.00
C416   C     0.55625   0.29005   0.76815   0.00000  Uiso   1.00
C417   C     0.52728   0.23095   0.74726   0.00000  Uiso   1.00
C418   C     0.45551   0.23034   0.78260   0.00000  Uiso   1.00
C419   C     0.34186   0.20360   0.82315   0.00000  Uiso   1.00
C420   C     0.62452   0.36173   0.71848   0.00000  Uiso   1.00
C421   C     0.65297   0.36290   0.65583   0.00000  Uiso   1.00
C422   C     0.63868   0.42264   0.64936   0.00000  Uiso   1.00
C423   C     0.63106   0.50719   0.61280   0.00000  Uiso   1.00
C424   C     0.66763   0.32474   0.79194   0.00000  Uiso   1.00
C425   C     0.73233   0.29482   0.79105   0.00000  Uiso   1.00
C426   C     0.75435   0.32343   0.84643   0.00000  Uiso   1.00
C427   C     0.81366   0.35055   0.92394   0.00000  Uiso   1.00
C428   C     0.55754   0.40577   0.83661   0.00000  Uiso   1.00
C429   C     0.51500   0.34655   0.82241   0.00000  Uiso   1.00
C430   C     0.44326   0.34603   0.85780   0.00000  Uiso   1.00
C431   C     0.41419   0.28694   0.83697   0.00000  Uiso   1.00
C432   C     0.58328   0.41823   0.77274   0.00000  Uiso   1.00
C433   C     0.56895   0.47798   0.76636   0.00000  Uiso   1.00
C434   C     0.59736   0.47924   0.70372   0.00000  Uiso   1.00
C435   C     0.62638   0.38124   0.84621   0.00000  Uiso   1.00
C436   C     0.64831   0.40991   0.90159   0.00000  Uiso   1.00
C437   C     0.71303   0.38003   0.90079   0.00000  Uiso   1.00
H438   H     0.66559   0.25776   0.69445   0.00000  Uiso   1.00
H439   H     0.55922   0.18724   0.70526   0.00000  Uiso   1.00
H440   H     0.68489   0.31917   0.61384   0.00000  Uiso   1.00
H441   H     0.76423   0.25110   0.74905   0.00000  Uiso   1.00
H442   H     0.42308   0.13397   0.74116   0.00000  Uiso   1.00
H443   H     0.68808   0.41216   0.54840   0.00000  Uiso   1.00
H444   H     0.85541   0.26863   0.83352   0.00000  Uiso   1.00
H445   H     0.52543   0.44976   0.87886   0.00000  Uiso   1.00
H446   H     0.41136   0.38976   0.89979   0.00000  Uiso   1.00
H447   H     0.53703   0.52170   0.80837   0.00000  Uiso   1.00
H448   H     0.61638   0.45363   0.94358   0.00000  Uiso   1.00
H449   H     0.30307   0.29835   0.89904   0.00000  Uiso   1.00
H450   H     0.56808   0.57654   0.70629   0.00000  Uiso   1.00
H451   H     0.73540   0.43301   0.99140   0.00000  Uiso   1.00
O452   O     0.29056   0.17324   0.83053   0.00000  Uiso   1.00
O453   O     0.63825   0.53822   0.57764   0.00000  Uiso   1.00
O454   O     0.85776   0.34990   0.95171   0.00000  Uiso   1.00
N455   N     0.41049   0.18089   0.77545   0.00000  Uiso   1.00
N456   N     0.65825   0.44098   0.59524   0.00000  Uiso   1.00
N457   N     0.81469   0.30679   0.86179   0.00000  Uiso   1.00
N458   N     0.34592   0.26934   0.86041   0.00000  Uiso   1.00
N459   N     0.59367   0.52943   0.68019   0.00000  Uiso   1.00
N460   N     0.75012   0.39524   0.94674   0.00000  Uiso   1.00
C461   C     0.83294   0.59314   0.11763   0.00000  Uiso   1.00
C462   C     0.77621   0.63782   0.18291   0.00000  Uiso   1.00
C463   C     0.70233   0.65269   0.19309   0.00000  Uiso   1.00
C464   C     0.65947   0.69457   0.25641   0.00000  Uiso   1.00
C465   C     0.56681   0.76001   0.34996   0.00000  Uiso   1.00
C466   C     0.89254   0.63554   0.10275   0.00000  Uiso   1.00
C467   C     0.91647   0.64849   0.04554   0.00000  Uiso   1.00
C468   C     0.97156   0.68844   0.04139   0.00000  Uiso   1.00
C469   C     0.05954   0.75030   0.01047   0.00000  Uiso   1.00
C470   C     0.86796   0.53892   0.13191   0.00000  Uiso   1.00
C471   C     0.87125   0.47061   0.09920   0.00000  Uiso   1.00
C472   C     0.90566   0.42921   0.11958   0.00000  Uiso   1.00
C473   C     0.95549   0.34105   0.13393   0.00000  Uiso   1.00
C474   C     0.88822   0.64107   0.21199   0.00000  Uiso   1.00
C475   C     0.80623   0.66386   0.23415   0.00000  Uiso   1.00
C476   C     0.76348   0.70572   0.29748   0.00000  Uiso   1.00
C477   C     0.68954   0.72065   0.30776   0.00000  Uiso   1.00
C478   C     0.92256   0.66158   0.15400   0.00000  Uiso   1.00
C479   C     0.97763   0.70152   0.14993   0.00000  Uiso   1.00
C480   C     0.00163   0.71452   0.09273   0.00000  Uiso   1.00
C481   C     0.89799   0.56495   0.18316   0.00000  Uiso   1.00
C482   C     0.93240   0.52365   0.20359   0.00000  Uiso   1.00
C483   C     0.93574   0.45529   0.17092   0.00000  Uiso   1.00
H484   H     0.80957   0.57287   0.07773   0.00000  Uiso   1.00
H485   H     0.67911   0.63254   0.15341   0.00000  Uiso   1.00
H486   H     0.89324   0.62833   0.00588   0.00000  Uiso   1.00
H487   H     0.84802   0.45048   0.05954   0.00000  Uiso   1.00
H488   H     0.54772   0.71019   0.25991   0.00000  Uiso   1.00
H489   H     0.99922   0.70129   0.94883   0.00000  Uiso   1.00
H490   H     0.90387   0.32627   0.06197   0.00000  Uiso   1.00
H491   H     0.91159   0.66134   0.25189   0.00000  Uiso   1.00
H492   H     0.78673   0.72586   0.33713   0.00000  Uiso   1.00
H493   H     0.00085   0.72165   0.18960   0.00000  Uiso   1.00
H494   H     0.95563   0.54381   0.24325   0.00000  Uiso   1.00
H495   H     0.63506   0.78593   0.40903   0.00000  Uiso   1.00
H496   H     0.08657   0.77704   0.09793   0.00000  Uiso   1.00
H497   H     0.99121   0.40202   0.21108   0.00000  Uiso   1.00
O498   O     0.50741   0.78892   0.38740   0.00000  Uiso   1.00
O499   O     0.09978   0.77724   0.97926   0.00000  Uiso   1.00
O500   O     0.97467   0.28523   0.12770   0.00000  Uiso   1.00
N501   N     0.58541   0.71915   0.28331   0.00000  Uiso   1.00
N502   N     0.00753   0.71084   0.99247   0.00000  Uiso   1.00
N503   N     0.91840   0.36023   0.09824   0.00000  Uiso   1.00
N504   N     0.63241   0.75991   0.36355   0.00000  Uiso   1.00
N505   N     0.05453   0.75160   0.07270   0.00000  Uiso   1.00
N506   N     0.96540   0.40099   0.17847   0.00000  Uiso   1.00
C507   C     0.22978   0.05798   0.55648   0.00000  Uiso   1.00
C508   C     0.26805   0.99425   0.49684   0.00000  Uiso   1.00
C509   C     0.33639   0.98673   0.45104   0.00000  Uiso   1.00
C510   C     0.36183   0.92445   0.40001   0.00000  Uiso   1.00
C511   C     0.42755   0.83353   0.30815   0.00000  Uiso   1.00
C512   C     0.15598   0.07377   0.54951   0.00000  Uiso   1.00
C513   C     0.13009   0.13310   0.54801   0.00000  Uiso   1.00
C514   C     0.06118   0.13776   0.54133   0.00000  Uiso   1.00
C515   C     0.95289   0.17032   0.53129   0.00000  Uiso   1.00
C516   C     0.21298   0.03929   0.61679   0.00000  Uiso   1.00
C517   C     0.23499   0.06965   0.67186   0.00000  Uiso   1.00
C518   C     0.21405   0.04530   0.72183   0.00000  Uiso   1.00
C519   C     0.19426   0.02433   0.81625   0.00000  Uiso   1.00
C520   C     0.15343   0.96075   0.54730   0.00000  Uiso   1.00
C521   C     0.22658   0.94144   0.49186   0.00000  Uiso   1.00
C522   C     0.25193   0.87916   0.44089   0.00000  Uiso   1.00
C523   C     0.32029   0.87154   0.39502   0.00000  Uiso   1.00
C524   C     0.11451   0.02096   0.54453   0.00000  Uiso   1.00
C525   C     0.04563   0.02553   0.53786   0.00000  Uiso   1.00
C526   C     0.01964   0.08486   0.53634   0.00000  Uiso   1.00
C527   C     0.17151   0.98648   0.61180   0.00000  Uiso   1.00
C528   C     0.15053   0.96208   0.66170   0.00000  Uiso   1.00
C529   C     0.17251   0.99239   0.71684   0.00000  Uiso   1.00
H530   H     0.26206   0.09910   0.56036   0.00000  Uiso   1.00
H531   H     0.36846   0.02761   0.45491   0.00000  Uiso   1.00
H532   H     0.16219   0.17396   0.55187   0.00000  Uiso   1.00
H533   H     0.26708   0.11052   0.67570   0.00000  Uiso   1.00
H534   H     0.46813   0.92507   0.33578   0.00000  Uiso   1.00
H535   H     0.03318   0.23367   0.54026   0.00000  Uiso   1.00
H536   H     0.25436   0.09989   0.80138   0.00000  Uiso   1.00
H537   H     0.12115   0.91964   0.54342   0.00000  Uiso   1.00
H538   H     0.21983   0.83830   0.43704   0.00000  Uiso   1.00
H539   H     0.01355   0.98466   0.53401   0.00000  Uiso   1.00
H540   H     0.11844   0.92121   0.65783   0.00000  Uiso   1.00
H541   H     0.34749   0.77142   0.32128   0.00000  Uiso   1.00
H542   H     0.91254   0.08003   0.52576   0.00000  Uiso   1.00
H543   H     0.13373   0.94624   0.78687   0.00000  Uiso   1.00
O544   O     0.47525   0.79798   0.25885   0.00000  Uiso   1.00
O545   O     0.90462   0.20286   0.52712   0.00000  Uiso   1.00
O546   O     0.19481   0.02734   0.86970   0.00000  Uiso   1.00
N547   N     0.42620   0.90007   0.34698   0.00000  Uiso   1.00
N548   N     0.01956   0.18859   0.53814   0.00000  Uiso   1.00
N549   N     0.22633   0.06353   0.78227   0.00000  Uiso   1.00
N550   N     0.36129   0.81739   0.33918   0.00000  Uiso   1.00
N551   N     0.95464   0.10591   0.53034   0.00000  Uiso   1.00
N552   N     0.16141   0.98085   0.77447   0.00000  Uiso   1.00
