data_job_00242
_audit_creation_date              2018-12-19
_audit_creation_method            'Materials Studio'
_symmetry_space_group_name_H-M    'P1'
_symmetry_Int_Tables_number       1
_symmetry_cell_setting            triclinic
loop_
_symmetry_equiv_pos_as_xyz
  x,y,z
_cell_length_a                    14.4666
_cell_length_b                    17.5442
_cell_length_c                    12.3606
_cell_angle_alpha                 90.0000
_cell_angle_beta                  125.3000
_cell_angle_gamma                 90.0000
loop_
_atom_site_label
_atom_site_type_symbol
_atom_site_fract_x
_atom_site_fract_y
_atom_site_fract_z
_atom_site_U_iso_or_equiv
_atom_site_adp_type
_atom_site_occupancy
C1     C     0.20651   0.68818   0.42845   0.00000  Uiso   1.00
C2     C     0.15598   0.65891   0.28861   0.00000  Uiso   1.00
C3     C     0.07280   0.69510   0.17190   0.00000  Uiso   1.00
C4     C     0.03787   0.65905   0.05401   0.00000  Uiso   1.00
C5     C     0.95226   0.62418   0.83703   0.00000  Uiso   1.00
C6     C     0.18834   0.62503   0.49913   0.00000  Uiso   1.00
C7     C     0.13239   0.63273   0.55943   0.00000  Uiso   1.00
C8     C     0.12472   0.56815   0.61877   0.00000  Uiso   1.00
C9     C     0.08944   0.48070   0.72870   0.00000  Uiso   1.00
C10    C     0.33406   0.69264   0.49637   0.00000  Uiso   1.00
C11    C     0.40064   0.75719   0.55439   0.00000  Uiso   1.00
C12    C     0.51566   0.74954   0.61144   0.00000  Uiso   1.00
C13    C     0.70662   0.76707   0.71709   0.00000  Uiso   1.00
C14    C     0.29239   0.55982   0.42664   0.00000  Uiso   1.00
C15    C     0.20262   0.58919   0.28763   0.00000  Uiso   1.00
C16    C     0.16781   0.55308   0.16989   0.00000  Uiso   1.00
C17    C     0.08460   0.58920   0.05302   0.00000  Uiso   1.00
C18    C     0.23498   0.55531   0.49815   0.00000  Uiso   1.00
C19    C     0.22740   0.49071   0.55742   0.00000  Uiso   1.00
C20    C     0.17145   0.49831   0.61778   0.00000  Uiso   1.00
C21    C     0.38071   0.62292   0.49539   0.00000  Uiso   1.00
C22    C     0.49565   0.61517   0.55237   0.00000  Uiso   1.00
C23    C     0.56238   0.67970   0.61045   0.00000  Uiso   1.00
H24    H     0.17019   0.74246   0.42922   0.00000  Uiso   1.00
H25    H     0.03671   0.74905   0.17270   0.00000  Uiso   1.00
H26    H     0.09631   0.68669   0.56018   0.00000  Uiso   1.00
H27    H     0.36451   0.81113   0.55513   0.00000  Uiso   1.00
H28    H     0.90927   0.72559   0.88787   0.00000  Uiso   1.00
H29    H     0.03496   0.59411   0.70493   0.00000  Uiso   1.00
H30    H     0.60051   0.85653   0.69429   0.00000  Uiso   1.00
H31    H     0.32871   0.50554   0.42588   0.00000  Uiso   1.00
H32    H     0.20393   0.49912   0.16916   0.00000  Uiso   1.00
H33    H     0.26352   0.43677   0.55664   0.00000  Uiso   1.00
H34    H     0.53171   0.56121   0.55159   0.00000  Uiso   1.00
H35    H     0.04498   0.52274   0.88499   0.00000  Uiso   1.00
H36    H     0.17067   0.39126   0.70206   0.00000  Uiso   1.00
H37    H     0.73622   0.65368   0.69141   0.00000  Uiso   1.00
O38    O     0.89215   0.62421   0.71762   0.00000  Uiso   1.00
O39    O     0.05707   0.45172   0.78959   0.00000  Uiso   1.00
O40    O     0.79906   0.79600   0.77562   0.00000  Uiso   1.00
N41    N     0.95835   0.67874   0.92242   0.00000  Uiso   1.00
N42    N     0.07585   0.55581   0.68630   0.00000  Uiso   1.00
N43    N     0.60460   0.80114   0.67639   0.00000  Uiso   1.00
N44    N     0.03137   0.56959   0.92088   0.00000  Uiso   1.00
N45    N     0.14887   0.44666   0.68476   0.00000  Uiso   1.00
N46    N     0.67762   0.69199   0.67484   0.00000  Uiso   1.00
C47    C     0.79349   0.18818   0.07155   0.00000  Uiso   1.00
C48    C     0.84402   0.15891   0.21139   0.00000  Uiso   1.00
C49    C     0.92720   0.19510   0.32810   0.00000  Uiso   1.00
C50    C     0.96213   0.15905   0.44599   0.00000  Uiso   1.00
C51    C     0.04774   0.12418   0.66297   0.00000  Uiso   1.00
C52    C     0.81166   0.12503   0.00087   0.00000  Uiso   1.00
C53    C     0.86761   0.13273   0.94057   0.00000  Uiso   1.00
C54    C     0.87528   0.06815   0.88123   0.00000  Uiso   1.00
C55    C     0.91056   0.98070   0.77130   0.00000  Uiso   1.00
C56    C     0.66594   0.19264   0.00363   0.00000  Uiso   1.00
C57    C     0.59936   0.25719   0.94561   0.00000  Uiso   1.00
C58    C     0.48434   0.24954   0.88856   0.00000  Uiso   1.00
C59    C     0.29338   0.26707   0.78291   0.00000  Uiso   1.00
C60    C     0.70761   0.05982   0.07336   0.00000  Uiso   1.00
C61    C     0.79738   0.08919   0.21237   0.00000  Uiso   1.00
C62    C     0.83219   0.05308   0.33011   0.00000  Uiso   1.00
C63    C     0.91540   0.08920   0.44698   0.00000  Uiso   1.00
C64    C     0.76502   0.05531   0.00185   0.00000  Uiso   1.00
C65    C     0.77260   0.99071   0.94258   0.00000  Uiso   1.00
C66    C     0.82855   0.99831   0.88222   0.00000  Uiso   1.00
C67    C     0.61929   0.12292   0.00461   0.00000  Uiso   1.00
C68    C     0.50435   0.11517   0.94763   0.00000  Uiso   1.00
C69    C     0.43762   0.17970   0.88955   0.00000  Uiso   1.00
H70    H     0.82981   0.24246   0.07078   0.00000  Uiso   1.00
H71    H     0.96329   0.24905   0.32730   0.00000  Uiso   1.00
H72    H     0.90369   0.18669   0.93982   0.00000  Uiso   1.00
H73    H     0.63549   0.31113   0.94487   0.00000  Uiso   1.00
H74    H     0.09073   0.22559   0.61213   0.00000  Uiso   1.00
H75    H     0.96504   0.09411   0.79507   0.00000  Uiso   1.00
H76    H     0.39949   0.35653   0.80571   0.00000  Uiso   1.00
H77    H     0.67129   0.00554   0.07412   0.00000  Uiso   1.00
H78    H     0.79607   0.99912   0.33084   0.00000  Uiso   1.00
H79    H     0.73648   0.93677   0.94336   0.00000  Uiso   1.00
H80    H     0.46829   0.06121   0.94841   0.00000  Uiso   1.00
H81    H     0.95502   0.02274   0.61501   0.00000  Uiso   1.00
H82    H     0.82933   0.89126   0.79794   0.00000  Uiso   1.00
H83    H     0.26378   0.15368   0.80859   0.00000  Uiso   1.00
O84    O     0.10785   0.12421   0.78238   0.00000  Uiso   1.00
O85    O     0.94293   0.95172   0.71041   0.00000  Uiso   1.00
O86    O     0.20094   0.29600   0.72438   0.00000  Uiso   1.00
N87    N     0.04165   0.17874   0.57758   0.00000  Uiso   1.00
N88    N     0.92415   0.05581   0.81370   0.00000  Uiso   1.00
N89    N     0.39540   0.30114   0.82361   0.00000  Uiso   1.00
N90    N     0.96863   0.06959   0.57912   0.00000  Uiso   1.00
N91    N     0.85113   0.94666   0.81524   0.00000  Uiso   1.00
N92    N     0.32238   0.19199   0.82516   0.00000  Uiso   1.00
C93    C     0.79349   0.31182   0.57155   0.00000  Uiso   1.00
C94    C     0.84402   0.34109   0.71139   0.00000  Uiso   1.00
C95    C     0.92720   0.30490   0.82810   0.00000  Uiso   1.00
C96    C     0.96213   0.34095   0.94599   0.00000  Uiso   1.00
C97    C     0.04774   0.37582   0.16297   0.00000  Uiso   1.00
C98    C     0.81166   0.37497   0.50087   0.00000  Uiso   1.00
C99    C     0.86761   0.36727   0.44057   0.00000  Uiso   1.00
C100   C     0.87528   0.43185   0.38123   0.00000  Uiso   1.00
C101   C     0.91056   0.51930   0.27130   0.00000  Uiso   1.00
C102   C     0.66594   0.30736   0.50363   0.00000  Uiso   1.00
C103   C     0.59936   0.24281   0.44561   0.00000  Uiso   1.00
C104   C     0.48434   0.25046   0.38856   0.00000  Uiso   1.00
C105   C     0.29338   0.23293   0.28291   0.00000  Uiso   1.00
C106   C     0.70761   0.44018   0.57336   0.00000  Uiso   1.00
C107   C     0.79738   0.41081   0.71237   0.00000  Uiso   1.00
C108   C     0.83219   0.44692   0.83011   0.00000  Uiso   1.00
C109   C     0.91540   0.41080   0.94698   0.00000  Uiso   1.00
C110   C     0.76502   0.44469   0.50185   0.00000  Uiso   1.00
C111   C     0.77260   0.50929   0.44258   0.00000  Uiso   1.00
C112   C     0.82855   0.50169   0.38222   0.00000  Uiso   1.00
C113   C     0.61929   0.37708   0.50461   0.00000  Uiso   1.00
C114   C     0.50435   0.38483   0.44763   0.00000  Uiso   1.00
C115   C     0.43762   0.32030   0.38955   0.00000  Uiso   1.00
H116   H     0.82981   0.25754   0.57078   0.00000  Uiso   1.00
H117   H     0.96329   0.25095   0.82730   0.00000  Uiso   1.00
H118   H     0.90369   0.31331   0.43982   0.00000  Uiso   1.00
H119   H     0.63549   0.18887   0.44487   0.00000  Uiso   1.00
H120   H     0.09073   0.27441   0.11213   0.00000  Uiso   1.00
H121   H     0.96504   0.40589   0.29507   0.00000  Uiso   1.00
H122   H     0.39949   0.14347   0.30571   0.00000  Uiso   1.00
H123   H     0.67129   0.49446   0.57412   0.00000  Uiso   1.00
H124   H     0.79607   0.50088   0.83084   0.00000  Uiso   1.00
H125   H     0.73648   0.56323   0.44336   0.00000  Uiso   1.00
H126   H     0.46829   0.43879   0.44841   0.00000  Uiso   1.00
H127   H     0.95502   0.47726   0.11501   0.00000  Uiso   1.00
H128   H     0.82933   0.60874   0.29794   0.00000  Uiso   1.00
H129   H     0.26378   0.34632   0.30859   0.00000  Uiso   1.00
O130   O     0.10785   0.37579   0.28238   0.00000  Uiso   1.00
O131   O     0.94293   0.54828   0.21041   0.00000  Uiso   1.00
O132   O     0.20094   0.20400   0.22438   0.00000  Uiso   1.00
N133   N     0.04165   0.32126   0.07758   0.00000  Uiso   1.00
N134   N     0.92415   0.44419   0.31370   0.00000  Uiso   1.00
N135   N     0.39540   0.19886   0.32361   0.00000  Uiso   1.00
N136   N     0.96863   0.43041   0.07912   0.00000  Uiso   1.00
N137   N     0.85113   0.55334   0.31524   0.00000  Uiso   1.00
N138   N     0.32238   0.30801   0.32516   0.00000  Uiso   1.00
C139   C     0.20651   0.81182   0.92845   0.00000  Uiso   1.00
C140   C     0.15598   0.84109   0.78861   0.00000  Uiso   1.00
C141   C     0.07280   0.80490   0.67190   0.00000  Uiso   1.00
C142   C     0.03787   0.84095   0.55401   0.00000  Uiso   1.00
C143   C     0.95226   0.87582   0.33703   0.00000  Uiso   1.00
C144   C     0.18834   0.87497   0.99913   0.00000  Uiso   1.00
C145   C     0.13239   0.86727   0.05943   0.00000  Uiso   1.00
C146   C     0.12472   0.93185   0.11877   0.00000  Uiso   1.00
C147   C     0.08944   0.01930   0.22870   0.00000  Uiso   1.00
C148   C     0.33406   0.80736   0.99637   0.00000  Uiso   1.00
C149   C     0.40064   0.74281   0.05439   0.00000  Uiso   1.00
C150   C     0.51566   0.75046   0.11144   0.00000  Uiso   1.00
C151   C     0.70662   0.73293   0.21709   0.00000  Uiso   1.00
C152   C     0.29239   0.94018   0.92664   0.00000  Uiso   1.00
C153   C     0.20262   0.91081   0.78763   0.00000  Uiso   1.00
C154   C     0.16781   0.94692   0.66989   0.00000  Uiso   1.00
C155   C     0.08460   0.91080   0.55302   0.00000  Uiso   1.00
C156   C     0.23498   0.94469   0.99815   0.00000  Uiso   1.00
C157   C     0.22740   0.00929   0.05742   0.00000  Uiso   1.00
C158   C     0.17145   0.00169   0.11778   0.00000  Uiso   1.00
C159   C     0.38071   0.87708   0.99539   0.00000  Uiso   1.00
C160   C     0.49565   0.88483   0.05237   0.00000  Uiso   1.00
C161   C     0.56238   0.82030   0.11045   0.00000  Uiso   1.00
H162   H     0.17019   0.75754   0.92922   0.00000  Uiso   1.00
H163   H     0.03671   0.75095   0.67270   0.00000  Uiso   1.00
H164   H     0.09631   0.81331   0.06018   0.00000  Uiso   1.00
H165   H     0.36451   0.68887   0.05513   0.00000  Uiso   1.00
H166   H     0.90927   0.77441   0.38787   0.00000  Uiso   1.00
H167   H     0.03496   0.90589   0.20493   0.00000  Uiso   1.00
H168   H     0.60051   0.64347   0.19429   0.00000  Uiso   1.00
H169   H     0.32871   0.99446   0.92588   0.00000  Uiso   1.00
H170   H     0.20393   0.00088   0.66916   0.00000  Uiso   1.00
H171   H     0.26352   0.06323   0.05664   0.00000  Uiso   1.00
H172   H     0.53171   0.93879   0.05159   0.00000  Uiso   1.00
H173   H     0.04498   0.97726   0.38499   0.00000  Uiso   1.00
H174   H     0.17067   0.10874   0.20206   0.00000  Uiso   1.00
H175   H     0.73622   0.84632   0.19141   0.00000  Uiso   1.00
O176   O     0.89215   0.87579   0.21762   0.00000  Uiso   1.00
O177   O     0.05707   0.04828   0.28959   0.00000  Uiso   1.00
O178   O     0.79906   0.70400   0.27562   0.00000  Uiso   1.00
N179   N     0.95835   0.82126   0.42242   0.00000  Uiso   1.00
N180   N     0.07585   0.94419   0.18630   0.00000  Uiso   1.00
N181   N     0.60460   0.69886   0.17639   0.00000  Uiso   1.00
N182   N     0.03137   0.93041   0.42088   0.00000  Uiso   1.00
N183   N     0.14887   0.05334   0.18476   0.00000  Uiso   1.00
N184   N     0.67762   0.80801   0.17484   0.00000  Uiso   1.00
