data_job_02589
_audit_creation_date              2018-12-19
_audit_creation_method            'Materials Studio'
_symmetry_space_group_name_H-M    'P1'
_symmetry_Int_Tables_number       1
_symmetry_cell_setting            triclinic
loop_
_symmetry_equiv_pos_as_xyz
  x,y,z
_cell_length_a                    17.4368
_cell_length_b                    17.4368
_cell_length_c                    15.4169
_cell_angle_alpha                 90.0000
_cell_angle_beta                  90.0000
_cell_angle_gamma                 90.0000
loop_
_atom_site_label
_atom_site_type_symbol
_atom_site_fract_x
_atom_site_fract_y
_atom_site_fract_z
_atom_site_U_iso_or_equiv
_atom_site_adp_type
_atom_site_occupancy
C1     C     0.08490   0.15359   0.66485   0.00000  Uiso   1.00
C2     C     0.00061   0.16269   0.68914   0.00000  Uiso   1.00
C3     C     0.94020   0.12036   0.65535   0.00000  Uiso   1.00
C4     C     0.86728   0.13740   0.68596   0.00000  Uiso   1.00
C5     C     0.73822   0.14284   0.71420   0.00000  Uiso   1.00
C6     C     0.11159   0.23238   0.63431   0.00000  Uiso   1.00
C7     C     0.14449   0.24863   0.55443   0.00000  Uiso   1.00
C8     C     0.16500   0.32433   0.53889   0.00000  Uiso   1.00
C9     C     0.20829   0.43795   0.48203   0.00000  Uiso   1.00
C10    C     0.12737   0.13804   0.74950   0.00000  Uiso   1.00
C11    C     0.17356   0.07498   0.76646   0.00000  Uiso   1.00
C12    C     0.20737   0.07127   0.84789   0.00000  Uiso   1.00
C13    C     0.27516   0.03840   0.96987   0.00000  Uiso   1.00
C14    C     0.06283   0.25913   0.77929   0.00000  Uiso   1.00
C15    C     0.98863   0.22002   0.75130   0.00000  Uiso   1.00
C16    C     0.91578   0.23713   0.78197   0.00000  Uiso   1.00
C17    C     0.85527   0.19483   0.74823   0.00000  Uiso   1.00
C18    C     0.09960   0.28970   0.69647   0.00000  Uiso   1.00
C19    C     0.12007   0.36540   0.68105   0.00000  Uiso   1.00
C20    C     0.15299   0.38176   0.60116   0.00000  Uiso   1.00
C21    C     0.11538   0.19536   0.81166   0.00000  Uiso   1.00
C22    C     0.14913   0.19175   0.89308   0.00000  Uiso   1.00
C23    C     0.19536   0.12870   0.91016   0.00000  Uiso   1.00
H24    H     0.09423   0.10897   0.61645   0.00000  Uiso   1.00
H25    H     0.94950   0.07601   0.60724   0.00000  Uiso   1.00
H26    H     0.15377   0.20426   0.50635   0.00000  Uiso   1.00
H27    H     0.18282   0.03063   0.71834   0.00000  Uiso   1.00
H28    H     0.78374   0.06476   0.62443   0.00000  Uiso   1.00
H29    H     0.21447   0.33518   0.41169   0.00000  Uiso   1.00
H30    H     0.27575   0.96906   0.85872   0.00000  Uiso   1.00
H31    H     0.05350   0.30377   0.82768   0.00000  Uiso   1.00
H32    H     0.90652   0.28149   0.83007   0.00000  Uiso   1.00
H33    H     0.11079   0.40975   0.72917   0.00000  Uiso   1.00
H34    H     0.13984   0.23612   0.94116   0.00000  Uiso   1.00
H35    H     0.74886   0.23155   0.80528   0.00000  Uiso   1.00
H36    H     0.17960   0.50197   0.59254   0.00000  Uiso   1.00
H37    H     0.24087   0.13584   0.03957   0.00000  Uiso   1.00
O38    O     0.67035   0.13001   0.71259   0.00000  Uiso   1.00
O39    O     0.23547   0.48478   0.43349   0.00000  Uiso   1.00
O40    O     0.31585   0.00443   0.01999   0.00000  Uiso   1.00
N41    N     0.79571   0.10706   0.66668   0.00000  Uiso   1.00
N42    N     0.19840   0.35989   0.46777   0.00000  Uiso   1.00
N43    N     0.25571   0.01760   0.88570   0.00000  Uiso   1.00
N44    N     0.77694   0.19681   0.76399   0.00000  Uiso   1.00
N45    N     0.17963   0.44963   0.56509   0.00000  Uiso   1.00
N46    N     0.23694   0.10735   0.98302   0.00000  Uiso   1.00
C47    C     0.91510   0.84641   0.66485   0.00000  Uiso   1.00
C48    C     0.99939   0.83731   0.68914   0.00000  Uiso   1.00
C49    C     0.05980   0.87964   0.65535   0.00000  Uiso   1.00
C50    C     0.13272   0.86260   0.68596   0.00000  Uiso   1.00
C51    C     0.26178   0.85716   0.71420   0.00000  Uiso   1.00
C52    C     0.88841   0.76762   0.63431   0.00000  Uiso   1.00
C53    C     0.85551   0.75137   0.55443   0.00000  Uiso   1.00
C54    C     0.83500   0.67567   0.53889   0.00000  Uiso   1.00
C55    C     0.79171   0.56205   0.48203   0.00000  Uiso   1.00
C56    C     0.87263   0.86196   0.74950   0.00000  Uiso   1.00
C57    C     0.82644   0.92502   0.76646   0.00000  Uiso   1.00
C58    C     0.79263   0.92873   0.84789   0.00000  Uiso   1.00
C59    C     0.72484   0.96160   0.96987   0.00000  Uiso   1.00
C60    C     0.93717   0.74087   0.77929   0.00000  Uiso   1.00
C61    C     0.01137   0.77998   0.75130   0.00000  Uiso   1.00
C62    C     0.08422   0.76287   0.78197   0.00000  Uiso   1.00
C63    C     0.14473   0.80517   0.74823   0.00000  Uiso   1.00
C64    C     0.90040   0.71030   0.69647   0.00000  Uiso   1.00
C65    C     0.87993   0.63460   0.68105   0.00000  Uiso   1.00
C66    C     0.84701   0.61824   0.60116   0.00000  Uiso   1.00
C67    C     0.88462   0.80464   0.81166   0.00000  Uiso   1.00
C68    C     0.85087   0.80825   0.89308   0.00000  Uiso   1.00
C69    C     0.80464   0.87130   0.91016   0.00000  Uiso   1.00
H70    H     0.90577   0.89103   0.61645   0.00000  Uiso   1.00
H71    H     0.05050   0.92399   0.60724   0.00000  Uiso   1.00
H72    H     0.84623   0.79574   0.50635   0.00000  Uiso   1.00
H73    H     0.81718   0.96937   0.71834   0.00000  Uiso   1.00
H74    H     0.21626   0.93524   0.62443   0.00000  Uiso   1.00
H75    H     0.78553   0.66482   0.41169   0.00000  Uiso   1.00
H76    H     0.72425   0.03094   0.85872   0.00000  Uiso   1.00
H77    H     0.94650   0.69623   0.82768   0.00000  Uiso   1.00
H78    H     0.09348   0.71851   0.83007   0.00000  Uiso   1.00
H79    H     0.88921   0.59025   0.72917   0.00000  Uiso   1.00
H80    H     0.86016   0.76388   0.94116   0.00000  Uiso   1.00
H81    H     0.25114   0.76845   0.80528   0.00000  Uiso   1.00
H82    H     0.82040   0.49803   0.59254   0.00000  Uiso   1.00
H83    H     0.75913   0.86416   0.03957   0.00000  Uiso   1.00
O84    O     0.32965   0.86999   0.71259   0.00000  Uiso   1.00
O85    O     0.76453   0.51522   0.43349   0.00000  Uiso   1.00
O86    O     0.68415   0.99557   0.01999   0.00000  Uiso   1.00
N87    N     0.20429   0.89294   0.66668   0.00000  Uiso   1.00
N88    N     0.80160   0.64011   0.46777   0.00000  Uiso   1.00
N89    N     0.74429   0.98240   0.88570   0.00000  Uiso   1.00
N90    N     0.22306   0.80319   0.76399   0.00000  Uiso   1.00
N91    N     0.82037   0.55037   0.56509   0.00000  Uiso   1.00
N92    N     0.76306   0.89265   0.98302   0.00000  Uiso   1.00
C93    C     0.34641   0.58490   0.66485   0.00000  Uiso   1.00
C94    C     0.33731   0.50061   0.68914   0.00000  Uiso   1.00
C95    C     0.37964   0.44020   0.65535   0.00000  Uiso   1.00
C96    C     0.36260   0.36728   0.68596   0.00000  Uiso   1.00
C97    C     0.35716   0.23822   0.71420   0.00000  Uiso   1.00
C98    C     0.26762   0.61159   0.63431   0.00000  Uiso   1.00
C99    C     0.25137   0.64449   0.55443   0.00000  Uiso   1.00
C100   C     0.17567   0.66500   0.53889   0.00000  Uiso   1.00
C101   C     0.06205   0.70829   0.48203   0.00000  Uiso   1.00
C102   C     0.36196   0.62737   0.74950   0.00000  Uiso   1.00
C103   C     0.42502   0.67356   0.76646   0.00000  Uiso   1.00
C104   C     0.42873   0.70737   0.84789   0.00000  Uiso   1.00
C105   C     0.46160   0.77516   0.96987   0.00000  Uiso   1.00
C106   C     0.24087   0.56283   0.77929   0.00000  Uiso   1.00
C107   C     0.27998   0.48863   0.75130   0.00000  Uiso   1.00
C108   C     0.26287   0.41578   0.78197   0.00000  Uiso   1.00
C109   C     0.30517   0.35527   0.74823   0.00000  Uiso   1.00
C110   C     0.21030   0.59960   0.69647   0.00000  Uiso   1.00
C111   C     0.13460   0.62007   0.68105   0.00000  Uiso   1.00
C112   C     0.11824   0.65299   0.60116   0.00000  Uiso   1.00
C113   C     0.30464   0.61538   0.81166   0.00000  Uiso   1.00
C114   C     0.30825   0.64913   0.89308   0.00000  Uiso   1.00
C115   C     0.37130   0.69536   0.91016   0.00000  Uiso   1.00
H116   H     0.39103   0.59423   0.61645   0.00000  Uiso   1.00
H117   H     0.42399   0.44950   0.60724   0.00000  Uiso   1.00
H118   H     0.29574   0.65377   0.50635   0.00000  Uiso   1.00
H119   H     0.46937   0.68282   0.71834   0.00000  Uiso   1.00
H120   H     0.43524   0.28374   0.62443   0.00000  Uiso   1.00
H121   H     0.16482   0.71447   0.41169   0.00000  Uiso   1.00
H122   H     0.53094   0.77575   0.85872   0.00000  Uiso   1.00
H123   H     0.19623   0.55350   0.82768   0.00000  Uiso   1.00
H124   H     0.21851   0.40652   0.83007   0.00000  Uiso   1.00
H125   H     0.09025   0.61079   0.72917   0.00000  Uiso   1.00
H126   H     0.26388   0.63984   0.94116   0.00000  Uiso   1.00
H127   H     0.26845   0.24886   0.80528   0.00000  Uiso   1.00
H128   H     0.99803   0.67960   0.59254   0.00000  Uiso   1.00
H129   H     0.36416   0.74087   0.03957   0.00000  Uiso   1.00
O130   O     0.36999   0.17035   0.71259   0.00000  Uiso   1.00
O131   O     0.01522   0.73547   0.43349   0.00000  Uiso   1.00
O132   O     0.49557   0.81585   0.01999   0.00000  Uiso   1.00
N133   N     0.39294   0.29571   0.66668   0.00000  Uiso   1.00
N134   N     0.14011   0.69840   0.46777   0.00000  Uiso   1.00
N135   N     0.48240   0.75571   0.88570   0.00000  Uiso   1.00
N136   N     0.30319   0.27694   0.76399   0.00000  Uiso   1.00
N137   N     0.05037   0.67963   0.56509   0.00000  Uiso   1.00
N138   N     0.39265   0.73694   0.98302   0.00000  Uiso   1.00
C139   C     0.65359   0.41510   0.66485   0.00000  Uiso   1.00
C140   C     0.66269   0.49939   0.68914   0.00000  Uiso   1.00
C141   C     0.62036   0.55980   0.65535   0.00000  Uiso   1.00
C142   C     0.63740   0.63272   0.68596   0.00000  Uiso   1.00
C143   C     0.64284   0.76178   0.71420   0.00000  Uiso   1.00
C144   C     0.73238   0.38841   0.63431   0.00000  Uiso   1.00
C145   C     0.74863   0.35551   0.55443   0.00000  Uiso   1.00
C146   C     0.82433   0.33500   0.53889   0.00000  Uiso   1.00
C147   C     0.93795   0.29171   0.48203   0.00000  Uiso   1.00
C148   C     0.63804   0.37263   0.74950   0.00000  Uiso   1.00
C149   C     0.57498   0.32644   0.76646   0.00000  Uiso   1.00
C150   C     0.57127   0.29263   0.84789   0.00000  Uiso   1.00
C151   C     0.53840   0.22484   0.96987   0.00000  Uiso   1.00
C152   C     0.75913   0.43717   0.77929   0.00000  Uiso   1.00
C153   C     0.72002   0.51137   0.75130   0.00000  Uiso   1.00
C154   C     0.73713   0.58422   0.78197   0.00000  Uiso   1.00
C155   C     0.69483   0.64473   0.74823   0.00000  Uiso   1.00
C156   C     0.78970   0.40040   0.69647   0.00000  Uiso   1.00
C157   C     0.86540   0.37993   0.68105   0.00000  Uiso   1.00
C158   C     0.88176   0.34701   0.60116   0.00000  Uiso   1.00
C159   C     0.69536   0.38462   0.81166   0.00000  Uiso   1.00
C160   C     0.69175   0.35087   0.89308   0.00000  Uiso   1.00
C161   C     0.62870   0.30464   0.91016   0.00000  Uiso   1.00
H162   H     0.60897   0.40577   0.61645   0.00000  Uiso   1.00
H163   H     0.57601   0.55050   0.60724   0.00000  Uiso   1.00
H164   H     0.70426   0.34623   0.50635   0.00000  Uiso   1.00
H165   H     0.53063   0.31718   0.71834   0.00000  Uiso   1.00
H166   H     0.56476   0.71626   0.62443   0.00000  Uiso   1.00
H167   H     0.83518   0.28553   0.41169   0.00000  Uiso   1.00
H168   H     0.46906   0.22425   0.85872   0.00000  Uiso   1.00
H169   H     0.80377   0.44650   0.82768   0.00000  Uiso   1.00
H170   H     0.78149   0.59348   0.83007   0.00000  Uiso   1.00
H171   H     0.90975   0.38921   0.72917   0.00000  Uiso   1.00
H172   H     0.73612   0.36016   0.94116   0.00000  Uiso   1.00
H173   H     0.73155   0.75114   0.80528   0.00000  Uiso   1.00
H174   H     0.00197   0.32040   0.59254   0.00000  Uiso   1.00
H175   H     0.63584   0.25913   0.03957   0.00000  Uiso   1.00
O176   O     0.63001   0.82965   0.71259   0.00000  Uiso   1.00
O177   O     0.98478   0.26453   0.43349   0.00000  Uiso   1.00
O178   O     0.50443   0.18415   0.01999   0.00000  Uiso   1.00
N179   N     0.60706   0.70429   0.66668   0.00000  Uiso   1.00
N180   N     0.85989   0.30160   0.46777   0.00000  Uiso   1.00
N181   N     0.51760   0.24429   0.88570   0.00000  Uiso   1.00
N182   N     0.69681   0.72306   0.76399   0.00000  Uiso   1.00
N183   N     0.94963   0.32037   0.56509   0.00000  Uiso   1.00
N184   N     0.60735   0.26306   0.98302   0.00000  Uiso   1.00
C185   C     0.41510   0.34641   0.33515   0.00000  Uiso   1.00
C186   C     0.49939   0.33731   0.31086   0.00000  Uiso   1.00
C187   C     0.55980   0.37964   0.34465   0.00000  Uiso   1.00
C188   C     0.63272   0.36260   0.31404   0.00000  Uiso   1.00
C189   C     0.76178   0.35716   0.28580   0.00000  Uiso   1.00
C190   C     0.38841   0.26762   0.36569   0.00000  Uiso   1.00
C191   C     0.35551   0.25137   0.44557   0.00000  Uiso   1.00
C192   C     0.33500   0.17567   0.46111   0.00000  Uiso   1.00
C193   C     0.29171   0.06205   0.51797   0.00000  Uiso   1.00
C194   C     0.37263   0.36196   0.25050   0.00000  Uiso   1.00
C195   C     0.32644   0.42502   0.23354   0.00000  Uiso   1.00
C196   C     0.29263   0.42873   0.15211   0.00000  Uiso   1.00
C197   C     0.22484   0.46160   0.03013   0.00000  Uiso   1.00
C198   C     0.43717   0.24087   0.22071   0.00000  Uiso   1.00
C199   C     0.51137   0.27998   0.24870   0.00000  Uiso   1.00
C200   C     0.58422   0.26287   0.21803   0.00000  Uiso   1.00
C201   C     0.64473   0.30517   0.25177   0.00000  Uiso   1.00
C202   C     0.40040   0.21030   0.30353   0.00000  Uiso   1.00
C203   C     0.37993   0.13460   0.31895   0.00000  Uiso   1.00
C204   C     0.34701   0.11824   0.39884   0.00000  Uiso   1.00
C205   C     0.38462   0.30464   0.18834   0.00000  Uiso   1.00
C206   C     0.35087   0.30825   0.10692   0.00000  Uiso   1.00
C207   C     0.30464   0.37130   0.08984   0.00000  Uiso   1.00
H208   H     0.40577   0.39103   0.38355   0.00000  Uiso   1.00
H209   H     0.55050   0.42399   0.39276   0.00000  Uiso   1.00
H210   H     0.34623   0.29574   0.49365   0.00000  Uiso   1.00
H211   H     0.31718   0.46937   0.28166   0.00000  Uiso   1.00
H212   H     0.71626   0.43524   0.37557   0.00000  Uiso   1.00
H213   H     0.28553   0.16482   0.58831   0.00000  Uiso   1.00
H214   H     0.22425   0.53094   0.14128   0.00000  Uiso   1.00
H215   H     0.44650   0.19623   0.17232   0.00000  Uiso   1.00
H216   H     0.59348   0.21851   0.16993   0.00000  Uiso   1.00
H217   H     0.38921   0.09025   0.27083   0.00000  Uiso   1.00
H218   H     0.36016   0.26388   0.05884   0.00000  Uiso   1.00
H219   H     0.75114   0.26845   0.19472   0.00000  Uiso   1.00
H220   H     0.32040   0.99803   0.40746   0.00000  Uiso   1.00
H221   H     0.25913   0.36416   0.96043   0.00000  Uiso   1.00
O222   O     0.82965   0.36999   0.28741   0.00000  Uiso   1.00
O223   O     0.26453   0.01522   0.56651   0.00000  Uiso   1.00
O224   O     0.18415   0.49557   0.98001   0.00000  Uiso   1.00
N225   N     0.70429   0.39294   0.33332   0.00000  Uiso   1.00
N226   N     0.30160   0.14011   0.53223   0.00000  Uiso   1.00
N227   N     0.24429   0.48240   0.11430   0.00000  Uiso   1.00
N228   N     0.72306   0.30319   0.23601   0.00000  Uiso   1.00
N229   N     0.32037   0.05037   0.43491   0.00000  Uiso   1.00
N230   N     0.26306   0.39265   0.01698   0.00000  Uiso   1.00
C231   C     0.58490   0.65359   0.33515   0.00000  Uiso   1.00
C232   C     0.50061   0.66269   0.31086   0.00000  Uiso   1.00
C233   C     0.44020   0.62036   0.34465   0.00000  Uiso   1.00
C234   C     0.36728   0.63740   0.31404   0.00000  Uiso   1.00
C235   C     0.23822   0.64284   0.28580   0.00000  Uiso   1.00
C236   C     0.61159   0.73238   0.36569   0.00000  Uiso   1.00
C237   C     0.64449   0.74863   0.44557   0.00000  Uiso   1.00
C238   C     0.66500   0.82433   0.46111   0.00000  Uiso   1.00
C239   C     0.70829   0.93795   0.51797   0.00000  Uiso   1.00
C240   C     0.62737   0.63804   0.25050   0.00000  Uiso   1.00
C241   C     0.67356   0.57498   0.23354   0.00000  Uiso   1.00
C242   C     0.70737   0.57127   0.15211   0.00000  Uiso   1.00
C243   C     0.77516   0.53840   0.03013   0.00000  Uiso   1.00
C244   C     0.56283   0.75913   0.22071   0.00000  Uiso   1.00
C245   C     0.48863   0.72002   0.24870   0.00000  Uiso   1.00
C246   C     0.41578   0.73713   0.21803   0.00000  Uiso   1.00
C247   C     0.35527   0.69483   0.25177   0.00000  Uiso   1.00
C248   C     0.59960   0.78970   0.30353   0.00000  Uiso   1.00
C249   C     0.62007   0.86540   0.31895   0.00000  Uiso   1.00
C250   C     0.65299   0.88176   0.39884   0.00000  Uiso   1.00
C251   C     0.61538   0.69536   0.18834   0.00000  Uiso   1.00
C252   C     0.64913   0.69175   0.10692   0.00000  Uiso   1.00
C253   C     0.69536   0.62870   0.08984   0.00000  Uiso   1.00
H254   H     0.59423   0.60897   0.38355   0.00000  Uiso   1.00
H255   H     0.44950   0.57601   0.39276   0.00000  Uiso   1.00
H256   H     0.65377   0.70426   0.49365   0.00000  Uiso   1.00
H257   H     0.68282   0.53063   0.28166   0.00000  Uiso   1.00
H258   H     0.28374   0.56476   0.37557   0.00000  Uiso   1.00
H259   H     0.71447   0.83518   0.58831   0.00000  Uiso   1.00
H260   H     0.77575   0.46906   0.14128   0.00000  Uiso   1.00
H261   H     0.55350   0.80377   0.17232   0.00000  Uiso   1.00
H262   H     0.40652   0.78149   0.16993   0.00000  Uiso   1.00
H263   H     0.61079   0.90975   0.27083   0.00000  Uiso   1.00
H264   H     0.63984   0.73612   0.05884   0.00000  Uiso   1.00
H265   H     0.24886   0.73155   0.19472   0.00000  Uiso   1.00
H266   H     0.67960   0.00197   0.40746   0.00000  Uiso   1.00
H267   H     0.74087   0.63584   0.96043   0.00000  Uiso   1.00
O268   O     0.17035   0.63001   0.28741   0.00000  Uiso   1.00
O269   O     0.73547   0.98478   0.56651   0.00000  Uiso   1.00
O270   O     0.81585   0.50443   0.98001   0.00000  Uiso   1.00
N271   N     0.29571   0.60706   0.33332   0.00000  Uiso   1.00
N272   N     0.69840   0.85989   0.53223   0.00000  Uiso   1.00
N273   N     0.75571   0.51760   0.11430   0.00000  Uiso   1.00
N274   N     0.27694   0.69681   0.23601   0.00000  Uiso   1.00
N275   N     0.67963   0.94963   0.43491   0.00000  Uiso   1.00
N276   N     0.73694   0.60735   0.01698   0.00000  Uiso   1.00
C277   C     0.15359   0.91510   0.33515   0.00000  Uiso   1.00
C278   C     0.16269   0.99939   0.31086   0.00000  Uiso   1.00
C279   C     0.12036   0.05980   0.34465   0.00000  Uiso   1.00
C280   C     0.13740   0.13272   0.31404   0.00000  Uiso   1.00
C281   C     0.14284   0.26178   0.28580   0.00000  Uiso   1.00
C282   C     0.23238   0.88841   0.36569   0.00000  Uiso   1.00
C283   C     0.24863   0.85551   0.44557   0.00000  Uiso   1.00
C284   C     0.32433   0.83500   0.46111   0.00000  Uiso   1.00
C285   C     0.43795   0.79171   0.51797   0.00000  Uiso   1.00
C286   C     0.13804   0.87263   0.25050   0.00000  Uiso   1.00
C287   C     0.07498   0.82644   0.23354   0.00000  Uiso   1.00
C288   C     0.07127   0.79263   0.15211   0.00000  Uiso   1.00
C289   C     0.03840   0.72484   0.03013   0.00000  Uiso   1.00
C290   C     0.25913   0.93717   0.22071   0.00000  Uiso   1.00
C291   C     0.22002   0.01137   0.24870   0.00000  Uiso   1.00
C292   C     0.23713   0.08422   0.21803   0.00000  Uiso   1.00
C293   C     0.19483   0.14473   0.25177   0.00000  Uiso   1.00
C294   C     0.28970   0.90040   0.30353   0.00000  Uiso   1.00
C295   C     0.36540   0.87993   0.31895   0.00000  Uiso   1.00
C296   C     0.38176   0.84701   0.39884   0.00000  Uiso   1.00
C297   C     0.19536   0.88462   0.18834   0.00000  Uiso   1.00
C298   C     0.19175   0.85087   0.10692   0.00000  Uiso   1.00
C299   C     0.12870   0.80464   0.08984   0.00000  Uiso   1.00
H300   H     0.10897   0.90577   0.38355   0.00000  Uiso   1.00
H301   H     0.07601   0.05050   0.39276   0.00000  Uiso   1.00
H302   H     0.20426   0.84623   0.49365   0.00000  Uiso   1.00
H303   H     0.03063   0.81718   0.28166   0.00000  Uiso   1.00
H304   H     0.06476   0.21626   0.37557   0.00000  Uiso   1.00
H305   H     0.33518   0.78553   0.58831   0.00000  Uiso   1.00
H306   H     0.96906   0.72425   0.14128   0.00000  Uiso   1.00
H307   H     0.30377   0.94650   0.17232   0.00000  Uiso   1.00
H308   H     0.28149   0.09348   0.16993   0.00000  Uiso   1.00
H309   H     0.40975   0.88921   0.27083   0.00000  Uiso   1.00
H310   H     0.23612   0.86016   0.05884   0.00000  Uiso   1.00
H311   H     0.23155   0.25114   0.19472   0.00000  Uiso   1.00
H312   H     0.50197   0.82040   0.40746   0.00000  Uiso   1.00
H313   H     0.13584   0.75913   0.96043   0.00000  Uiso   1.00
O314   O     0.13001   0.32965   0.28741   0.00000  Uiso   1.00
O315   O     0.48478   0.76453   0.56651   0.00000  Uiso   1.00
O316   O     0.00443   0.68415   0.98001   0.00000  Uiso   1.00
N317   N     0.10706   0.20429   0.33332   0.00000  Uiso   1.00
N318   N     0.35989   0.80160   0.53223   0.00000  Uiso   1.00
N319   N     0.01760   0.74429   0.11430   0.00000  Uiso   1.00
N320   N     0.19681   0.22306   0.23601   0.00000  Uiso   1.00
N321   N     0.44963   0.82037   0.43491   0.00000  Uiso   1.00
N322   N     0.10735   0.76306   0.01698   0.00000  Uiso   1.00
C323   C     0.84641   0.08490   0.33515   0.00000  Uiso   1.00
C324   C     0.83731   0.00061   0.31086   0.00000  Uiso   1.00
C325   C     0.87964   0.94020   0.34465   0.00000  Uiso   1.00
C326   C     0.86260   0.86728   0.31404   0.00000  Uiso   1.00
C327   C     0.85716   0.73822   0.28580   0.00000  Uiso   1.00
C328   C     0.76762   0.11159   0.36569   0.00000  Uiso   1.00
C329   C     0.75137   0.14449   0.44557   0.00000  Uiso   1.00
C330   C     0.67567   0.16500   0.46111   0.00000  Uiso   1.00
C331   C     0.56205   0.20829   0.51797   0.00000  Uiso   1.00
C332   C     0.86196   0.12737   0.25050   0.00000  Uiso   1.00
C333   C     0.92502   0.17356   0.23354   0.00000  Uiso   1.00
C334   C     0.92873   0.20737   0.15211   0.00000  Uiso   1.00
C335   C     0.96160   0.27516   0.03013   0.00000  Uiso   1.00
C336   C     0.74087   0.06283   0.22071   0.00000  Uiso   1.00
C337   C     0.77998   0.98863   0.24870   0.00000  Uiso   1.00
C338   C     0.76287   0.91578   0.21803   0.00000  Uiso   1.00
C339   C     0.80517   0.85527   0.25177   0.00000  Uiso   1.00
C340   C     0.71030   0.09960   0.30353   0.00000  Uiso   1.00
C341   C     0.63460   0.12007   0.31895   0.00000  Uiso   1.00
C342   C     0.61824   0.15299   0.39884   0.00000  Uiso   1.00
C343   C     0.80464   0.11538   0.18834   0.00000  Uiso   1.00
C344   C     0.80825   0.14913   0.10692   0.00000  Uiso   1.00
C345   C     0.87130   0.19536   0.08984   0.00000  Uiso   1.00
H346   H     0.89103   0.09423   0.38355   0.00000  Uiso   1.00
H347   H     0.92399   0.94950   0.39276   0.00000  Uiso   1.00
H348   H     0.79574   0.15377   0.49365   0.00000  Uiso   1.00
H349   H     0.96937   0.18282   0.28166   0.00000  Uiso   1.00
H350   H     0.93524   0.78374   0.37557   0.00000  Uiso   1.00
H351   H     0.66482   0.21447   0.58831   0.00000  Uiso   1.00
H352   H     0.03094   0.27575   0.14128   0.00000  Uiso   1.00
H353   H     0.69623   0.05350   0.17232   0.00000  Uiso   1.00
H354   H     0.71851   0.90652   0.16993   0.00000  Uiso   1.00
H355   H     0.59025   0.11079   0.27083   0.00000  Uiso   1.00
H356   H     0.76388   0.13984   0.05884   0.00000  Uiso   1.00
H357   H     0.76845   0.74886   0.19472   0.00000  Uiso   1.00
H358   H     0.49803   0.17960   0.40746   0.00000  Uiso   1.00
H359   H     0.86416   0.24087   0.96043   0.00000  Uiso   1.00
O360   O     0.86999   0.67035   0.28741   0.00000  Uiso   1.00
O361   O     0.51522   0.23547   0.56651   0.00000  Uiso   1.00
O362   O     0.99557   0.31585   0.98001   0.00000  Uiso   1.00
N363   N     0.89294   0.79571   0.33332   0.00000  Uiso   1.00
N364   N     0.64011   0.19840   0.53223   0.00000  Uiso   1.00
N365   N     0.98240   0.25571   0.11430   0.00000  Uiso   1.00
N366   N     0.80319   0.77694   0.23601   0.00000  Uiso   1.00
N367   N     0.55037   0.17963   0.43491   0.00000  Uiso   1.00
N368   N     0.89265   0.23694   0.01698   0.00000  Uiso   1.00
