data_job_03977
_audit_creation_date              2018-12-19
_audit_creation_method            'Materials Studio'
_symmetry_space_group_name_H-M    'P1'
_symmetry_Int_Tables_number       1
_symmetry_cell_setting            triclinic
loop_
_symmetry_equiv_pos_as_xyz
  x,y,z
_cell_length_a                    22.4045
_cell_length_b                    22.4045
_cell_length_c                    12.4629
_cell_angle_alpha                 90.0000
_cell_angle_beta                  90.0000
_cell_angle_gamma                 90.0000
loop_
_atom_site_label
_atom_site_type_symbol
_atom_site_fract_x
_atom_site_fract_y
_atom_site_fract_z
_atom_site_U_iso_or_equiv
_atom_site_adp_type
_atom_site_occupancy
C1     C     0.63322   0.91935   0.12270   0.00000  Uiso   1.00
C2     C     0.65361   0.94762   0.22780   0.00000  Uiso   1.00
C3     C     0.62088   0.98753   0.28935   0.00000  Uiso   1.00
C4     C     0.64740   0.00831   0.38285   0.00000  Uiso   1.00
C5     C     0.67038   0.05503   0.54134   0.00000  Uiso   1.00
C6     C     0.68080   0.93505   0.03989   0.00000  Uiso   1.00
C7     C     0.67093   0.96438   0.94343   0.00000  Uiso   1.00
C8     C     0.72034   0.97457   0.87873   0.00000  Uiso   1.00
C9     C     0.78552   0.00173   0.74544   0.00000  Uiso   1.00
C10    C     0.63741   0.85205   0.13920   0.00000  Uiso   1.00
C11    C     0.59106   0.81159   0.12623   0.00000  Uiso   1.00
C12    C     0.60395   0.75189   0.14512   0.00000  Uiso   1.00
C13    C     0.60176   0.65019   0.16604   0.00000  Uiso   1.00
C14    C     0.73853   0.88527   0.17931   0.00000  Uiso   1.00
C15    C     0.71081   0.92910   0.25854   0.00000  Uiso   1.00
C16    C     0.73739   0.94982   0.35198   0.00000  Uiso   1.00
C17    C     0.70470   0.98976   0.41366   0.00000  Uiso   1.00
C18    C     0.73800   0.91653   0.07063   0.00000  Uiso   1.00
C19    C     0.78744   0.92667   0.00606   0.00000  Uiso   1.00
C20    C     0.77764   0.95602   0.90953   0.00000  Uiso   1.00
C21    C     0.69461   0.83353   0.16995   0.00000  Uiso   1.00
C22    C     0.70757   0.77388   0.18886   0.00000  Uiso   1.00
C23    C     0.66125   0.73334   0.17592   0.00000  Uiso   1.00
H24    H     0.58869   0.93377   0.09876   0.00000  Uiso   1.00
H25    H     0.57662   0.00185   0.26552   0.00000  Uiso   1.00
H26    H     0.62666   0.97870   0.91965   0.00000  Uiso   1.00
H27    H     0.54680   0.82594   0.10243   0.00000  Uiso   1.00
H28    H     0.58847   0.06919   0.46395   0.00000  Uiso   1.00
H29    H     0.69398   0.02035   0.73465   0.00000  Uiso   1.00
H30    H     0.52559   0.69822   0.12007   0.00000  Uiso   1.00
H31    H     0.78306   0.87085   0.20324   0.00000  Uiso   1.00
H32    H     0.78165   0.93548   0.37575   0.00000  Uiso   1.00
H33    H     0.83169   0.91233   0.02988   0.00000  Uiso   1.00
H34    H     0.75184   0.75957   0.21265   0.00000  Uiso   1.00
H35    H     0.75488   0.01532   0.55341   0.00000  Uiso   1.00
H36    H     0.86039   0.96649   0.82410   0.00000  Uiso   1.00
H37    H     0.69201   0.64435   0.20953   0.00000  Uiso   1.00
O38    O     0.66725   0.08592   0.62026   0.00000  Uiso   1.00
O39    O     0.80567   0.02184   0.66343   0.00000  Uiso   1.00
O40    O     0.58475   0.59921   0.16910   0.00000  Uiso   1.00
N41    N     0.62782   0.04763   0.46134   0.00000  Uiso   1.00
N42    N     0.72647   0.00198   0.77949   0.00000  Uiso   1.00
N43    N     0.56904   0.70081   0.13980   0.00000  Uiso   1.00
N44    N     0.71737   0.01865   0.50948   0.00000  Uiso   1.00
N45    N     0.81602   0.97300   0.82763   0.00000  Uiso   1.00
N46    N     0.65859   0.67182   0.18794   0.00000  Uiso   1.00
C47    C     0.36678   0.08065   0.12270   0.00000  Uiso   1.00
C48    C     0.34639   0.05238   0.22780   0.00000  Uiso   1.00
C49    C     0.37912   0.01247   0.28935   0.00000  Uiso   1.00
C50    C     0.35260   0.99169   0.38285   0.00000  Uiso   1.00
C51    C     0.32962   0.94497   0.54134   0.00000  Uiso   1.00
C52    C     0.31920   0.06495   0.03989   0.00000  Uiso   1.00
C53    C     0.32907   0.03562   0.94343   0.00000  Uiso   1.00
C54    C     0.27966   0.02543   0.87873   0.00000  Uiso   1.00
C55    C     0.21448   0.99827   0.74544   0.00000  Uiso   1.00
C56    C     0.36259   0.14795   0.13920   0.00000  Uiso   1.00
C57    C     0.40894   0.18841   0.12623   0.00000  Uiso   1.00
C58    C     0.39605   0.24811   0.14512   0.00000  Uiso   1.00
C59    C     0.39824   0.34981   0.16604   0.00000  Uiso   1.00
C60    C     0.26147   0.11473   0.17931   0.00000  Uiso   1.00
C61    C     0.28919   0.07090   0.25854   0.00000  Uiso   1.00
C62    C     0.26261   0.05018   0.35198   0.00000  Uiso   1.00
C63    C     0.29530   0.01024   0.41366   0.00000  Uiso   1.00
C64    C     0.26200   0.08347   0.07063   0.00000  Uiso   1.00
C65    C     0.21256   0.07333   0.00606   0.00000  Uiso   1.00
C66    C     0.22236   0.04398   0.90953   0.00000  Uiso   1.00
C67    C     0.30539   0.16647   0.16995   0.00000  Uiso   1.00
C68    C     0.29243   0.22612   0.18886   0.00000  Uiso   1.00
C69    C     0.33875   0.26666   0.17592   0.00000  Uiso   1.00
H70    H     0.41131   0.06623   0.09876   0.00000  Uiso   1.00
H71    H     0.42338   0.99815   0.26552   0.00000  Uiso   1.00
H72    H     0.37334   0.02130   0.91965   0.00000  Uiso   1.00
H73    H     0.45320   0.17406   0.10243   0.00000  Uiso   1.00
H74    H     0.41153   0.93081   0.46395   0.00000  Uiso   1.00
H75    H     0.30602   0.97965   0.73465   0.00000  Uiso   1.00
H76    H     0.47441   0.30178   0.12007   0.00000  Uiso   1.00
H77    H     0.21694   0.12915   0.20324   0.00000  Uiso   1.00
H78    H     0.21835   0.06452   0.37575   0.00000  Uiso   1.00
H79    H     0.16831   0.08767   0.02988   0.00000  Uiso   1.00
H80    H     0.24816   0.24043   0.21265   0.00000  Uiso   1.00
H81    H     0.24512   0.98468   0.55341   0.00000  Uiso   1.00
H82    H     0.13961   0.03351   0.82410   0.00000  Uiso   1.00
H83    H     0.30799   0.35565   0.20953   0.00000  Uiso   1.00
O84    O     0.33275   0.91408   0.62026   0.00000  Uiso   1.00
O85    O     0.19433   0.97816   0.66343   0.00000  Uiso   1.00
O86    O     0.41525   0.40079   0.16910   0.00000  Uiso   1.00
N87    N     0.37218   0.95237   0.46134   0.00000  Uiso   1.00
N88    N     0.27353   0.99802   0.77949   0.00000  Uiso   1.00
N89    N     0.43096   0.29919   0.13980   0.00000  Uiso   1.00
N90    N     0.28263   0.98135   0.50948   0.00000  Uiso   1.00
N91    N     0.18398   0.02700   0.82763   0.00000  Uiso   1.00
N92    N     0.34141   0.32818   0.18794   0.00000  Uiso   1.00
C93    C     0.58065   0.13322   0.12270   0.00000  Uiso   1.00
C94    C     0.55238   0.15361   0.22780   0.00000  Uiso   1.00
C95    C     0.51247   0.12088   0.28935   0.00000  Uiso   1.00
C96    C     0.49169   0.14740   0.38285   0.00000  Uiso   1.00
C97    C     0.44497   0.17038   0.54134   0.00000  Uiso   1.00
C98    C     0.56495   0.18080   0.03989   0.00000  Uiso   1.00
C99    C     0.53562   0.17093   0.94343   0.00000  Uiso   1.00
C100   C     0.52543   0.22034   0.87873   0.00000  Uiso   1.00
C101   C     0.49827   0.28552   0.74544   0.00000  Uiso   1.00
C102   C     0.64795   0.13741   0.13920   0.00000  Uiso   1.00
C103   C     0.68841   0.09106   0.12623   0.00000  Uiso   1.00
C104   C     0.74811   0.10395   0.14512   0.00000  Uiso   1.00
C105   C     0.84981   0.10176   0.16604   0.00000  Uiso   1.00
C106   C     0.61473   0.23853   0.17931   0.00000  Uiso   1.00
C107   C     0.57090   0.21081   0.25854   0.00000  Uiso   1.00
C108   C     0.55018   0.23739   0.35198   0.00000  Uiso   1.00
C109   C     0.51024   0.20470   0.41366   0.00000  Uiso   1.00
C110   C     0.58347   0.23800   0.07063   0.00000  Uiso   1.00
C111   C     0.57333   0.28744   0.00606   0.00000  Uiso   1.00
C112   C     0.54398   0.27764   0.90953   0.00000  Uiso   1.00
C113   C     0.66647   0.19461   0.16995   0.00000  Uiso   1.00
C114   C     0.72612   0.20757   0.18886   0.00000  Uiso   1.00
C115   C     0.76666   0.16125   0.17592   0.00000  Uiso   1.00
H116   H     0.56623   0.08869   0.09876   0.00000  Uiso   1.00
H117   H     0.49815   0.07662   0.26552   0.00000  Uiso   1.00
H118   H     0.52130   0.12666   0.91965   0.00000  Uiso   1.00
H119   H     0.67406   0.04680   0.10243   0.00000  Uiso   1.00
H120   H     0.43081   0.08847   0.46395   0.00000  Uiso   1.00
H121   H     0.47965   0.19398   0.73465   0.00000  Uiso   1.00
H122   H     0.80178   0.02559   0.12007   0.00000  Uiso   1.00
H123   H     0.62915   0.28306   0.20324   0.00000  Uiso   1.00
H124   H     0.56452   0.28165   0.37575   0.00000  Uiso   1.00
H125   H     0.58767   0.33169   0.02988   0.00000  Uiso   1.00
H126   H     0.74043   0.25184   0.21265   0.00000  Uiso   1.00
H127   H     0.48468   0.25488   0.55341   0.00000  Uiso   1.00
H128   H     0.53351   0.36039   0.82410   0.00000  Uiso   1.00
H129   H     0.85565   0.19201   0.20953   0.00000  Uiso   1.00
O130   O     0.41408   0.16725   0.62026   0.00000  Uiso   1.00
O131   O     0.47816   0.30567   0.66343   0.00000  Uiso   1.00
O132   O     0.90079   0.08475   0.16910   0.00000  Uiso   1.00
N133   N     0.45237   0.12782   0.46134   0.00000  Uiso   1.00
N134   N     0.49802   0.22647   0.77949   0.00000  Uiso   1.00
N135   N     0.79919   0.06904   0.13980   0.00000  Uiso   1.00
N136   N     0.48135   0.21737   0.50948   0.00000  Uiso   1.00
N137   N     0.52700   0.31602   0.82763   0.00000  Uiso   1.00
N138   N     0.82818   0.15859   0.18794   0.00000  Uiso   1.00
C139   C     0.41935   0.86678   0.12270   0.00000  Uiso   1.00
C140   C     0.44762   0.84639   0.22780   0.00000  Uiso   1.00
C141   C     0.48753   0.87912   0.28935   0.00000  Uiso   1.00
C142   C     0.50831   0.85260   0.38285   0.00000  Uiso   1.00
C143   C     0.55503   0.82962   0.54134   0.00000  Uiso   1.00
C144   C     0.43505   0.81920   0.03989   0.00000  Uiso   1.00
C145   C     0.46438   0.82907   0.94343   0.00000  Uiso   1.00
C146   C     0.47457   0.77966   0.87873   0.00000  Uiso   1.00
C147   C     0.50173   0.71448   0.74544   0.00000  Uiso   1.00
C148   C     0.35205   0.86259   0.13920   0.00000  Uiso   1.00
C149   C     0.31159   0.90894   0.12623   0.00000  Uiso   1.00
C150   C     0.25189   0.89605   0.14512   0.00000  Uiso   1.00
C151   C     0.15019   0.89824   0.16604   0.00000  Uiso   1.00
C152   C     0.38527   0.76147   0.17931   0.00000  Uiso   1.00
C153   C     0.42910   0.78919   0.25854   0.00000  Uiso   1.00
C154   C     0.44982   0.76261   0.35198   0.00000  Uiso   1.00
C155   C     0.48976   0.79530   0.41366   0.00000  Uiso   1.00
C156   C     0.41653   0.76200   0.07063   0.00000  Uiso   1.00
C157   C     0.42667   0.71256   0.00606   0.00000  Uiso   1.00
C158   C     0.45602   0.72236   0.90953   0.00000  Uiso   1.00
C159   C     0.33353   0.80539   0.16995   0.00000  Uiso   1.00
C160   C     0.27388   0.79243   0.18886   0.00000  Uiso   1.00
C161   C     0.23334   0.83875   0.17592   0.00000  Uiso   1.00
H162   H     0.43377   0.91131   0.09876   0.00000  Uiso   1.00
H163   H     0.50185   0.92338   0.26552   0.00000  Uiso   1.00
H164   H     0.47870   0.87334   0.91965   0.00000  Uiso   1.00
H165   H     0.32594   0.95320   0.10243   0.00000  Uiso   1.00
H166   H     0.56919   0.91153   0.46395   0.00000  Uiso   1.00
H167   H     0.52035   0.80602   0.73465   0.00000  Uiso   1.00
H168   H     0.19822   0.97441   0.12007   0.00000  Uiso   1.00
H169   H     0.37085   0.71694   0.20324   0.00000  Uiso   1.00
H170   H     0.43548   0.71835   0.37575   0.00000  Uiso   1.00
H171   H     0.41233   0.66831   0.02988   0.00000  Uiso   1.00
H172   H     0.25957   0.74816   0.21265   0.00000  Uiso   1.00
H173   H     0.51532   0.74512   0.55341   0.00000  Uiso   1.00
H174   H     0.46649   0.63961   0.82410   0.00000  Uiso   1.00
H175   H     0.14435   0.80799   0.20953   0.00000  Uiso   1.00
O176   O     0.58592   0.83275   0.62026   0.00000  Uiso   1.00
O177   O     0.52184   0.69433   0.66343   0.00000  Uiso   1.00
O178   O     0.09921   0.91525   0.16910   0.00000  Uiso   1.00
N179   N     0.54763   0.87218   0.46134   0.00000  Uiso   1.00
N180   N     0.50198   0.77353   0.77949   0.00000  Uiso   1.00
N181   N     0.20081   0.93096   0.13980   0.00000  Uiso   1.00
N182   N     0.51865   0.78263   0.50948   0.00000  Uiso   1.00
N183   N     0.47300   0.68398   0.82763   0.00000  Uiso   1.00
N184   N     0.17182   0.84141   0.18794   0.00000  Uiso   1.00
C185   C     0.86678   0.58065   0.87730   0.00000  Uiso   1.00
C186   C     0.84639   0.55238   0.77220   0.00000  Uiso   1.00
C187   C     0.87912   0.51247   0.71065   0.00000  Uiso   1.00
C188   C     0.85260   0.49169   0.61715   0.00000  Uiso   1.00
C189   C     0.82962   0.44497   0.45866   0.00000  Uiso   1.00
C190   C     0.81920   0.56495   0.96011   0.00000  Uiso   1.00
C191   C     0.82907   0.53562   0.05657   0.00000  Uiso   1.00
C192   C     0.77966   0.52543   0.12127   0.00000  Uiso   1.00
C193   C     0.71448   0.49827   0.25456   0.00000  Uiso   1.00
C194   C     0.86259   0.64795   0.86080   0.00000  Uiso   1.00
C195   C     0.90894   0.68841   0.87377   0.00000  Uiso   1.00
C196   C     0.89605   0.74811   0.85488   0.00000  Uiso   1.00
C197   C     0.89824   0.84981   0.83396   0.00000  Uiso   1.00
C198   C     0.76147   0.61473   0.82069   0.00000  Uiso   1.00
C199   C     0.78919   0.57090   0.74146   0.00000  Uiso   1.00
C200   C     0.76261   0.55018   0.64802   0.00000  Uiso   1.00
C201   C     0.79530   0.51024   0.58634   0.00000  Uiso   1.00
C202   C     0.76200   0.58347   0.92937   0.00000  Uiso   1.00
C203   C     0.71256   0.57333   0.99394   0.00000  Uiso   1.00
C204   C     0.72236   0.54398   0.09047   0.00000  Uiso   1.00
C205   C     0.80539   0.66647   0.83005   0.00000  Uiso   1.00
C206   C     0.79243   0.72612   0.81114   0.00000  Uiso   1.00
C207   C     0.83875   0.76666   0.82408   0.00000  Uiso   1.00
H208   H     0.91131   0.56623   0.90124   0.00000  Uiso   1.00
H209   H     0.92338   0.49815   0.73448   0.00000  Uiso   1.00
H210   H     0.87334   0.52130   0.08035   0.00000  Uiso   1.00
H211   H     0.95320   0.67406   0.89757   0.00000  Uiso   1.00
H212   H     0.91153   0.43081   0.53605   0.00000  Uiso   1.00
H213   H     0.80602   0.47965   0.26535   0.00000  Uiso   1.00
H214   H     0.97441   0.80178   0.87993   0.00000  Uiso   1.00
H215   H     0.71694   0.62915   0.79676   0.00000  Uiso   1.00
H216   H     0.71835   0.56452   0.62425   0.00000  Uiso   1.00
H217   H     0.66831   0.58767   0.97012   0.00000  Uiso   1.00
H218   H     0.74816   0.74043   0.78735   0.00000  Uiso   1.00
H219   H     0.74512   0.48468   0.44659   0.00000  Uiso   1.00
H220   H     0.63961   0.53351   0.17590   0.00000  Uiso   1.00
H221   H     0.80799   0.85565   0.79047   0.00000  Uiso   1.00
O222   O     0.83275   0.41408   0.37974   0.00000  Uiso   1.00
O223   O     0.69433   0.47816   0.33657   0.00000  Uiso   1.00
O224   O     0.91525   0.90079   0.83090   0.00000  Uiso   1.00
N225   N     0.87218   0.45237   0.53866   0.00000  Uiso   1.00
N226   N     0.77353   0.49802   0.22051   0.00000  Uiso   1.00
N227   N     0.93096   0.79919   0.86020   0.00000  Uiso   1.00
N228   N     0.78263   0.48135   0.49052   0.00000  Uiso   1.00
N229   N     0.68398   0.52700   0.17237   0.00000  Uiso   1.00
N230   N     0.84141   0.82818   0.81206   0.00000  Uiso   1.00
C231   C     0.13322   0.41935   0.87730   0.00000  Uiso   1.00
C232   C     0.15361   0.44762   0.77220   0.00000  Uiso   1.00
C233   C     0.12088   0.48753   0.71065   0.00000  Uiso   1.00
C234   C     0.14740   0.50831   0.61715   0.00000  Uiso   1.00
C235   C     0.17038   0.55503   0.45866   0.00000  Uiso   1.00
C236   C     0.18080   0.43505   0.96011   0.00000  Uiso   1.00
C237   C     0.17093   0.46438   0.05657   0.00000  Uiso   1.00
C238   C     0.22034   0.47457   0.12127   0.00000  Uiso   1.00
C239   C     0.28552   0.50173   0.25456   0.00000  Uiso   1.00
C240   C     0.13741   0.35205   0.86080   0.00000  Uiso   1.00
C241   C     0.09106   0.31159   0.87377   0.00000  Uiso   1.00
C242   C     0.10395   0.25189   0.85488   0.00000  Uiso   1.00
C243   C     0.10176   0.15019   0.83396   0.00000  Uiso   1.00
C244   C     0.23853   0.38527   0.82069   0.00000  Uiso   1.00
C245   C     0.21081   0.42910   0.74146   0.00000  Uiso   1.00
C246   C     0.23739   0.44982   0.64802   0.00000  Uiso   1.00
C247   C     0.20470   0.48976   0.58634   0.00000  Uiso   1.00
C248   C     0.23800   0.41653   0.92937   0.00000  Uiso   1.00
C249   C     0.28744   0.42667   0.99394   0.00000  Uiso   1.00
C250   C     0.27764   0.45602   0.09047   0.00000  Uiso   1.00
C251   C     0.19461   0.33353   0.83005   0.00000  Uiso   1.00
C252   C     0.20757   0.27388   0.81114   0.00000  Uiso   1.00
C253   C     0.16125   0.23334   0.82408   0.00000  Uiso   1.00
H254   H     0.08869   0.43377   0.90124   0.00000  Uiso   1.00
H255   H     0.07662   0.50185   0.73448   0.00000  Uiso   1.00
H256   H     0.12666   0.47870   0.08035   0.00000  Uiso   1.00
H257   H     0.04680   0.32594   0.89757   0.00000  Uiso   1.00
H258   H     0.08847   0.56919   0.53605   0.00000  Uiso   1.00
H259   H     0.19398   0.52035   0.26535   0.00000  Uiso   1.00
H260   H     0.02559   0.19822   0.87993   0.00000  Uiso   1.00
H261   H     0.28306   0.37085   0.79676   0.00000  Uiso   1.00
H262   H     0.28165   0.43548   0.62425   0.00000  Uiso   1.00
H263   H     0.33169   0.41233   0.97012   0.00000  Uiso   1.00
H264   H     0.25184   0.25957   0.78735   0.00000  Uiso   1.00
H265   H     0.25488   0.51532   0.44659   0.00000  Uiso   1.00
H266   H     0.36039   0.46649   0.17590   0.00000  Uiso   1.00
H267   H     0.19201   0.14435   0.79047   0.00000  Uiso   1.00
O268   O     0.16725   0.58592   0.37974   0.00000  Uiso   1.00
O269   O     0.30567   0.52184   0.33657   0.00000  Uiso   1.00
O270   O     0.08475   0.09921   0.83090   0.00000  Uiso   1.00
N271   N     0.12782   0.54763   0.53866   0.00000  Uiso   1.00
N272   N     0.22647   0.50198   0.22051   0.00000  Uiso   1.00
N273   N     0.06904   0.20081   0.86020   0.00000  Uiso   1.00
N274   N     0.21737   0.51865   0.49052   0.00000  Uiso   1.00
N275   N     0.31602   0.47300   0.17237   0.00000  Uiso   1.00
N276   N     0.15859   0.17182   0.81206   0.00000  Uiso   1.00
C277   C     0.91935   0.36678   0.87730   0.00000  Uiso   1.00
C278   C     0.94762   0.34639   0.77220   0.00000  Uiso   1.00
C279   C     0.98753   0.37912   0.71065   0.00000  Uiso   1.00
C280   C     0.00831   0.35260   0.61715   0.00000  Uiso   1.00
C281   C     0.05503   0.32962   0.45866   0.00000  Uiso   1.00
C282   C     0.93505   0.31920   0.96011   0.00000  Uiso   1.00
C283   C     0.96438   0.32907   0.05657   0.00000  Uiso   1.00
C284   C     0.97457   0.27966   0.12127   0.00000  Uiso   1.00
C285   C     0.00173   0.21448   0.25456   0.00000  Uiso   1.00
C286   C     0.85205   0.36259   0.86080   0.00000  Uiso   1.00
C287   C     0.81159   0.40894   0.87377   0.00000  Uiso   1.00
C288   C     0.75189   0.39605   0.85488   0.00000  Uiso   1.00
C289   C     0.65019   0.39824   0.83396   0.00000  Uiso   1.00
C290   C     0.88527   0.26147   0.82069   0.00000  Uiso   1.00
C291   C     0.92910   0.28919   0.74146   0.00000  Uiso   1.00
C292   C     0.94982   0.26261   0.64802   0.00000  Uiso   1.00
C293   C     0.98976   0.29530   0.58634   0.00000  Uiso   1.00
C294   C     0.91653   0.26200   0.92937   0.00000  Uiso   1.00
C295   C     0.92667   0.21256   0.99394   0.00000  Uiso   1.00
C296   C     0.95602   0.22236   0.09047   0.00000  Uiso   1.00
C297   C     0.83353   0.30539   0.83005   0.00000  Uiso   1.00
C298   C     0.77388   0.29243   0.81114   0.00000  Uiso   1.00
C299   C     0.73334   0.33875   0.82408   0.00000  Uiso   1.00
H300   H     0.93377   0.41131   0.90124   0.00000  Uiso   1.00
H301   H     0.00185   0.42338   0.73448   0.00000  Uiso   1.00
H302   H     0.97870   0.37334   0.08035   0.00000  Uiso   1.00
H303   H     0.82594   0.45320   0.89757   0.00000  Uiso   1.00
H304   H     0.06919   0.41153   0.53605   0.00000  Uiso   1.00
H305   H     0.02035   0.30602   0.26535   0.00000  Uiso   1.00
H306   H     0.69822   0.47441   0.87993   0.00000  Uiso   1.00
H307   H     0.87085   0.21694   0.79676   0.00000  Uiso   1.00
H308   H     0.93548   0.21835   0.62425   0.00000  Uiso   1.00
H309   H     0.91233   0.16831   0.97012   0.00000  Uiso   1.00
H310   H     0.75957   0.24816   0.78735   0.00000  Uiso   1.00
H311   H     0.01532   0.24512   0.44659   0.00000  Uiso   1.00
H312   H     0.96649   0.13961   0.17590   0.00000  Uiso   1.00
H313   H     0.64435   0.30799   0.79047   0.00000  Uiso   1.00
O314   O     0.08592   0.33275   0.37974   0.00000  Uiso   1.00
O315   O     0.02184   0.19433   0.33657   0.00000  Uiso   1.00
O316   O     0.59921   0.41525   0.83090   0.00000  Uiso   1.00
N317   N     0.04763   0.37218   0.53866   0.00000  Uiso   1.00
N318   N     0.00198   0.27353   0.22051   0.00000  Uiso   1.00
N319   N     0.70081   0.43096   0.86020   0.00000  Uiso   1.00
N320   N     0.01865   0.28263   0.49052   0.00000  Uiso   1.00
N321   N     0.97300   0.18398   0.17237   0.00000  Uiso   1.00
N322   N     0.67182   0.34141   0.81206   0.00000  Uiso   1.00
C323   C     0.08065   0.63322   0.87730   0.00000  Uiso   1.00
C324   C     0.05238   0.65361   0.77220   0.00000  Uiso   1.00
C325   C     0.01247   0.62088   0.71065   0.00000  Uiso   1.00
C326   C     0.99169   0.64740   0.61715   0.00000  Uiso   1.00
C327   C     0.94497   0.67038   0.45866   0.00000  Uiso   1.00
C328   C     0.06495   0.68080   0.96011   0.00000  Uiso   1.00
C329   C     0.03562   0.67093   0.05657   0.00000  Uiso   1.00
C330   C     0.02543   0.72034   0.12127   0.00000  Uiso   1.00
C331   C     0.99827   0.78552   0.25456   0.00000  Uiso   1.00
C332   C     0.14795   0.63741   0.86080   0.00000  Uiso   1.00
C333   C     0.18841   0.59106   0.87377   0.00000  Uiso   1.00
C334   C     0.24811   0.60395   0.85488   0.00000  Uiso   1.00
C335   C     0.34981   0.60176   0.83396   0.00000  Uiso   1.00
C336   C     0.11473   0.73853   0.82069   0.00000  Uiso   1.00
C337   C     0.07090   0.71081   0.74146   0.00000  Uiso   1.00
C338   C     0.05018   0.73739   0.64802   0.00000  Uiso   1.00
C339   C     0.01024   0.70470   0.58634   0.00000  Uiso   1.00
C340   C     0.08347   0.73800   0.92937   0.00000  Uiso   1.00
C341   C     0.07333   0.78744   0.99394   0.00000  Uiso   1.00
C342   C     0.04398   0.77764   0.09047   0.00000  Uiso   1.00
C343   C     0.16647   0.69461   0.83005   0.00000  Uiso   1.00
C344   C     0.22612   0.70757   0.81114   0.00000  Uiso   1.00
C345   C     0.26666   0.66125   0.82408   0.00000  Uiso   1.00
H346   H     0.06623   0.58869   0.90124   0.00000  Uiso   1.00
H347   H     0.99815   0.57662   0.73448   0.00000  Uiso   1.00
H348   H     0.02130   0.62666   0.08035   0.00000  Uiso   1.00
H349   H     0.17406   0.54680   0.89757   0.00000  Uiso   1.00
H350   H     0.93081   0.58847   0.53605   0.00000  Uiso   1.00
H351   H     0.97965   0.69398   0.26535   0.00000  Uiso   1.00
H352   H     0.30178   0.52559   0.87993   0.00000  Uiso   1.00
H353   H     0.12915   0.78306   0.79676   0.00000  Uiso   1.00
H354   H     0.06452   0.78165   0.62425   0.00000  Uiso   1.00
H355   H     0.08767   0.83169   0.97012   0.00000  Uiso   1.00
H356   H     0.24043   0.75184   0.78735   0.00000  Uiso   1.00
H357   H     0.98468   0.75488   0.44659   0.00000  Uiso   1.00
H358   H     0.03351   0.86039   0.17590   0.00000  Uiso   1.00
H359   H     0.35565   0.69201   0.79047   0.00000  Uiso   1.00
O360   O     0.91408   0.66725   0.37974   0.00000  Uiso   1.00
O361   O     0.97816   0.80567   0.33657   0.00000  Uiso   1.00
O362   O     0.40079   0.58475   0.83090   0.00000  Uiso   1.00
N363   N     0.95237   0.62782   0.53866   0.00000  Uiso   1.00
N364   N     0.99802   0.72647   0.22051   0.00000  Uiso   1.00
N365   N     0.29919   0.56904   0.86020   0.00000  Uiso   1.00
N366   N     0.98135   0.71737   0.49052   0.00000  Uiso   1.00
N367   N     0.02700   0.81602   0.17237   0.00000  Uiso   1.00
N368   N     0.32818   0.65859   0.81206   0.00000  Uiso   1.00
