data_job_05916
_audit_creation_date              2018-12-19
_audit_creation_method            'Materials Studio'
_symmetry_space_group_name_H-M    'P1'
_symmetry_Int_Tables_number       1
_symmetry_cell_setting            triclinic
loop_
_symmetry_equiv_pos_as_xyz
  x,y,z
_cell_length_a                    15.8463
_cell_length_b                    15.3939
_cell_length_c                    14.0805
_cell_angle_alpha                 95.7363
_cell_angle_beta                  96.1786
_cell_angle_gamma                 93.9948
loop_
_atom_site_label
_atom_site_type_symbol
_atom_site_fract_x
_atom_site_fract_y
_atom_site_fract_z
_atom_site_U_iso_or_equiv
_atom_site_adp_type
_atom_site_occupancy
C1     C     0.86194   0.52914   0.19044   0.00000  Uiso   1.00
C2     C     0.86398   0.62330   0.16531   0.00000  Uiso   1.00
C3     C     0.81711   0.65229   0.08731   0.00000  Uiso   1.00
C4     C     0.82795   0.74096   0.07681   0.00000  Uiso   1.00
C5     C     0.82268   0.87840   0.02785   0.00000  Uiso   1.00
C6     C     0.95374   0.50449   0.19542   0.00000  Uiso   1.00
C7     C     0.98232   0.43358   0.14274   0.00000  Uiso   1.00
C8     C     0.06873   0.42223   0.15760   0.00000  Uiso   1.00
C9     C     0.20279   0.37518   0.15543   0.00000  Uiso   1.00
C10    C     0.83842   0.53222   0.29286   0.00000  Uiso   1.00
C11    C     0.77005   0.48461   0.32211   0.00000  Uiso   1.00
C12    C     0.75937   0.49659   0.41901   0.00000  Uiso   1.00
C13    C     0.71439   0.49260   0.56812   0.00000  Uiso   1.00
C14    C     0.96455   0.63505   0.31050   0.00000  Uiso   1.00
C15    C     0.91972   0.68082   0.23053   0.00000  Uiso   1.00
C16    C     0.93063   0.76947   0.22014   0.00000  Uiso   1.00
C17    C     0.88378   0.79859   0.14214   0.00000  Uiso   1.00
C18    C     0.00947   0.56201   0.26063   0.00000  Uiso   1.00
C19    C     0.09585   0.55076   0.27558   0.00000  Uiso   1.00
C20    C     0.12456   0.47986   0.22293   0.00000  Uiso   1.00
C21    C     0.89415   0.58974   0.35807   0.00000  Uiso   1.00
C22    C     0.88358   0.60179   0.45494   0.00000  Uiso   1.00
C23    C     0.81521   0.55422   0.48434   0.00000  Uiso   1.00
H24    H     0.81855   0.48435   0.13967   0.00000  Uiso   1.00
H25    H     0.77399   0.60776   0.03685   0.00000  Uiso   1.00
H26    H     0.93918   0.38907   0.09229   0.00000  Uiso   1.00
H27    H     0.72694   0.44010   0.27162   0.00000  Uiso   1.00
H28    H     0.74918   0.76993   0.95160   0.00000  Uiso   1.00
H29    H     0.09749   0.30881   0.06851   0.00000  Uiso   1.00
H30    H     0.64994   0.41641   0.44668   0.00000  Uiso   1.00
H31    H     0.00794   0.67983   0.36127   0.00000  Uiso   1.00
H32    H     0.97377   0.81397   0.27062   0.00000  Uiso   1.00
H33    H     0.13896   0.59528   0.32605   0.00000  Uiso   1.00
H34    H     0.92672   0.64631   0.50539   0.00000  Uiso   1.00
H35    H     0.91133   0.93730   0.14133   0.00000  Uiso   1.00
H36    H     0.25964   0.47617   0.25824   0.00000  Uiso   1.00
H37    H     0.81209   0.58378   0.63641   0.00000  Uiso   1.00
O38    O     0.80438   0.93832   0.98282   0.00000  Uiso   1.00
O39    O     0.26134   0.33334   0.13621   0.00000  Uiso   1.00
O40    O     0.67417   0.47451   0.63235   0.00000  Uiso   1.00
N41    N     0.79202   0.79092   0.00871   0.00000  Uiso   1.00
N42    N     0.11767   0.35980   0.11800   0.00000  Uiso   1.00
N43    N     0.69927   0.46039   0.47156   0.00000  Uiso   1.00
N44    N     0.87927   0.88098   0.11080   0.00000  Uiso   1.00
N45    N     0.20492   0.44986   0.22009   0.00000  Uiso   1.00
N46    N     0.78652   0.55045   0.57365   0.00000  Uiso   1.00
C47    C     0.19782   0.86190   0.52198   0.00000  Uiso   1.00
C48    C     0.17430   0.86490   0.62440   0.00000  Uiso   1.00
C49    C     0.10585   0.81739   0.65358   0.00000  Uiso   1.00
C50    C     0.09517   0.82931   0.75048   0.00000  Uiso   1.00
C51    C     0.05014   0.82527   0.89957   0.00000  Uiso   1.00
C52    C     0.20001   0.95611   0.49701   0.00000  Uiso   1.00
C53    C     0.15317   0.98529   0.41909   0.00000  Uiso   1.00
C54    C     0.16414   0.07398   0.40875   0.00000  Uiso   1.00
C55    C     0.15907   0.21154   0.36004   0.00000  Uiso   1.00
C56    C     0.28956   0.83710   0.52688   0.00000  Uiso   1.00
C57    C     0.31803   0.76622   0.47404   0.00000  Uiso   1.00
C58    C     0.40441   0.75472   0.48883   0.00000  Uiso   1.00
C59    C     0.53838   0.70749   0.48648   0.00000  Uiso   1.00
C60    C     0.30059   0.96754   0.64216   0.00000  Uiso   1.00
C61    C     0.23012   0.92228   0.68967   0.00000  Uiso   1.00
C62    C     0.21955   0.93427   0.78655   0.00000  Uiso   1.00
C63    C     0.15109   0.88678   0.81587   0.00000  Uiso   1.00
C64    C     0.25582   0.01349   0.56229   0.00000  Uiso   1.00
C65    C     0.26687   0.10216   0.55205   0.00000  Uiso   1.00
C66    C     0.22006   0.13146   0.47414   0.00000  Uiso   1.00
C67    C     0.34538   0.89447   0.59216   0.00000  Uiso   1.00
C68    C     0.43173   0.88309   0.60702   0.00000  Uiso   1.00
C69    C     0.46033   0.81220   0.55422   0.00000  Uiso   1.00
H70    H     0.15436   0.81724   0.47115   0.00000  Uiso   1.00
H71    H     0.06266   0.77300   0.60304   0.00000  Uiso   1.00
H72    H     0.10998   0.94087   0.36858   0.00000  Uiso   1.00
H73    H     0.27482   0.72183   0.42354   0.00000  Uiso   1.00
H74    H     0.98559   0.74929   0.77805   0.00000  Uiso   1.00
H75    H     0.08540   0.10324   0.28365   0.00000  Uiso   1.00
H76    H     0.43299   0.64135   0.39953   0.00000  Uiso   1.00
H77    H     0.34405   0.01221   0.69298   0.00000  Uiso   1.00
H78    H     0.26276   0.97867   0.83705   0.00000  Uiso   1.00
H79    H     0.31008   0.14654   0.60258   0.00000  Uiso   1.00
H80    H     0.47491   0.92750   0.65754   0.00000  Uiso   1.00
H81    H     0.14799   0.91622   0.96797   0.00000  Uiso   1.00
H82    H     0.24780   0.27017   0.47357   0.00000  Uiso   1.00
H83    H     0.59539   0.80828   0.58946   0.00000  Uiso   1.00
O84    O     0.00988   0.80720   0.96377   0.00000  Uiso   1.00
O85    O     0.14084   0.27156   0.31514   0.00000  Uiso   1.00
O86    O     0.59686   0.66557   0.46717   0.00000  Uiso   1.00
N87    N     0.03498   0.79317   0.80298   0.00000  Uiso   1.00
N88    N     0.12828   0.12409   0.34076   0.00000  Uiso   1.00
N89    N     0.45325   0.69228   0.44907   0.00000  Uiso   1.00
N90    N     0.12237   0.88299   0.90517   0.00000  Uiso   1.00
N91    N     0.21567   0.21391   0.44296   0.00000  Uiso   1.00
N92    N     0.54064   0.78210   0.55127   0.00000  Uiso   1.00
C93    C     0.53126   0.19673   0.86015   0.00000  Uiso   1.00
C94    C     0.62300   0.17193   0.86496   0.00000  Uiso   1.00
C95    C     0.65142   0.10096   0.81224   0.00000  Uiso   1.00
C96    C     0.73779   0.08946   0.82695   0.00000  Uiso   1.00
C97    C     0.87175   0.04219   0.82455   0.00000  Uiso   1.00
C98    C     0.50788   0.19988   0.96263   0.00000  Uiso   1.00
C99    C     0.43949   0.15241   0.99202   0.00000  Uiso   1.00
C100   C     0.42895   0.16445   0.08895   0.00000  Uiso   1.00
C101   C     0.38414   0.16062   0.23817   0.00000  Uiso   1.00
C102   C     0.53338   0.29088   0.83502   0.00000  Uiso   1.00
C103   C     0.48640   0.31994   0.75712   0.00000  Uiso   1.00
C104   C     0.49731   0.40861   0.74662   0.00000  Uiso   1.00
C105   C     0.49209   0.54607   0.69770   0.00000  Uiso   1.00
C106   C     0.63413   0.30253   0.98004   0.00000  Uiso   1.00
C107   C     0.67888   0.22939   0.93009   0.00000  Uiso   1.00
C108   C     0.76523   0.21801   0.94488   0.00000  Uiso   1.00
C109   C     0.79377   0.14703   0.89218   0.00000  Uiso   1.00
C110   C     0.56376   0.25734   0.02775   0.00000  Uiso   1.00
C111   C     0.55331   0.26946   0.12466   0.00000  Uiso   1.00
C112   C     0.48493   0.22202   0.15419   0.00000  Uiso   1.00
C113   C     0.58925   0.34835   0.90014   0.00000  Uiso   1.00
C114   C     0.60023   0.43699   0.88976   0.00000  Uiso   1.00
C115   C     0.55329   0.46618   0.81185   0.00000  Uiso   1.00
H116   H     0.48775   0.15199   0.80946   0.00000  Uiso   1.00
H117   H     0.60815   0.05649   0.76186   0.00000  Uiso   1.00
H118   H     0.39626   0.10795   0.94161   0.00000  Uiso   1.00
H119   H     0.44317   0.27545   0.70674   0.00000  Uiso   1.00
H120   H     0.76628   0.97594   0.73782   0.00000  Uiso   1.00
H121   H     0.31947   0.08446   0.11683   0.00000  Uiso   1.00
H122   H     0.41839   0.43767   0.62157   0.00000  Uiso   1.00
H123   H     0.67763   0.34727   0.03074   0.00000  Uiso   1.00
H124   H     0.80846   0.26249   0.99528   0.00000  Uiso   1.00
H125   H     0.59656   0.31394   0.17503   0.00000  Uiso   1.00
H126   H     0.64347   0.48144   0.94016   0.00000  Uiso   1.00
H127   H     0.92885   0.14313   0.92728   0.00000  Uiso   1.00
H128   H     0.48204   0.25165   0.30629   0.00000  Uiso   1.00
H129   H     0.58096   0.60486   0.81103   0.00000  Uiso   1.00
O130   O     0.93019   0.00023   0.80525   0.00000  Uiso   1.00
O131   O     0.34399   0.14261   0.30249   0.00000  Uiso   1.00
O132   O     0.47378   0.60601   0.65272   0.00000  Uiso   1.00
N133   N     0.78659   0.02694   0.78726   0.00000  Uiso   1.00
N134   N     0.36886   0.12839   0.14162   0.00000  Uiso   1.00
N135   N     0.46132   0.45861   0.67861   0.00000  Uiso   1.00
N136   N     0.87407   0.11690   0.88921   0.00000  Uiso   1.00
N137   N     0.45634   0.21835   0.24356   0.00000  Uiso   1.00
N138   N     0.54880   0.54857   0.78055   0.00000  Uiso   1.00
C139   C     0.13806   0.47086   0.80956   0.00000  Uiso   1.00
C140   C     0.13602   0.37670   0.83469   0.00000  Uiso   1.00
C141   C     0.18289   0.34771   0.91269   0.00000  Uiso   1.00
C142   C     0.17205   0.25904   0.92319   0.00000  Uiso   1.00
C143   C     0.17732   0.12160   0.97215   0.00000  Uiso   1.00
C144   C     0.04626   0.49551   0.80458   0.00000  Uiso   1.00
C145   C     0.01768   0.56642   0.85726   0.00000  Uiso   1.00
C146   C     0.93127   0.57777   0.84240   0.00000  Uiso   1.00
C147   C     0.79721   0.62482   0.84457   0.00000  Uiso   1.00
C148   C     0.16158   0.46778   0.70715   0.00000  Uiso   1.00
C149   C     0.22995   0.51539   0.67789   0.00000  Uiso   1.00
C150   C     0.24063   0.50341   0.58099   0.00000  Uiso   1.00
C151   C     0.28561   0.50740   0.43188   0.00000  Uiso   1.00
C152   C     0.03545   0.36495   0.68950   0.00000  Uiso   1.00
C153   C     0.08028   0.31918   0.76947   0.00000  Uiso   1.00
C154   C     0.06937   0.23053   0.77986   0.00000  Uiso   1.00
C155   C     0.11622   0.20141   0.85786   0.00000  Uiso   1.00
C156   C     0.99053   0.43799   0.73937   0.00000  Uiso   1.00
C157   C     0.90415   0.44924   0.72443   0.00000  Uiso   1.00
C158   C     0.87544   0.52014   0.77707   0.00000  Uiso   1.00
C159   C     0.10585   0.41026   0.64193   0.00000  Uiso   1.00
C160   C     0.11642   0.39821   0.54506   0.00000  Uiso   1.00
C161   C     0.18479   0.44578   0.51566   0.00000  Uiso   1.00
H162   H     0.18145   0.51565   0.86033   0.00000  Uiso   1.00
H163   H     0.22601   0.39225   0.96315   0.00000  Uiso   1.00
H164   H     0.06082   0.61093   0.90771   0.00000  Uiso   1.00
H165   H     0.27306   0.55990   0.72838   0.00000  Uiso   1.00
H166   H     0.25082   0.23007   0.04840   0.00000  Uiso   1.00
H167   H     0.90251   0.69119   0.93149   0.00000  Uiso   1.00
H168   H     0.35006   0.58359   0.55332   0.00000  Uiso   1.00
H169   H     0.99206   0.32017   0.63873   0.00000  Uiso   1.00
H170   H     0.02623   0.18603   0.72938   0.00000  Uiso   1.00
H171   H     0.86104   0.40472   0.67395   0.00000  Uiso   1.00
H172   H     0.07328   0.35369   0.49461   0.00000  Uiso   1.00
H173   H     0.08867   0.06270   0.85867   0.00000  Uiso   1.00
H174   H     0.74036   0.52383   0.74176   0.00000  Uiso   1.00
H175   H     0.18791   0.41622   0.36359   0.00000  Uiso   1.00
O176   O     0.19562   0.06168   0.01718   0.00000  Uiso   1.00
O177   O     0.73866   0.66666   0.86379   0.00000  Uiso   1.00
O178   O     0.32583   0.52549   0.36765   0.00000  Uiso   1.00
N179   N     0.20798   0.20908   0.99129   0.00000  Uiso   1.00
N180   N     0.88233   0.64020   0.88200   0.00000  Uiso   1.00
N181   N     0.30074   0.53961   0.52844   0.00000  Uiso   1.00
N182   N     0.12073   0.11902   0.88920   0.00000  Uiso   1.00
N183   N     0.79508   0.55014   0.77991   0.00000  Uiso   1.00
N184   N     0.21348   0.44955   0.42635   0.00000  Uiso   1.00
C185   C     0.80218   0.13810   0.47802   0.00000  Uiso   1.00
C186   C     0.82570   0.13510   0.37560   0.00000  Uiso   1.00
C187   C     0.89415   0.18261   0.34642   0.00000  Uiso   1.00
C188   C     0.90483   0.17069   0.24952   0.00000  Uiso   1.00
C189   C     0.94986   0.17473   0.10043   0.00000  Uiso   1.00
C190   C     0.79999   0.04389   0.50299   0.00000  Uiso   1.00
C191   C     0.84683   0.01471   0.58091   0.00000  Uiso   1.00
C192   C     0.83586   0.92602   0.59125   0.00000  Uiso   1.00
C193   C     0.84093   0.78846   0.63996   0.00000  Uiso   1.00
C194   C     0.71044   0.16290   0.47312   0.00000  Uiso   1.00
C195   C     0.68197   0.23378   0.52596   0.00000  Uiso   1.00
C196   C     0.59559   0.24528   0.51117   0.00000  Uiso   1.00
C197   C     0.46162   0.29251   0.51352   0.00000  Uiso   1.00
C198   C     0.69941   0.03246   0.35784   0.00000  Uiso   1.00
C199   C     0.76988   0.07772   0.31033   0.00000  Uiso   1.00
C200   C     0.78045   0.06574   0.21345   0.00000  Uiso   1.00
C201   C     0.84891   0.11322   0.18413   0.00000  Uiso   1.00
C202   C     0.74418   0.98651   0.43771   0.00000  Uiso   1.00
C203   C     0.73313   0.89784   0.44795   0.00000  Uiso   1.00
C204   C     0.77994   0.86854   0.52586   0.00000  Uiso   1.00
C205   C     0.65462   0.10553   0.40784   0.00000  Uiso   1.00
C206   C     0.56827   0.11691   0.39298   0.00000  Uiso   1.00
C207   C     0.53967   0.18780   0.44578   0.00000  Uiso   1.00
H208   H     0.84564   0.18276   0.52885   0.00000  Uiso   1.00
H209   H     0.93734   0.22700   0.39696   0.00000  Uiso   1.00
H210   H     0.89002   0.05913   0.63142   0.00000  Uiso   1.00
H211   H     0.72518   0.27817   0.57646   0.00000  Uiso   1.00
H212   H     0.01441   0.25071   0.22196   0.00000  Uiso   1.00
H213   H     0.91460   0.89676   0.71635   0.00000  Uiso   1.00
H214   H     0.56701   0.35865   0.60047   0.00000  Uiso   1.00
H215   H     0.65595   0.98779   0.30702   0.00000  Uiso   1.00
H216   H     0.73724   0.02133   0.16295   0.00000  Uiso   1.00
H217   H     0.68992   0.85346   0.39742   0.00000  Uiso   1.00
H218   H     0.52509   0.07250   0.34246   0.00000  Uiso   1.00
H219   H     0.85201   0.08378   0.03203   0.00000  Uiso   1.00
H220   H     0.75220   0.72983   0.52643   0.00000  Uiso   1.00
H221   H     0.40461   0.19172   0.41054   0.00000  Uiso   1.00
O222   O     0.99012   0.19280   0.03623   0.00000  Uiso   1.00
O223   O     0.85917   0.72844   0.68486   0.00000  Uiso   1.00
O224   O     0.40314   0.33443   0.53283   0.00000  Uiso   1.00
N225   N     0.96502   0.20683   0.19702   0.00000  Uiso   1.00
N226   N     0.87172   0.87591   0.65924   0.00000  Uiso   1.00
N227   N     0.54675   0.30772   0.55093   0.00000  Uiso   1.00
N228   N     0.87763   0.11701   0.09483   0.00000  Uiso   1.00
N229   N     0.78433   0.78609   0.55704   0.00000  Uiso   1.00
N230   N     0.45936   0.21790   0.44873   0.00000  Uiso   1.00
C231   C     0.46874   0.80327   0.13985   0.00000  Uiso   1.00
C232   C     0.37700   0.82807   0.13504   0.00000  Uiso   1.00
C233   C     0.34858   0.89904   0.18776   0.00000  Uiso   1.00
C234   C     0.26221   0.91054   0.17305   0.00000  Uiso   1.00
C235   C     0.12825   0.95781   0.17545   0.00000  Uiso   1.00
C236   C     0.49212   0.80012   0.03737   0.00000  Uiso   1.00
C237   C     0.56051   0.84759   0.00798   0.00000  Uiso   1.00
C238   C     0.57105   0.83555   0.91105   0.00000  Uiso   1.00
C239   C     0.61586   0.83938   0.76183   0.00000  Uiso   1.00
C240   C     0.46662   0.70912   0.16498   0.00000  Uiso   1.00
C241   C     0.51360   0.68006   0.24288   0.00000  Uiso   1.00
C242   C     0.50269   0.59139   0.25338   0.00000  Uiso   1.00
C243   C     0.50791   0.45393   0.30230   0.00000  Uiso   1.00
C244   C     0.36587   0.69747   0.01996   0.00000  Uiso   1.00
C245   C     0.32112   0.77061   0.06991   0.00000  Uiso   1.00
C246   C     0.23477   0.78199   0.05512   0.00000  Uiso   1.00
C247   C     0.20623   0.85297   0.10782   0.00000  Uiso   1.00
C248   C     0.43624   0.74266   0.97225   0.00000  Uiso   1.00
C249   C     0.44669   0.73054   0.87534   0.00000  Uiso   1.00
C250   C     0.51507   0.77798   0.84582   0.00000  Uiso   1.00
C251   C     0.41075   0.65165   0.09986   0.00000  Uiso   1.00
C252   C     0.39977   0.56301   0.11024   0.00000  Uiso   1.00
C253   C     0.44671   0.53382   0.18815   0.00000  Uiso   1.00
H254   H     0.51225   0.84801   0.19054   0.00000  Uiso   1.00
H255   H     0.39185   0.94351   0.23815   0.00000  Uiso   1.00
H256   H     0.60374   0.89205   0.05839   0.00000  Uiso   1.00
H257   H     0.55683   0.72455   0.29326   0.00000  Uiso   1.00
H258   H     0.23372   0.02406   0.26218   0.00000  Uiso   1.00
H259   H     0.68053   0.91554   0.88317   0.00000  Uiso   1.00
H260   H     0.58161   0.56233   0.37843   0.00000  Uiso   1.00
H261   H     0.32237   0.65273   0.96926   0.00000  Uiso   1.00
H262   H     0.19154   0.73751   0.00472   0.00000  Uiso   1.00
H263   H     0.40344   0.68606   0.82497   0.00000  Uiso   1.00
H264   H     0.35653   0.51856   0.05984   0.00000  Uiso   1.00
H265   H     0.07115   0.85687   0.07272   0.00000  Uiso   1.00
H266   H     0.51796   0.74835   0.69371   0.00000  Uiso   1.00
H267   H     0.41904   0.39514   0.18897   0.00000  Uiso   1.00
O268   O     0.06981   0.99977   0.19475   0.00000  Uiso   1.00
O269   O     0.65601   0.85739   0.69751   0.00000  Uiso   1.00
O270   O     0.52622   0.39399   0.34728   0.00000  Uiso   1.00
N271   N     0.21341   0.97306   0.21274   0.00000  Uiso   1.00
N272   N     0.63114   0.87161   0.85838   0.00000  Uiso   1.00
N273   N     0.53868   0.54139   0.32140   0.00000  Uiso   1.00
N274   N     0.12593   0.88310   0.11079   0.00000  Uiso   1.00
N275   N     0.54366   0.78165   0.75644   0.00000  Uiso   1.00
N276   N     0.45120   0.45143   0.21945   0.00000  Uiso   1.00
