data_job_05123
_audit_creation_date              2018-12-19
_audit_creation_method            'Materials Studio'
_symmetry_space_group_name_H-M    'P1'
_symmetry_Int_Tables_number       1
_symmetry_cell_setting            triclinic
loop_
_symmetry_equiv_pos_as_xyz
  x,y,z
_cell_length_a                    9.9789
_cell_length_b                    34.8062
_cell_length_c                    13.6358
_cell_angle_alpha                 90.0000
_cell_angle_beta                  90.0000
_cell_angle_gamma                 90.0000
loop_
_atom_site_label
_atom_site_type_symbol
_atom_site_fract_x
_atom_site_fract_y
_atom_site_fract_z
_atom_site_U_iso_or_equiv
_atom_site_adp_type
_atom_site_occupancy
C1     C     0.13605   0.64650   0.22115   0.00000  Uiso   1.00
C2     C     0.06724   0.60859   0.24580   0.00000  Uiso   1.00
C3     C     0.09358   0.58587   0.32718   0.00000  Uiso   1.00
C4     C     0.01989   0.55224   0.33655   0.00000  Uiso   1.00
C5     C     0.92778   0.49496   0.38538   0.00000  Uiso   1.00
C6     C     0.19473   0.64151   0.11868   0.00000  Uiso   1.00
C7     C     0.32825   0.64647   0.09318   0.00000  Uiso   1.00
C8     C     0.36187   0.64054   0.99554   0.00000  Uiso   1.00
C9     C     0.46767   0.63440   0.84700   0.00000  Uiso   1.00
C10    C     0.02440   0.67616   0.21120   0.00000  Uiso   1.00
C11    C     0.01472   0.71026   0.26347   0.00000  Uiso   1.00
C12    C     0.90495   0.73351   0.24370   0.00000  Uiso   1.00
C13    C     0.74628   0.78117   0.23882   0.00000  Uiso   1.00
C14    C     0.95832   0.62717   0.09308   0.00000  Uiso   1.00
C15    C     0.97071   0.59809   0.17623   0.00000  Uiso   1.00
C16    C     0.89695   0.56449   0.18548   0.00000  Uiso   1.00
C17    C     0.92318   0.54172   0.26686   0.00000  Uiso   1.00
C18    C     0.09820   0.63101   0.04912   0.00000  Uiso   1.00
C19    C     0.13162   0.62508   0.95149   0.00000  Uiso   1.00
C20    C     0.26517   0.63003   0.92585   0.00000  Uiso   1.00
C21    C     0.92786   0.66566   0.14164   0.00000  Uiso   1.00
C22    C     0.81809   0.68887   0.12178   0.00000  Uiso   1.00
C23    C     0.80824   0.72300   0.17401   0.00000  Uiso   1.00
H24    H     0.21121   0.65468   0.27530   0.00000  Uiso   1.00
H25    H     0.16831   0.59401   0.38099   0.00000  Uiso   1.00
H26    H     0.40293   0.65459   0.14703   0.00000  Uiso   1.00
H27    H     0.08944   0.71837   0.31729   0.00000  Uiso   1.00
H28    H     0.07821   0.52210   0.46747   0.00000  Uiso   1.00
H29    H     0.57292   0.64987   0.97414   0.00000  Uiso   1.00
H30    H     0.91187   0.78436   0.33318   0.00000  Uiso   1.00
H31    H     0.88317   0.61900   0.03891   0.00000  Uiso   1.00
H32    H     0.82226   0.55637   0.13164   0.00000  Uiso   1.00
H33    H     0.05689   0.61696   0.89767   0.00000  Uiso   1.00
H34    H     0.74341   0.68074   0.06794   0.00000  Uiso   1.00
H35    H     0.79735   0.49156   0.26509   0.00000  Uiso   1.00
H36    H     0.29206   0.61933   0.77175   0.00000  Uiso   1.00
H37    H     0.63101   0.75382   0.13079   0.00000  Uiso   1.00
O38    O     0.90366   0.46627   0.43152   0.00000  Uiso   1.00
O39    O     0.55270   0.63390   0.78429   0.00000  Uiso   1.00
O40    O     0.68542   0.81035   0.25534   0.00000  Uiso   1.00
N41    N     0.02044   0.52351   0.40713   0.00000  Uiso   1.00
N42    N     0.48298   0.64296   0.94589   0.00000  Uiso   1.00
N43    N     0.86497   0.76871   0.28155   0.00000  Uiso   1.00
N44    N     0.86932   0.50708   0.29822   0.00000  Uiso   1.00
N45    N     0.33185   0.62653   0.83699   0.00000  Uiso   1.00
N46    N     0.71385   0.75227   0.17264   0.00000  Uiso   1.00
C47    C     0.87710   0.36165   0.84307   0.00000  Uiso   1.00
C48    C     0.94924   0.39765   0.80733   0.00000  Uiso   1.00
C49    C     0.94157   0.41296   0.71353   0.00000  Uiso   1.00
C50    C     0.01509   0.44607   0.69540   0.00000  Uiso   1.00
C51    C     0.11514   0.49937   0.62880   0.00000  Uiso   1.00
C52    C     0.79500   0.37399   0.93198   0.00000  Uiso   1.00
C53    C     0.65767   0.36941   0.94298   0.00000  Uiso   1.00
C54    C     0.60136   0.38261   0.02978   0.00000  Uiso   1.00
C55    C     0.46197   0.39915   0.15673   0.00000  Uiso   1.00
C56    C     0.98585   0.33496   0.88215   0.00000  Uiso   1.00
C57    C     0.00897   0.29754   0.85127   0.00000  Uiso   1.00
C58    C     0.11333   0.27787   0.89614   0.00000  Uiso   1.00
C59    C     0.27027   0.23380   0.94572   0.00000  Uiso   1.00
C60    C     0.02129   0.39323   0.97768   0.00000  Uiso   1.00
C61    C     0.02755   0.41480   0.88045   0.00000  Uiso   1.00
C62    C     0.10111   0.44790   0.86245   0.00000  Uiso   1.00
C63    C     0.09356   0.46325   0.76864   0.00000  Uiso   1.00
C64    C     0.87332   0.39115   0.00509   0.00000  Uiso   1.00
C65    C     0.81720   0.40435   0.09190   0.00000  Uiso   1.00
C66    C     0.67982   0.39979   0.10303   0.00000  Uiso   1.00
C67    C     0.06418   0.35211   0.95526   0.00000  Uiso   1.00
C68    C     0.16852   0.33248   0.00019   0.00000  Uiso   1.00
C69    C     0.19179   0.29505   0.96939   0.00000  Uiso   1.00
H70    H     0.81611   0.34830   0.78615   0.00000  Uiso   1.00
H71    H     0.88094   0.39968   0.65697   0.00000  Uiso   1.00
H72    H     0.59708   0.35613   0.88639   0.00000  Uiso   1.00
H73    H     0.94834   0.28428   0.79469   0.00000  Uiso   1.00
H74    H     0.98731   0.46421   0.54600   0.00000  Uiso   1.00
H75    H     0.38880   0.37239   0.02976   0.00000  Uiso   1.00
H76    H     0.12948   0.22087   0.83639   0.00000  Uiso   1.00
H77    H     0.08227   0.40658   0.03460   0.00000  Uiso   1.00
H78    H     0.16171   0.46116   0.91905   0.00000  Uiso   1.00
H79    H     0.87785   0.41762   0.14847   0.00000  Uiso   1.00
H80    H     0.22911   0.34576   0.05677   0.00000  Uiso   1.00
H81    H     0.21519   0.51412   0.75871   0.00000  Uiso   1.00
H82    H     0.61667   0.42229   0.24248   0.00000  Uiso   1.00
H83    H     0.35736   0.27077   0.04911   0.00000  Uiso   1.00
O84    O     0.14867   0.52403   0.57187   0.00000  Uiso   1.00
O85    O     0.36344   0.40354   0.20655   0.00000  Uiso   1.00
O86    O     0.33521   0.20476   0.95285   0.00000  Uiso   1.00
N87    N     0.03006   0.46847   0.61191   0.00000  Uiso   1.00
N88    N     0.47048   0.38262   0.06419   0.00000  Uiso   1.00
N89    N     0.16294   0.24096   0.88343   0.00000  Uiso   1.00
N90    N     0.15269   0.49532   0.72637   0.00000  Uiso   1.00
N91    N     0.59310   0.40947   0.17865   0.00000  Uiso   1.00
N92    N     0.28556   0.26781   0.99789   0.00000  Uiso   1.00
C93    C     0.36395   0.35350   0.72115   0.00000  Uiso   1.00
C94    C     0.43276   0.39141   0.74580   0.00000  Uiso   1.00
C95    C     0.40642   0.41413   0.82718   0.00000  Uiso   1.00
C96    C     0.48011   0.44776   0.83655   0.00000  Uiso   1.00
C97    C     0.57222   0.50504   0.88538   0.00000  Uiso   1.00
C98    C     0.30527   0.35849   0.61868   0.00000  Uiso   1.00
C99    C     0.17175   0.35353   0.59318   0.00000  Uiso   1.00
C100   C     0.13813   0.35946   0.49554   0.00000  Uiso   1.00
C101   C     0.03233   0.36560   0.34700   0.00000  Uiso   1.00
C102   C     0.47560   0.32384   0.71120   0.00000  Uiso   1.00
C103   C     0.48528   0.28974   0.76347   0.00000  Uiso   1.00
C104   C     0.59505   0.26649   0.74370   0.00000  Uiso   1.00
C105   C     0.75372   0.21883   0.73882   0.00000  Uiso   1.00
C106   C     0.54168   0.37283   0.59308   0.00000  Uiso   1.00
C107   C     0.52929   0.40191   0.67623   0.00000  Uiso   1.00
C108   C     0.60305   0.43551   0.68548   0.00000  Uiso   1.00
C109   C     0.57682   0.45828   0.76686   0.00000  Uiso   1.00
C110   C     0.40180   0.36899   0.54912   0.00000  Uiso   1.00
C111   C     0.36838   0.37492   0.45149   0.00000  Uiso   1.00
C112   C     0.23483   0.36997   0.42585   0.00000  Uiso   1.00
C113   C     0.57214   0.33434   0.64164   0.00000  Uiso   1.00
C114   C     0.68191   0.31113   0.62178   0.00000  Uiso   1.00
C115   C     0.69176   0.27700   0.67401   0.00000  Uiso   1.00
H116   H     0.28879   0.34532   0.77530   0.00000  Uiso   1.00
H117   H     0.33169   0.40599   0.88099   0.00000  Uiso   1.00
H118   H     0.09707   0.34541   0.64703   0.00000  Uiso   1.00
H119   H     0.41056   0.28163   0.81729   0.00000  Uiso   1.00
H120   H     0.42179   0.47790   0.96747   0.00000  Uiso   1.00
H121   H     0.92708   0.35013   0.47414   0.00000  Uiso   1.00
H122   H     0.58813   0.21564   0.83318   0.00000  Uiso   1.00
H123   H     0.61683   0.38100   0.53891   0.00000  Uiso   1.00
H124   H     0.67774   0.44363   0.63164   0.00000  Uiso   1.00
H125   H     0.44311   0.38304   0.39767   0.00000  Uiso   1.00
H126   H     0.75659   0.31926   0.56794   0.00000  Uiso   1.00
H127   H     0.70265   0.50844   0.76509   0.00000  Uiso   1.00
H128   H     0.20794   0.38067   0.27175   0.00000  Uiso   1.00
H129   H     0.86899   0.24618   0.63079   0.00000  Uiso   1.00
O130   O     0.59634   0.53373   0.93152   0.00000  Uiso   1.00
O131   O     0.94730   0.36610   0.28429   0.00000  Uiso   1.00
O132   O     0.81458   0.18965   0.75534   0.00000  Uiso   1.00
N133   N     0.47956   0.47649   0.90713   0.00000  Uiso   1.00
N134   N     0.01702   0.35704   0.44589   0.00000  Uiso   1.00
N135   N     0.63503   0.23129   0.78155   0.00000  Uiso   1.00
N136   N     0.63068   0.49292   0.79822   0.00000  Uiso   1.00
N137   N     0.16815   0.37347   0.33699   0.00000  Uiso   1.00
N138   N     0.78615   0.24773   0.67264   0.00000  Uiso   1.00
C139   C     0.62290   0.63835   0.34307   0.00000  Uiso   1.00
C140   C     0.55076   0.60235   0.30733   0.00000  Uiso   1.00
C141   C     0.55843   0.58704   0.21353   0.00000  Uiso   1.00
C142   C     0.48491   0.55393   0.19540   0.00000  Uiso   1.00
C143   C     0.38486   0.50063   0.12880   0.00000  Uiso   1.00
C144   C     0.70500   0.62601   0.43198   0.00000  Uiso   1.00
C145   C     0.84233   0.63059   0.44298   0.00000  Uiso   1.00
C146   C     0.89864   0.61739   0.52978   0.00000  Uiso   1.00
C147   C     0.03803   0.60085   0.65673   0.00000  Uiso   1.00
C148   C     0.51415   0.66504   0.38215   0.00000  Uiso   1.00
C149   C     0.49103   0.70246   0.35127   0.00000  Uiso   1.00
C150   C     0.38667   0.72213   0.39614   0.00000  Uiso   1.00
C151   C     0.22973   0.76620   0.44572   0.00000  Uiso   1.00
C152   C     0.47871   0.60677   0.47768   0.00000  Uiso   1.00
C153   C     0.47245   0.58520   0.38045   0.00000  Uiso   1.00
C154   C     0.39889   0.55210   0.36245   0.00000  Uiso   1.00
C155   C     0.40644   0.53675   0.26864   0.00000  Uiso   1.00
C156   C     0.62668   0.60885   0.50509   0.00000  Uiso   1.00
C157   C     0.68280   0.59565   0.59190   0.00000  Uiso   1.00
C158   C     0.82018   0.60021   0.60303   0.00000  Uiso   1.00
C159   C     0.43582   0.64789   0.45526   0.00000  Uiso   1.00
C160   C     0.33148   0.66752   0.50019   0.00000  Uiso   1.00
C161   C     0.30821   0.70495   0.46939   0.00000  Uiso   1.00
H162   H     0.68389   0.65170   0.28615   0.00000  Uiso   1.00
H163   H     0.61906   0.60032   0.15697   0.00000  Uiso   1.00
H164   H     0.90292   0.64387   0.38639   0.00000  Uiso   1.00
H165   H     0.55166   0.71572   0.29469   0.00000  Uiso   1.00
H166   H     0.51269   0.53579   0.04600   0.00000  Uiso   1.00
H167   H     0.11120   0.62761   0.52976   0.00000  Uiso   1.00
H168   H     0.37052   0.77913   0.33639   0.00000  Uiso   1.00
H169   H     0.41773   0.59342   0.53460   0.00000  Uiso   1.00
H170   H     0.33829   0.53884   0.41905   0.00000  Uiso   1.00
H171   H     0.62215   0.58238   0.64847   0.00000  Uiso   1.00
H172   H     0.27089   0.65424   0.55677   0.00000  Uiso   1.00
H173   H     0.28481   0.48588   0.25871   0.00000  Uiso   1.00
H174   H     0.88333   0.57771   0.74248   0.00000  Uiso   1.00
H175   H     0.14264   0.72923   0.54911   0.00000  Uiso   1.00
O176   O     0.35133   0.47597   0.07187   0.00000  Uiso   1.00
O177   O     0.13656   0.59646   0.70655   0.00000  Uiso   1.00
O178   O     0.16479   0.79524   0.45285   0.00000  Uiso   1.00
N179   N     0.46994   0.53153   0.11191   0.00000  Uiso   1.00
N180   N     0.02952   0.61738   0.56419   0.00000  Uiso   1.00
N181   N     0.33706   0.75904   0.38343   0.00000  Uiso   1.00
N182   N     0.34731   0.50468   0.22637   0.00000  Uiso   1.00
N183   N     0.90690   0.59053   0.67865   0.00000  Uiso   1.00
N184   N     0.21444   0.73219   0.49789   0.00000  Uiso   1.00
C185   C     0.86395   0.14650   0.27885   0.00000  Uiso   1.00
C186   C     0.93276   0.10859   0.25420   0.00000  Uiso   1.00
C187   C     0.90642   0.08587   0.17282   0.00000  Uiso   1.00
C188   C     0.98011   0.05224   0.16345   0.00000  Uiso   1.00
C189   C     0.07222   0.99496   0.11462   0.00000  Uiso   1.00
C190   C     0.80527   0.14151   0.38132   0.00000  Uiso   1.00
C191   C     0.67175   0.14647   0.40682   0.00000  Uiso   1.00
C192   C     0.63813   0.14054   0.50446   0.00000  Uiso   1.00
C193   C     0.53233   0.13440   0.65300   0.00000  Uiso   1.00
C194   C     0.97560   0.17616   0.28880   0.00000  Uiso   1.00
C195   C     0.98528   0.21026   0.23653   0.00000  Uiso   1.00
C196   C     0.09505   0.23351   0.25630   0.00000  Uiso   1.00
C197   C     0.25372   0.28117   0.26118   0.00000  Uiso   1.00
C198   C     0.04168   0.12717   0.40692   0.00000  Uiso   1.00
C199   C     0.02929   0.09809   0.32377   0.00000  Uiso   1.00
C200   C     0.10305   0.06449   0.31452   0.00000  Uiso   1.00
C201   C     0.07682   0.04172   0.23314   0.00000  Uiso   1.00
C202   C     0.90180   0.13101   0.45088   0.00000  Uiso   1.00
C203   C     0.86838   0.12508   0.54851   0.00000  Uiso   1.00
C204   C     0.73483   0.13003   0.57415   0.00000  Uiso   1.00
C205   C     0.07214   0.16566   0.35836   0.00000  Uiso   1.00
C206   C     0.18191   0.18887   0.37822   0.00000  Uiso   1.00
C207   C     0.19176   0.22300   0.32599   0.00000  Uiso   1.00
H208   H     0.78879   0.15468   0.22470   0.00000  Uiso   1.00
H209   H     0.83169   0.09401   0.11901   0.00000  Uiso   1.00
H210   H     0.59707   0.15459   0.35297   0.00000  Uiso   1.00
H211   H     0.91056   0.21837   0.18271   0.00000  Uiso   1.00
H212   H     0.92179   0.02210   0.03253   0.00000  Uiso   1.00
H213   H     0.42708   0.14987   0.52586   0.00000  Uiso   1.00
H214   H     0.08813   0.28436   0.16682   0.00000  Uiso   1.00
H215   H     0.11683   0.11900   0.46109   0.00000  Uiso   1.00
H216   H     0.17774   0.05637   0.36836   0.00000  Uiso   1.00
H217   H     0.94311   0.11696   0.60233   0.00000  Uiso   1.00
H218   H     0.25659   0.18074   0.43206   0.00000  Uiso   1.00
H219   H     0.20265   0.99156   0.23491   0.00000  Uiso   1.00
H220   H     0.70794   0.11933   0.72825   0.00000  Uiso   1.00
H221   H     0.36899   0.25382   0.36921   0.00000  Uiso   1.00
O222   O     0.09634   0.96627   0.06848   0.00000  Uiso   1.00
O223   O     0.44730   0.13390   0.71571   0.00000  Uiso   1.00
O224   O     0.31458   0.31035   0.24466   0.00000  Uiso   1.00
N225   N     0.97956   0.02351   0.09287   0.00000  Uiso   1.00
N226   N     0.51702   0.14296   0.55411   0.00000  Uiso   1.00
N227   N     0.13503   0.26871   0.21845   0.00000  Uiso   1.00
N228   N     0.13068   0.00708   0.20178   0.00000  Uiso   1.00
N229   N     0.66815   0.12653   0.66301   0.00000  Uiso   1.00
N230   N     0.28615   0.25227   0.32736   0.00000  Uiso   1.00
C231   C     0.12290   0.86165   0.65693   0.00000  Uiso   1.00
C232   C     0.05076   0.89765   0.69267   0.00000  Uiso   1.00
C233   C     0.05843   0.91296   0.78647   0.00000  Uiso   1.00
C234   C     0.98491   0.94607   0.80460   0.00000  Uiso   1.00
C235   C     0.88486   0.99937   0.87120   0.00000  Uiso   1.00
C236   C     0.20500   0.87399   0.56802   0.00000  Uiso   1.00
C237   C     0.34233   0.86941   0.55702   0.00000  Uiso   1.00
C238   C     0.39864   0.88261   0.47022   0.00000  Uiso   1.00
C239   C     0.53803   0.89915   0.34327   0.00000  Uiso   1.00
C240   C     0.01415   0.83496   0.61785   0.00000  Uiso   1.00
C241   C     0.99103   0.79754   0.64873   0.00000  Uiso   1.00
C242   C     0.88667   0.77787   0.60386   0.00000  Uiso   1.00
C243   C     0.72973   0.73380   0.55428   0.00000  Uiso   1.00
C244   C     0.97871   0.89323   0.52232   0.00000  Uiso   1.00
C245   C     0.97245   0.91480   0.61955   0.00000  Uiso   1.00
C246   C     0.89889   0.94790   0.63755   0.00000  Uiso   1.00
C247   C     0.90644   0.96325   0.73136   0.00000  Uiso   1.00
C248   C     0.12668   0.89115   0.49491   0.00000  Uiso   1.00
C249   C     0.18280   0.90435   0.40810   0.00000  Uiso   1.00
C250   C     0.32018   0.89979   0.39697   0.00000  Uiso   1.00
C251   C     0.93582   0.85211   0.54474   0.00000  Uiso   1.00
C252   C     0.83148   0.83248   0.49981   0.00000  Uiso   1.00
C253   C     0.80821   0.79505   0.53061   0.00000  Uiso   1.00
H254   H     0.18389   0.84830   0.71385   0.00000  Uiso   1.00
H255   H     0.11906   0.89968   0.84303   0.00000  Uiso   1.00
H256   H     0.40292   0.85613   0.61361   0.00000  Uiso   1.00
H257   H     0.05166   0.78428   0.70531   0.00000  Uiso   1.00
H258   H     0.01269   0.96421   0.95400   0.00000  Uiso   1.00
H259   H     0.61120   0.87239   0.47024   0.00000  Uiso   1.00
H260   H     0.87052   0.72087   0.66361   0.00000  Uiso   1.00
H261   H     0.91773   0.90658   0.46540   0.00000  Uiso   1.00
H262   H     0.83829   0.96116   0.58095   0.00000  Uiso   1.00
H263   H     0.12215   0.91762   0.35153   0.00000  Uiso   1.00
H264   H     0.77089   0.84576   0.44323   0.00000  Uiso   1.00
H265   H     0.78481   0.01412   0.74129   0.00000  Uiso   1.00
H266   H     0.38333   0.92229   0.25752   0.00000  Uiso   1.00
H267   H     0.64264   0.77077   0.45089   0.00000  Uiso   1.00
O268   O     0.85133   0.02403   0.92813   0.00000  Uiso   1.00
O269   O     0.63656   0.90354   0.29345   0.00000  Uiso   1.00
O270   O     0.66479   0.70476   0.54715   0.00000  Uiso   1.00
N271   N     0.96994   0.96847   0.88809   0.00000  Uiso   1.00
N272   N     0.52952   0.88262   0.43581   0.00000  Uiso   1.00
N273   N     0.83706   0.74096   0.61657   0.00000  Uiso   1.00
N274   N     0.84731   0.99532   0.77363   0.00000  Uiso   1.00
N275   N     0.40690   0.90947   0.32135   0.00000  Uiso   1.00
N276   N     0.71444   0.76781   0.50211   0.00000  Uiso   1.00
C277   C     0.63605   0.85350   0.77885   0.00000  Uiso   1.00
C278   C     0.56724   0.89141   0.75420   0.00000  Uiso   1.00
C279   C     0.59358   0.91413   0.67282   0.00000  Uiso   1.00
C280   C     0.51989   0.94776   0.66345   0.00000  Uiso   1.00
C281   C     0.42778   0.00504   0.61462   0.00000  Uiso   1.00
C282   C     0.69473   0.85849   0.88132   0.00000  Uiso   1.00
C283   C     0.82825   0.85353   0.90682   0.00000  Uiso   1.00
C284   C     0.86187   0.85946   0.00446   0.00000  Uiso   1.00
C285   C     0.96767   0.86560   0.15300   0.00000  Uiso   1.00
C286   C     0.52440   0.82384   0.78880   0.00000  Uiso   1.00
C287   C     0.51472   0.78974   0.73653   0.00000  Uiso   1.00
C288   C     0.40495   0.76649   0.75630   0.00000  Uiso   1.00
C289   C     0.24628   0.71883   0.76118   0.00000  Uiso   1.00
C290   C     0.45832   0.87283   0.90692   0.00000  Uiso   1.00
C291   C     0.47071   0.90191   0.82377   0.00000  Uiso   1.00
C292   C     0.39695   0.93551   0.81452   0.00000  Uiso   1.00
C293   C     0.42318   0.95828   0.73314   0.00000  Uiso   1.00
C294   C     0.59820   0.86899   0.95088   0.00000  Uiso   1.00
C295   C     0.63162   0.87492   0.04851   0.00000  Uiso   1.00
C296   C     0.76517   0.86997   0.07415   0.00000  Uiso   1.00
C297   C     0.42786   0.83434   0.85836   0.00000  Uiso   1.00
C298   C     0.31809   0.81113   0.87822   0.00000  Uiso   1.00
C299   C     0.30824   0.77700   0.82599   0.00000  Uiso   1.00
H300   H     0.71121   0.84532   0.72470   0.00000  Uiso   1.00
H301   H     0.66831   0.90599   0.61901   0.00000  Uiso   1.00
H302   H     0.90293   0.84541   0.85297   0.00000  Uiso   1.00
H303   H     0.58944   0.78163   0.68271   0.00000  Uiso   1.00
H304   H     0.57821   0.97790   0.53253   0.00000  Uiso   1.00
H305   H     0.07292   0.85013   0.02586   0.00000  Uiso   1.00
H306   H     0.41187   0.71564   0.66682   0.00000  Uiso   1.00
H307   H     0.38317   0.88100   0.96109   0.00000  Uiso   1.00
H308   H     0.32226   0.94363   0.86836   0.00000  Uiso   1.00
H309   H     0.55689   0.88304   0.10233   0.00000  Uiso   1.00
H310   H     0.24341   0.81926   0.93206   0.00000  Uiso   1.00
H311   H     0.29735   0.00844   0.73491   0.00000  Uiso   1.00
H312   H     0.79206   0.88067   0.22825   0.00000  Uiso   1.00
H313   H     0.13101   0.74618   0.86921   0.00000  Uiso   1.00
O314   O     0.40366   0.03373   0.56848   0.00000  Uiso   1.00
O315   O     0.05270   0.86610   0.21571   0.00000  Uiso   1.00
O316   O     0.18542   0.68965   0.74466   0.00000  Uiso   1.00
N317   N     0.52044   0.97649   0.59287   0.00000  Uiso   1.00
N318   N     0.98298   0.85704   0.05411   0.00000  Uiso   1.00
N319   N     0.36497   0.73129   0.71845   0.00000  Uiso   1.00
N320   N     0.36932   0.99292   0.70178   0.00000  Uiso   1.00
N321   N     0.83185   0.87347   0.16301   0.00000  Uiso   1.00
N322   N     0.21385   0.74773   0.82736   0.00000  Uiso   1.00
C323   C     0.37710   0.13835   0.15693   0.00000  Uiso   1.00
C324   C     0.44924   0.10235   0.19267   0.00000  Uiso   1.00
C325   C     0.44157   0.08704   0.28647   0.00000  Uiso   1.00
C326   C     0.51509   0.05393   0.30460   0.00000  Uiso   1.00
C327   C     0.61514   0.00063   0.37120   0.00000  Uiso   1.00
C328   C     0.29500   0.12601   0.06802   0.00000  Uiso   1.00
C329   C     0.15767   0.13059   0.05702   0.00000  Uiso   1.00
C330   C     0.10136   0.11739   0.97022   0.00000  Uiso   1.00
C331   C     0.96197   0.10085   0.84327   0.00000  Uiso   1.00
C332   C     0.48585   0.16504   0.11785   0.00000  Uiso   1.00
C333   C     0.50897   0.20246   0.14873   0.00000  Uiso   1.00
C334   C     0.61333   0.22213   0.10386   0.00000  Uiso   1.00
C335   C     0.77027   0.26620   0.05428   0.00000  Uiso   1.00
C336   C     0.52129   0.10677   0.02232   0.00000  Uiso   1.00
C337   C     0.52755   0.08520   0.11955   0.00000  Uiso   1.00
C338   C     0.60111   0.05210   0.13755   0.00000  Uiso   1.00
C339   C     0.59356   0.03675   0.23136   0.00000  Uiso   1.00
C340   C     0.37332   0.10885   0.99491   0.00000  Uiso   1.00
C341   C     0.31720   0.09565   0.90810   0.00000  Uiso   1.00
C342   C     0.17982   0.10021   0.89697   0.00000  Uiso   1.00
C343   C     0.56418   0.14789   0.04474   0.00000  Uiso   1.00
C344   C     0.66852   0.16752   0.99981   0.00000  Uiso   1.00
C345   C     0.69179   0.20495   0.03061   0.00000  Uiso   1.00
H346   H     0.31611   0.15170   0.21385   0.00000  Uiso   1.00
H347   H     0.38094   0.10032   0.34303   0.00000  Uiso   1.00
H348   H     0.09708   0.14387   0.11361   0.00000  Uiso   1.00
H349   H     0.44834   0.21572   0.20531   0.00000  Uiso   1.00
H350   H     0.48731   0.03579   0.45400   0.00000  Uiso   1.00
H351   H     0.88880   0.12761   0.97024   0.00000  Uiso   1.00
H352   H     0.62948   0.27913   0.16361   0.00000  Uiso   1.00
H353   H     0.58227   0.09342   0.96540   0.00000  Uiso   1.00
H354   H     0.66171   0.03884   0.08095   0.00000  Uiso   1.00
H355   H     0.37785   0.08238   0.85153   0.00000  Uiso   1.00
H356   H     0.72911   0.15424   0.94323   0.00000  Uiso   1.00
H357   H     0.71519   0.98588   0.24129   0.00000  Uiso   1.00
H358   H     0.11667   0.07771   0.75752   0.00000  Uiso   1.00
H359   H     0.85736   0.22923   0.95089   0.00000  Uiso   1.00
O360   O     0.64867   0.97597   0.42813   0.00000  Uiso   1.00
O361   O     0.86344   0.09646   0.79345   0.00000  Uiso   1.00
O362   O     0.83521   0.29524   0.04715   0.00000  Uiso   1.00
N363   N     0.53006   0.03153   0.38809   0.00000  Uiso   1.00
N364   N     0.97048   0.11738   0.93581   0.00000  Uiso   1.00
N365   N     0.66294   0.25904   0.11657   0.00000  Uiso   1.00
N366   N     0.65269   0.00468   0.27363   0.00000  Uiso   1.00
N367   N     0.09310   0.09053   0.82135   0.00000  Uiso   1.00
N368   N     0.78556   0.23219   0.00211   0.00000  Uiso   1.00
