data_job_06952
_audit_creation_date              2018-12-19
_audit_creation_method            'Materials Studio'
_symmetry_space_group_name_H-M    'P1'
_symmetry_Int_Tables_number       1
_symmetry_cell_setting            triclinic
loop_
_symmetry_equiv_pos_as_xyz
  x,y,z
_cell_length_a                    21.1666
_cell_length_b                    21.2748
_cell_length_c                    25.9134
_cell_angle_alpha                 91.4002
_cell_angle_beta                  67.5456
_cell_angle_gamma                 61.1812
loop_
_atom_site_label
_atom_site_type_symbol
_atom_site_fract_x
_atom_site_fract_y
_atom_site_fract_z
_atom_site_U_iso_or_equiv
_atom_site_adp_type
_atom_site_occupancy
C1     C     0.20479   0.52961   0.90486   0.00000  Uiso   1.00
C2     C     0.13354   0.54992   0.96280   0.00000  Uiso   1.00
C3     C     0.13329   0.55529   0.01636   0.00000  Uiso   1.00
C4     C     0.06214   0.57457   0.06423   0.00000  Uiso   1.00
C5     C     0.96193   0.60402   0.15504   0.00000  Uiso   1.00
C6     C     0.21995   0.46252   0.86764   0.00000  Uiso   1.00
C7     C     0.29235   0.39441   0.84119   0.00000  Uiso   1.00
C8     C     0.29394   0.34012   0.80894   0.00000  Uiso   1.00
C9     C     0.32790   0.23390   0.75198   0.00000  Uiso   1.00
C10    C     0.17458   0.59331   0.87712   0.00000  Uiso   1.00
C11    C     0.20884   0.63516   0.85863   0.00000  Uiso   1.00
C12    C     0.17223   0.69097   0.83435   0.00000  Uiso   1.00
C13    C     0.13574   0.78782   0.79211   0.00000  Uiso   1.00
C14    C     0.07887   0.55430   0.89461   0.00000  Uiso   1.00
C15    C     0.06516   0.56332   0.95723   0.00000  Uiso   1.00
C16    C     0.99398   0.58260   0.00502   0.00000  Uiso   1.00
C17    C     0.99362   0.58800   0.05865   0.00000  Uiso   1.00
C18    C     0.15156   0.47592   0.86207   0.00000  Uiso   1.00
C19    C     0.15304   0.42172   0.82985   0.00000  Uiso   1.00
C20    C     0.22542   0.35354   0.80336   0.00000  Uiso   1.00
C21    C     0.10619   0.60672   0.87155   0.00000  Uiso   1.00
C22    C     0.06953   0.66247   0.84729   0.00000  Uiso   1.00
C23    C     0.10372   0.70440   0.82877   0.00000  Uiso   1.00
H24    H     0.25803   0.51917   0.90919   0.00000  Uiso   1.00
H25    H     0.18623   0.54491   0.02065   0.00000  Uiso   1.00
H26    H     0.34527   0.38406   0.84550   0.00000  Uiso   1.00
H27    H     0.26176   0.62477   0.86294   0.00000  Uiso   1.00
H28    H     0.07647   0.57933   0.14177   0.00000  Uiso   1.00
H29    H     0.41182   0.24017   0.77244   0.00000  Uiso   1.00
H30    H     0.23574   0.74775   0.80921   0.00000  Uiso   1.00
H31    H     0.02563   0.56473   0.89027   0.00000  Uiso   1.00
H32    H     0.94107   0.59297   0.00070   0.00000  Uiso   1.00
H33    H     0.10011   0.43211   0.82555   0.00000  Uiso   1.00
H34    H     0.01660   0.67283   0.84299   0.00000  Uiso   1.00
H35    H     0.87749   0.61833   0.12558   0.00000  Uiso   1.00
H36    H     0.21284   0.27917   0.75624   0.00000  Uiso   1.00
H37    H     0.03675   0.78676   0.79302   0.00000  Uiso   1.00
O38    O     0.92556   0.61656   0.20666   0.00000  Uiso   1.00
O39    O     0.36553   0.17160   0.72210   0.00000  Uiso   1.00
O40    O     0.13450   0.83754   0.77035   0.00000  Uiso   1.00
N41    N     0.04124   0.58464   0.12281   0.00000  Uiso   1.00
N42    N     0.35477   0.26755   0.77751   0.00000  Uiso   1.00
N43    N     0.19016   0.74209   0.81188   0.00000  Uiso   1.00
N44    N     0.93417   0.60563   0.11410   0.00000  Uiso   1.00
N45    N     0.24770   0.28854   0.76880   0.00000  Uiso   1.00
N46    N     0.08309   0.76308   0.80316   0.00000  Uiso   1.00
C47    C     0.77653   0.23674   0.85747   0.00000  Uiso   1.00
C48    C     0.75100   0.29460   0.90914   0.00000  Uiso   1.00
C49    C     0.70518   0.30168   0.96661   0.00000  Uiso   1.00
C50    C     0.68824   0.35818   0.00749   0.00000  Uiso   1.00
C51    C     0.64433   0.44078   0.09017   0.00000  Uiso   1.00
C52    C     0.74545   0.28012   0.81770   0.00000  Uiso   1.00
C53    C     0.69498   0.27503   0.79828   0.00000  Uiso   1.00
C54    C     0.67338   0.31934   0.76217   0.00000  Uiso   1.00
C55    C     0.62090   0.37943   0.70285   0.00000  Uiso   1.00
C56    C     0.86834   0.19565   0.82528   0.00000  Uiso   1.00
C57    C     0.92120   0.11953   0.81221   0.00000  Uiso   1.00
C58    C     0.00308   0.09272   0.78246   0.00000  Uiso   1.00
C59    C     0.14140   0.02166   0.73491   0.00000  Uiso   1.00
C60    C     0.82793   0.32449   0.82786   0.00000  Uiso   1.00
C61    C     0.77892   0.34225   0.89306   0.00000  Uiso   1.00
C62    C     0.76205   0.39876   0.93386   0.00000  Uiso   1.00
C63    C     0.71622   0.40593   0.99138   0.00000  Uiso   1.00
C64    C     0.77337   0.32778   0.80162   0.00000  Uiso   1.00
C65    C     0.75185   0.37211   0.76552   0.00000  Uiso   1.00
C66    C     0.70135   0.36709   0.74606   0.00000  Uiso   1.00
C67    C     0.89627   0.24331   0.80919   0.00000  Uiso   1.00
C68    C     0.97808   0.21661   0.77946   0.00000  Uiso   1.00
C69    C     0.03105   0.14047   0.76635   0.00000  Uiso   1.00
H70    H     0.75479   0.19964   0.86999   0.00000  Uiso   1.00
H71    H     0.68358   0.26479   0.97904   0.00000  Uiso   1.00
H72    H     0.67339   0.23814   0.81073   0.00000  Uiso   1.00
H73    H     0.89957   0.08267   0.82466   0.00000  Uiso   1.00
H74    H     0.61692   0.35806   0.09285   0.00000  Uiso   1.00
H75    H     0.59545   0.30184   0.73794   0.00000  Uiso   1.00
H76    H     0.07241   0.97400   0.76732   0.00000  Uiso   1.00
H77    H     0.84967   0.36159   0.81534   0.00000  Uiso   1.00
H78    H     0.78367   0.43563   0.92140   0.00000  Uiso   1.00
H79    H     0.77347   0.40898   0.75309   0.00000  Uiso   1.00
H80    H     0.99966   0.25351   0.76702   0.00000  Uiso   1.00
H81    H     0.69815   0.49672   0.04607   0.00000  Uiso   1.00
H82    H     0.67668   0.44050   0.69115   0.00000  Uiso   1.00
H83    H     0.15365   0.11266   0.72054   0.00000  Uiso   1.00
O84    O     0.61238   0.47319   0.14021   0.00000  Uiso   1.00
O85    O     0.58423   0.39941   0.67457   0.00000  Uiso   1.00
O86    O     0.20999   0.96930   0.71312   0.00000  Uiso   1.00
N87    N     0.64511   0.38052   0.06729   0.00000  Uiso   1.00
N88    N     0.62502   0.32797   0.73547   0.00000  Uiso   1.00
N89    N     0.07095   0.02146   0.76293   0.00000  Uiso   1.00
N90    N     0.68882   0.45513   0.04211   0.00000  Uiso   1.00
N91    N     0.66874   0.40258   0.71030   0.00000  Uiso   1.00
N92    N     0.11466   0.09607   0.73775   0.00000  Uiso   1.00
C93    C     0.40428   0.00108   0.78435   0.00000  Uiso   1.00
C94    C     0.37693   0.02340   0.84904   0.00000  Uiso   1.00
C95    C     0.31045   0.09054   0.88708   0.00000  Uiso   1.00
C96    C     0.29560   0.10027   0.94460   0.00000  Uiso   1.00
C97    C     0.24558   0.14339   0.04219   0.00000  Uiso   1.00
C98    C     0.49153   0.98110   0.75460   0.00000  Uiso   1.00
C99    C     0.52140   0.01266   0.71324   0.00000  Uiso   1.00
C100   C     0.60301   0.98678   0.69126   0.00000  Uiso   1.00
C101   C     0.73092   0.96418   0.64221   0.00000  Uiso   1.00
C102   C     0.40731   0.92877   0.77305   0.00000  Uiso   1.00
C103   C     0.36637   0.91632   0.74719   0.00000  Uiso   1.00
C104   C     0.37709   0.84636   0.74073   0.00000  Uiso   1.00
C105   C     0.37422   0.74251   0.72031   0.00000  Uiso   1.00
C106   C     0.49611   0.89898   0.81885   0.00000  Uiso   1.00
C107   C     0.42682   0.96795   0.86777   0.00000  Uiso   1.00
C108   C     0.41205   0.97758   0.92525   0.00000  Uiso   1.00
C109   C     0.34556   0.04472   0.96338   0.00000  Uiso   1.00
C110   C     0.54141   0.92565   0.77334   0.00000  Uiso   1.00
C111   C     0.62300   0.89970   0.75141   0.00000  Uiso   1.00
C112   C     0.65298   0.93122   0.71004   0.00000  Uiso   1.00
C113   C     0.45718   0.87331   0.79179   0.00000  Uiso   1.00
C114   C     0.46797   0.80336   0.78536   0.00000  Uiso   1.00
C115   C     0.42706   0.79080   0.75950   0.00000  Uiso   1.00
H116   H     0.36545   0.04425   0.76976   0.00000  Uiso   1.00
H117   H     0.27187   0.13345   0.87256   0.00000  Uiso   1.00
H118   H     0.48279   0.05557   0.69875   0.00000  Uiso   1.00
H119   H     0.32778   0.95924   0.73269   0.00000  Uiso   1.00
H120   H     0.19014   0.20789   0.99480   0.00000  Uiso   1.00
H121   H     0.63487   0.04367   0.62829   0.00000  Uiso   1.00
H122   H     0.30801   0.84054   0.69986   0.00000  Uiso   1.00
H123   H     0.53495   0.85580   0.83344   0.00000  Uiso   1.00
H124   H     0.45066   0.93465   0.93974   0.00000  Uiso   1.00
H125   H     0.66158   0.85678   0.76592   0.00000  Uiso   1.00
H126   H     0.50658   0.76045   0.79987   0.00000  Uiso   1.00
H127   H     0.33525   0.04654   0.04933   0.00000  Uiso   1.00
H128   H     0.77999   0.88232   0.68281   0.00000  Uiso   1.00
H129   H     0.45313   0.67920   0.75438   0.00000  Uiso   1.00
O130   O     0.20421   0.18249   0.09084   0.00000  Uiso   1.00
O131   O     0.78768   0.96704   0.60998   0.00000  Uiso   1.00
O132   O     0.35885   0.70054   0.70389   0.00000  Uiso   1.00
N133   N     0.23585   0.15909   0.99305   0.00000  Uiso   1.00
N134   N     0.65164   0.00556   0.65038   0.00000  Uiso   1.00
N135   N     0.34607   0.81565   0.71728   0.00000  Uiso   1.00
N136   N     0.31393   0.07227   0.02239   0.00000  Uiso   1.00
N137   N     0.72973   0.91875   0.67972   0.00000  Uiso   1.00
N138   N     0.42416   0.72883   0.74662   0.00000  Uiso   1.00
C139   C     0.75293   0.44705   0.33636   0.00000  Uiso   1.00
C140   C     0.71283   0.45319   0.40080   0.00000  Uiso   1.00
C141   C     0.65930   0.51879   0.44432   0.00000  Uiso   1.00
C142   C     0.62923   0.51262   0.50056   0.00000  Uiso   1.00
C143   C     0.56347   0.53269   0.59875   0.00000  Uiso   1.00
C144   C     0.73102   0.40276   0.30726   0.00000  Uiso   1.00
C145   C     0.69279   0.42596   0.27214   0.00000  Uiso   1.00
C146   C     0.67806   0.37734   0.24964   0.00000  Uiso   1.00
C147   C     0.64060   0.31909   0.20259   0.00000  Uiso   1.00
C148   C     0.84359   0.39777   0.31643   0.00000  Uiso   1.00
C149   C     0.90003   0.41676   0.28900   0.00000  Uiso   1.00
C150   C     0.98007   0.36393   0.27421   0.00000  Uiso   1.00
C151   C     0.11739   0.29793   0.24140   0.00000  Uiso   1.00
C152   C     0.79474   0.31945   0.35885   0.00000  Uiso   1.00
C153   C     0.73553   0.38388   0.41301   0.00000  Uiso   1.00
C154   C     0.70555   0.37761   0.46920   0.00000  Uiso   1.00
C155   C     0.65198   0.44319   0.51280   0.00000  Uiso   1.00
C156   C     0.75372   0.33346   0.31948   0.00000  Uiso   1.00
C157   C     0.73904   0.28478   0.29702   0.00000  Uiso   1.00
C158   C     0.70080   0.30790   0.26188   0.00000  Uiso   1.00
C159   C     0.86630   0.32846   0.32865   0.00000  Uiso   1.00
C160   C     0.94627   0.27559   0.31389   0.00000  Uiso   1.00
C161   C     0.00282   0.29449   0.28645   0.00000  Uiso   1.00
H162   H     0.73525   0.50101   0.32685   0.00000  Uiso   1.00
H163   H     0.64173   0.57241   0.43485   0.00000  Uiso   1.00
H164   H     0.67524   0.47959   0.26269   0.00000  Uiso   1.00
H165   H     0.88243   0.47040   0.27956   0.00000  Uiso   1.00
H166   H     0.54804   0.62101   0.55997   0.00000  Uiso   1.00
H167   H     0.61871   0.42529   0.19695   0.00000  Uiso   1.00
H168   H     0.05562   0.40589   0.23252   0.00000  Uiso   1.00
H169   H     0.81241   0.26549   0.36836   0.00000  Uiso   1.00
H170   H     0.72313   0.32397   0.47864   0.00000  Uiso   1.00
H171   H     0.75663   0.23115   0.30649   0.00000  Uiso   1.00
H172   H     0.96382   0.22196   0.32335   0.00000  Uiso   1.00
H173   H     0.61410   0.41937   0.59551   0.00000  Uiso   1.00
H174   H     0.68477   0.22364   0.23250   0.00000  Uiso   1.00
H175   H     0.12168   0.20425   0.26807   0.00000  Uiso   1.00
O176   O     0.52092   0.56291   0.64954   0.00000  Uiso   1.00
O177   O     0.61365   0.30612   0.17327   0.00000  Uiso   1.00
O178   O     0.18687   0.28068   0.21993   0.00000  Uiso   1.00
N179   N     0.57585   0.56553   0.55320   0.00000  Uiso   1.00
N180   N     0.64191   0.38254   0.21381   0.00000  Uiso   1.00
N181   N     0.05039   0.36441   0.24705   0.00000  Uiso   1.00
N182   N     0.61140   0.45703   0.57233   0.00000  Uiso   1.00
N183   N     0.67746   0.27404   0.23294   0.00000  Uiso   1.00
N184   N     0.08594   0.25590   0.26617   0.00000  Uiso   1.00
C185   C     0.39610   0.01848   0.28821   0.00000  Uiso   1.00
C186   C     0.37092   0.02557   0.35265   0.00000  Uiso   1.00
C187   C     0.30709   0.02125   0.39123   0.00000  Uiso   1.00
C188   C     0.29389   0.02913   0.44840   0.00000  Uiso   1.00
C189   C     0.24737   0.03830   0.54573   0.00000  Uiso   1.00
C190   C     0.48457   0.95553   0.25731   0.00000  Uiso   1.00
C191   C     0.51628   0.89233   0.21572   0.00000  Uiso   1.00
C192   C     0.59875   0.84126   0.19262   0.00000  Uiso   1.00
C193   C     0.72868   0.74174   0.14190   0.00000  Uiso   1.00
C194   C     0.39456   0.08918   0.27724   0.00000  Uiso   1.00
C195   C     0.35062   0.13835   0.25240   0.00000  Uiso   1.00
C196   C     0.35734   0.19980   0.24608   0.00000  Uiso   1.00
C197   C     0.34752   0.30779   0.22631   0.00000  Uiso   1.00
C198   C     0.48619   0.04015   0.32114   0.00000  Uiso   1.00
C199   C     0.41986   0.03734   0.37053   0.00000  Uiso   1.00
C200   C     0.40675   0.04523   0.42766   0.00000  Uiso   1.00
C201   C     0.34291   0.04092   0.46632   0.00000  Uiso   1.00
C202   C     0.53350   0.96730   0.27519   0.00000  Uiso   1.00
C203   C     0.61595   0.91631   0.25215   0.00000  Uiso   1.00
C204   C     0.64777   0.85306   0.21054   0.00000  Uiso   1.00
C205   C     0.44349   0.10096   0.29513   0.00000  Uiso   1.00
C206   C     0.45029   0.16233   0.28883   0.00000  Uiso   1.00
C207   C     0.40636   0.21159   0.26399   0.00000  Uiso   1.00
H208   H     0.35801   0.00931   0.27429   0.00000  Uiso   1.00
H209   H     0.26924   0.01213   0.37737   0.00000  Uiso   1.00
H210   H     0.47840   0.88324   0.20188   0.00000  Uiso   1.00
H211   H     0.31276   0.12922   0.23857   0.00000  Uiso   1.00
H212   H     0.19241   0.02042   0.49955   0.00000  Uiso   1.00
H213   H     0.63344   0.74867   0.12950   0.00000  Uiso   1.00
H214   H     0.28417   0.26737   0.20685   0.00000  Uiso   1.00
H215   H     0.52429   0.04932   0.33506   0.00000  Uiso   1.00
H216   H     0.44463   0.05434   0.44149   0.00000  Uiso   1.00
H217   H     0.65379   0.92545   0.26599   0.00000  Uiso   1.00
H218   H     0.48816   0.17143   0.30268   0.00000  Uiso   1.00
H219   H     0.33477   0.05467   0.55158   0.00000  Uiso   1.00
H220   H     0.77580   0.78292   0.18153   0.00000  Uiso   1.00
H221   H     0.42653   0.30162   0.25889   0.00000  Uiso   1.00
O222   O     0.20820   0.04010   0.59448   0.00000  Uiso   1.00
O223   O     0.78682   0.68358   0.10898   0.00000  Uiso   1.00
O224   O     0.32858   0.36410   0.21047   0.00000  Uiso   1.00
N225   N     0.23683   0.02781   0.49719   0.00000  Uiso   1.00
N226   N     0.64917   0.77373   0.15123   0.00000  Uiso   1.00
N227   N     0.32265   0.25866   0.22353   0.00000  Uiso   1.00
N228   N     0.31343   0.04624   0.52519   0.00000  Uiso   1.00
N229   N     0.72577   0.79216   0.17923   0.00000  Uiso   1.00
N230   N     0.39925   0.27709   0.25153   0.00000  Uiso   1.00
C231   C     0.19554   0.68432   0.36582   0.00000  Uiso   1.00
C232   C     0.12887   0.73492   0.42543   0.00000  Uiso   1.00
C233   C     0.13192   0.72628   0.47749   0.00000  Uiso   1.00
C234   C     0.06471   0.77848   0.52731   0.00000  Uiso   1.00
C235   C     0.97151   0.84814   0.62021   0.00000  Uiso   1.00
C236   C     0.21507   0.73431   0.33041   0.00000  Uiso   1.00
C237   C     0.29060   0.72514   0.30258   0.00000  Uiso   1.00
C238   C     0.29596   0.77683   0.27241   0.00000  Uiso   1.00
C239   C     0.33659   0.84551   0.21776   0.00000  Uiso   1.00
C240   C     0.15718   0.65780   0.33879   0.00000  Uiso   1.00
C241   C     0.18405   0.58430   0.31799   0.00000  Uiso   1.00
C242   C     0.14068   0.57157   0.29486   0.00000  Uiso   1.00
C243   C     0.09143   0.52145   0.25322   0.00000  Uiso   1.00
C244   C     0.07075   0.79239   0.36170   0.00000  Uiso   1.00
C245   C     0.06109   0.79362   0.42319   0.00000  Uiso   1.00
C246   C     0.99385   0.84585   0.47294   0.00000  Uiso   1.00
C247   C     0.99681   0.83728   0.52507   0.00000  Uiso   1.00
C248   C     0.14729   0.79301   0.32817   0.00000  Uiso   1.00
C249   C     0.15253   0.84472   0.29803   0.00000  Uiso   1.00
C250   C     0.22805   0.83564   0.27017   0.00000  Uiso   1.00
C251   C     0.08939   0.71650   0.33655   0.00000  Uiso   1.00
C252   C     0.04597   0.70387   0.31344   0.00000  Uiso   1.00
C253   C     0.07277   0.63037   0.29262   0.00000  Uiso   1.00
H254   H     0.24832   0.63862   0.36755   0.00000  Uiso   1.00
H255   H     0.18440   0.68084   0.47921   0.00000  Uiso   1.00
H256   H     0.34305   0.67971   0.30432   0.00000  Uiso   1.00
H257   H     0.23651   0.53889   0.31973   0.00000  Uiso   1.00
H258   H     0.08364   0.75356   0.60201   0.00000  Uiso   1.00
H259   H     0.41818   0.75115   0.23323   0.00000  Uiso   1.00
H260   H     0.19352   0.45420   0.26573   0.00000  Uiso   1.00
H261   H     0.01797   0.83810   0.35995   0.00000  Uiso   1.00
H262   H     0.94140   0.89127   0.47119   0.00000  Uiso   1.00
H263   H     0.10006   0.89013   0.29630   0.00000  Uiso   1.00
H264   H     0.99352   0.74931   0.31172   0.00000  Uiso   1.00
H265   H     0.88642   0.92435   0.59550   0.00000  Uiso   1.00
H266   H     0.22096   0.92194   0.22672   0.00000  Uiso   1.00
H267   H     0.99630   0.62500   0.25922   0.00000  Uiso   1.00
O268   O     0.93883   0.87035   0.67207   0.00000  Uiso   1.00
O269   O     0.37773   0.86718   0.18824   0.00000  Uiso   1.00
O270   O     0.08298   0.47759   0.23088   0.00000  Uiso   1.00
N271   N     0.04773   0.78645   0.58521   0.00000  Uiso   1.00
N272   N     0.36050   0.78420   0.24043   0.00000  Uiso   1.00
N273   N     0.15047   0.50658   0.27080   0.00000  Uiso   1.00
N274   N     0.94161   0.87835   0.58171   0.00000  Uiso   1.00
N275   N     0.25438   0.87611   0.23693   0.00000  Uiso   1.00
N276   N     0.04435   0.59848   0.26730   0.00000  Uiso   1.00
C277   C     0.86379   0.33966   0.09346   0.00000  Uiso   1.00
C278   C     0.93044   0.32385   0.03417   0.00000  Uiso   1.00
C279   C     0.92834   0.31434   0.98180   0.00000  Uiso   1.00
C280   C     0.99535   0.30034   0.93236   0.00000  Uiso   1.00
C281   C     0.08868   0.27648   0.83987   0.00000  Uiso   1.00
C282   C     0.84210   0.41127   0.12931   0.00000  Uiso   1.00
C283   C     0.76571   0.47526   0.15695   0.00000  Uiso   1.00
C284   C     0.75834   0.53484   0.18760   0.00000  Uiso   1.00
C285   C     0.71450   0.64668   0.24285   0.00000  Uiso   1.00
C286   C     0.90294   0.27841   0.12054   0.00000  Uiso   1.00
C287   C     0.87771   0.23070   0.14082   0.00000  Uiso   1.00
C288   C     0.92156   0.17843   0.16410   0.00000  Uiso   1.00
C289   C     0.97220   0.08400   0.20573   0.00000  Uiso   1.00
C290   C     0.98653   0.33169   0.09878   0.00000  Uiso   1.00
C291   C     0.99711   0.31952   0.03706   0.00000  Uiso   1.00
C292   C     0.06414   0.30552   0.98769   0.00000  Uiso   1.00
C293   C     0.06214   0.29600   0.93526   0.00000  Uiso   1.00
C294   C     0.90876   0.40694   0.13220   0.00000  Uiso   1.00
C295   C     0.90151   0.46644   0.16283   0.00000  Uiso   1.00
C296   C     0.82513   0.53050   0.19050   0.00000  Uiso   1.00
C297   C     0.96962   0.27408   0.12343   0.00000  Uiso   1.00
C298   C     0.01351   0.22188   0.14670   0.00000  Uiso   1.00
C299   C     0.98835   0.17410   0.16700   0.00000  Uiso   1.00
H300   H     0.81188   0.34304   0.09121   0.00000  Uiso   1.00
H301   H     0.87673   0.31770   0.97959   0.00000  Uiso   1.00
H302   H     0.71413   0.47859   0.15471   0.00000  Uiso   1.00
H303   H     0.82611   0.23407   0.13857   0.00000  Uiso   1.00
H304   H     0.97802   0.28773   0.85710   0.00000  Uiso   1.00
H305   H     0.63515   0.62696   0.22637   0.00000  Uiso   1.00
H306   H     0.87129   0.11134   0.19235   0.00000  Uiso   1.00
H307   H     0.03844   0.32832   0.10103   0.00000  Uiso   1.00
H308   H     0.11572   0.30218   0.98994   0.00000  Uiso   1.00
H309   H     0.95311   0.46307   0.16506   0.00000  Uiso   1.00
H310   H     0.06510   0.21855   0.14893   0.00000  Uiso   1.00
H311   H     0.17199   0.27514   0.86551   0.00000  Uiso   1.00
H312   H     0.82911   0.61437   0.23477   0.00000  Uiso   1.00
H313   H     0.06526   0.09875   0.20076   0.00000  Uiso   1.00
O314   O     0.12174   0.26453   0.78805   0.00000  Uiso   1.00
O315   O     0.67190   0.70958   0.27252   0.00000  Uiso   1.00
O316   O     0.98173   0.03310   0.22789   0.00000  Uiso   1.00
N317   N     0.01307   0.28834   0.87432   0.00000  Uiso   1.00
N318   N     0.69251   0.60550   0.21956   0.00000  Uiso   1.00
N319   N     0.91327   0.12346   0.18777   0.00000  Uiso   1.00
N320   N     0.11744   0.28156   0.87885   0.00000  Uiso   1.00
N321   N     0.79688   0.59873   0.22408   0.00000  Uiso   1.00
N322   N     0.01765   0.11668   0.19229   0.00000  Uiso   1.00
C323   C     0.27922   0.71636   0.10968   0.00000  Uiso   1.00
C324   C     0.31994   0.68649   0.04424   0.00000  Uiso   1.00
C325   C     0.36999   0.70472   0.00418   0.00000  Uiso   1.00
C326   C     0.40132   0.67143   0.94628   0.00000  Uiso   1.00
C327   C     0.46735   0.63259   0.84727   0.00000  Uiso   1.00
C328   C     0.30580   0.64851   0.13391   0.00000  Uiso   1.00
C329   C     0.34394   0.63481   0.16925   0.00000  Uiso   1.00
C330   C     0.36336   0.56956   0.18684   0.00000  Uiso   1.00
C331   C     0.40737   0.47178   0.22708   0.00000  Uiso   1.00
C332   C     0.18907   0.75135   0.12926   0.00000  Uiso   1.00
C333   C     0.12905   0.82412   0.16070   0.00000  Uiso   1.00
C334   C     0.05019   0.84545   0.17438   0.00000  Uiso   1.00
C335   C     0.91296   0.90735   0.20740   0.00000  Uiso   1.00
C336   C     0.24587   0.62484   0.07810   0.00000  Uiso   1.00
C337   C     0.30183   0.63678   0.02709   0.00000  Uiso   1.00
C338   C     0.33310   0.60346   0.96923   0.00000  Uiso   1.00
C339   C     0.38318   0.62164   0.92909   0.00000  Uiso   1.00
C340   C     0.28769   0.59880   0.11675   0.00000  Uiso   1.00
C341   C     0.30705   0.53356   0.13430   0.00000  Uiso   1.00
C342   C     0.34522   0.51976   0.16965   0.00000  Uiso   1.00
C343   C     0.17096   0.70164   0.11210   0.00000  Uiso   1.00
C344   C     0.09217   0.72286   0.12575   0.00000  Uiso   1.00
C345   C     0.03205   0.79565   0.15720   0.00000  Uiso   1.00
H346   H     0.29332   0.75506   0.12304   0.00000  Uiso   1.00
H347   H     0.38399   0.74319   0.01747   0.00000  Uiso   1.00
H348   H     0.35794   0.67330   0.18252   0.00000  Uiso   1.00
H349   H     0.14309   0.86258   0.17397   0.00000  Uiso   1.00
H350   H     0.47656   0.70808   0.89286   0.00000  Uiso   1.00
H351   H     0.42160   0.56073   0.24089   0.00000  Uiso   1.00
H352   H     0.96855   0.95986   0.22286   0.00000  Uiso   1.00
H353   H     0.23177   0.58613   0.06474   0.00000  Uiso   1.00
H354   H     0.31907   0.56499   0.95597   0.00000  Uiso   1.00
H355   H     0.29302   0.49510   0.12102   0.00000  Uiso   1.00
H356   H     0.07818   0.68438   0.11246   0.00000  Uiso   1.00
H357   H     0.42388   0.56345   0.84294   0.00000  Uiso   1.00
H358   H     0.36891   0.41610   0.19097   0.00000  Uiso   1.00
H359   H     0.91586   0.81523   0.17294   0.00000  Uiso   1.00
O360   O     0.50878   0.62488   0.79740   0.00000  Uiso   1.00
O361   O     0.43666   0.43158   0.25401   0.00000  Uiso   1.00
O362   O     0.84227   0.95522   0.23034   0.00000  Uiso   1.00
N363   N     0.45217   0.67695   0.89604   0.00000  Uiso   1.00
N364   N     0.40080   0.53918   0.22142   0.00000  Uiso   1.00
N365   N     0.97723   0.91233   0.20457   0.00000  Uiso   1.00
N366   N     0.42382   0.59913   0.86918   0.00000  Uiso   1.00
N367   N     0.37244   0.46136   0.19456   0.00000  Uiso   1.00
N368   N     0.94888   0.83451   0.17771   0.00000  Uiso   1.00
C369   C     0.62779   0.94478   0.05301   0.00000  Uiso   1.00
C370   C     0.65704   0.94058   0.98862   0.00000  Uiso   1.00
C371   C     0.71147   0.87603   0.94410   0.00000  Uiso   1.00
C372   C     0.73049   0.88393   0.88809   0.00000  Uiso   1.00
C373   C     0.78108   0.86675   0.78979   0.00000  Uiso   1.00
C374   C     0.53596   0.98620   0.07950   0.00000  Uiso   1.00
C375   C     0.48861   0.96002   0.11140   0.00000  Uiso   1.00
C376   C     0.40570   0.00633   0.13190   0.00000  Uiso   1.00
C377   C     0.26832   0.06001   0.17473   0.00000  Uiso   1.00
C378   C     0.64717   0.99583   0.07699   0.00000  Uiso   1.00
C379   C     0.69329   0.97776   0.10679   0.00000  Uiso   1.00
C380   C     0.70400   0.03219   0.12519   0.00000  Uiso   1.00
C381   C     0.73927   0.10082   0.16412   0.00000  Uiso   1.00
C382   C     0.56476   0.07358   0.03270   0.00000  Uiso   1.00
C383   C     0.62280   0.01054   0.97759   0.00000  Uiso   1.00
C384   C     0.64174   0.01853   0.92164   0.00000  Uiso   1.00
C385   C     0.69619   0.95401   0.87704   0.00000  Uiso   1.00
C386   C     0.50173   0.05616   0.06847   0.00000  Uiso   1.00
C387   C     0.41887   0.10252   0.08893   0.00000  Uiso   1.00
C388   C     0.37140   0.07642   0.12085   0.00000  Uiso   1.00
C389   C     0.61293   0.06579   0.06596   0.00000  Uiso   1.00
C390   C     0.62356   0.12026   0.08432   0.00000  Uiso   1.00
C391   C     0.66970   0.10227   0.11414   0.00000  Uiso   1.00
H392   H     0.65444   0.89032   0.06160   0.00000  Uiso   1.00
H393   H     0.73795   0.82190   0.95266   0.00000  Uiso   1.00
H394   H     0.51512   0.90588   0.11993   0.00000  Uiso   1.00
H395   H     0.71977   0.92362   0.11532   0.00000  Uiso   1.00
H396   H     0.81541   0.77690   0.82701   0.00000  Uiso   1.00
H397   H     0.34557   0.95399   0.17974   0.00000  Uiso   1.00
H398   H     0.77712   0.99139   0.17002   0.00000  Uiso   1.00
H399   H     0.53810   0.12805   0.02412   0.00000  Uiso   1.00
H400   H     0.61523   0.07268   0.91311   0.00000  Uiso   1.00
H401   H     0.39240   0.15666   0.08039   0.00000  Uiso   1.00
H402   H     0.59706   0.17439   0.07578   0.00000  Uiso   1.00
H403   H     0.71581   0.98044   0.79492   0.00000  Uiso   1.00
H404   H     0.24596   0.15753   0.14765   0.00000  Uiso   1.00
H405   H     0.67752   0.19493   0.13792   0.00000  Uiso   1.00
O406   O     0.81843   0.83795   0.73862   0.00000  Uiso   1.00
O407   O     0.20201   0.07029   0.20139   0.00000  Uiso   1.00
O408   O     0.76820   0.11935   0.18863   0.00000  Uiso   1.00
N409   N     0.78140   0.83240   0.83469   0.00000  Uiso   1.00
N410   N     0.34212   0.99796   0.16446   0.00000  Uiso   1.00
N411   N     0.74557   0.03294   0.15539   0.00000  Uiso   1.00
N412   N     0.72780   0.94192   0.81742   0.00000  Uiso   1.00
N413   N     0.28853   0.10749   0.14719   0.00000  Uiso   1.00
N414   N     0.69198   0.14246   0.13812   0.00000  Uiso   1.00
C415   C     0.29652   0.40514   0.60019   0.00000  Uiso   1.00
C416   C     0.35755   0.37927   0.53670   0.00000  Uiso   1.00
C417   C     0.40338   0.30733   0.50205   0.00000  Uiso   1.00
C418   C     0.45581   0.29496   0.44509   0.00000  Uiso   1.00
C419   C     0.54965   0.24603   0.34978   0.00000  Uiso   1.00
C420   C     0.32309   0.44068   0.63245   0.00000  Uiso   1.00
C421   C     0.33993   0.42038   0.67831   0.00000  Uiso   1.00
C422   C     0.36334   0.45971   0.70195   0.00000  Uiso   1.00
C423   C     0.40363   0.50616   0.75532   0.00000  Uiso   1.00
C424   C     0.21687   0.46808   0.60432   0.00000  Uiso   1.00
C425   C     0.14439   0.47082   0.62655   0.00000  Uiso   1.00
C426   C     0.07835   0.53323   0.62653   0.00000  Uiso   1.00
C427   C     0.95371   0.62222   0.63624   0.00000  Uiso   1.00
C428   C     0.30814   0.51110   0.56064   0.00000  Uiso   1.00
C429   C     0.36387   0.43683   0.51522   0.00000  Uiso   1.00
C430   C     0.41624   0.42456   0.45830   0.00000  Uiso   1.00
C431   C     0.46213   0.35262   0.42357   0.00000  Uiso   1.00
C432   C     0.32941   0.49824   0.61097   0.00000  Uiso   1.00
C433   C     0.35279   0.53761   0.63455   0.00000  Uiso   1.00
C434   C     0.36967   0.51737   0.68043   0.00000  Uiso   1.00
C435   C     0.22318   0.52563   0.58284   0.00000  Uiso   1.00
C436   C     0.15725   0.58806   0.58279   0.00000  Uiso   1.00
C437   C     0.08468   0.59089   0.60502   0.00000  Uiso   1.00
H438   H     0.29160   0.36033   0.61692   0.00000  Uiso   1.00
H439   H     0.39848   0.26280   0.51869   0.00000  Uiso   1.00
H440   H     0.33504   0.37584   0.69492   0.00000  Uiso   1.00
H441   H     0.13952   0.42627   0.64317   0.00000  Uiso   1.00
H442   H     0.51978   0.18005   0.40033   0.00000  Uiso   1.00
H443   H     0.38598   0.41841   0.77193   0.00000  Uiso   1.00
H444   H     0.97370   0.52476   0.66281   0.00000  Uiso   1.00
H445   H     0.31305   0.55591   0.54392   0.00000  Uiso   1.00
H446   H     0.42111   0.46911   0.44169   0.00000  Uiso   1.00
H447   H     0.35766   0.58215   0.61792   0.00000  Uiso   1.00
H448   H     0.16215   0.63258   0.56617   0.00000  Uiso   1.00
H449   H     0.53815   0.34750   0.33783   0.00000  Uiso   1.00
H450   H     0.40434   0.58586   0.70943   0.00000  Uiso   1.00
H451   H     0.99207   0.69221   0.60031   0.00000  Uiso   1.00
O452   O     0.59968   0.20314   0.30315   0.00000  Uiso   1.00
O453   O     0.42412   0.51587   0.79069   0.00000  Uiso   1.00
O454   O     0.88322   0.65539   0.64752   0.00000  Uiso   1.00
N455   N     0.50926   0.23137   0.39964   0.00000  Uiso   1.00
N456   N     0.38418   0.45422   0.74707   0.00000  Uiso   1.00
N457   N     0.99873   0.55366   0.64506   0.00000  Uiso   1.00
N458   N     0.51915   0.32148   0.36601   0.00000  Uiso   1.00
N459   N     0.39406   0.54432   0.71344   0.00000  Uiso   1.00
N460   N     0.00861   0.64376   0.61143   0.00000  Uiso   1.00
C461   C     0.65838   0.84991   0.53022   0.00000  Uiso   1.00
C462   C     0.68395   0.83047   0.46560   0.00000  Uiso   1.00
C463   C     0.73498   0.84585   0.42340   0.00000  Uiso   1.00
C464   C     0.75096   0.82355   0.36673   0.00000  Uiso   1.00
C465   C     0.79578   0.79894   0.26853   0.00000  Uiso   1.00
C466   C     0.56635   0.89634   0.55965   0.00000  Uiso   1.00
C467   C     0.51850   0.96712   0.59652   0.00000  Uiso   1.00
C468   C     0.43548   0.00027   0.61903   0.00000  Uiso   1.00
C469   C     0.29772   0.07790   0.66686   0.00000  Uiso   1.00
C470   C     0.68211   0.77702   0.54786   0.00000  Uiso   1.00
C471   C     0.73157   0.74747   0.57484   0.00000  Uiso   1.00
C472   C     0.74599   0.68016   0.58743   0.00000  Uiso   1.00
C473   C     0.78796   0.57252   0.61696   0.00000  Uiso   1.00
C474   C     0.59602   0.78293   0.50463   0.00000  Uiso   1.00
C475   C     0.65008   0.79409   0.45171   0.00000  Uiso   1.00
C476   C     0.66599   0.77175   0.39509   0.00000  Uiso   1.00
C477   C     0.71703   0.78711   0.35281   0.00000  Uiso   1.00
C478   C     0.53248   0.85997   0.54575   0.00000  Uiso   1.00
C479   C     0.44951   0.89302   0.56822   0.00000  Uiso   1.00
C480   C     0.40154   0.96382   0.60511   0.00000  Uiso   1.00
C481   C     0.64824   0.74064   0.53396   0.00000  Uiso   1.00
C482   C     0.66258   0.67336   0.54653   0.00000  Uiso   1.00
C483   C     0.71206   0.64371   0.57351   0.00000  Uiso   1.00
H484   H     0.68475   0.87823   0.54104   0.00000  Uiso   1.00
H485   H     0.76118   0.87402   0.43417   0.00000  Uiso   1.00
H486   H     0.54473   0.99525   0.60727   0.00000  Uiso   1.00
H487   H     0.75777   0.77563   0.58559   0.00000  Uiso   1.00
H488   H     0.83095   0.85332   0.30957   0.00000  Uiso   1.00
H489   H     0.37456   0.10895   0.67457   0.00000  Uiso   1.00
H490   H     0.82379   0.64584   0.62885   0.00000  Uiso   1.00
H491   H     0.56965   0.75461   0.49381   0.00000  Uiso   1.00
H492   H     0.63977   0.74360   0.38435   0.00000  Uiso   1.00
H493   H     0.42332   0.86485   0.55745   0.00000  Uiso   1.00
H494   H     0.63636   0.64523   0.53577   0.00000  Uiso   1.00
H495   H     0.73241   0.74748   0.26913   0.00000  Uiso   1.00
H496   H     0.27601   0.00311   0.63414   0.00000  Uiso   1.00
H497   H     0.72525   0.54000   0.58841   0.00000  Uiso   1.00
O498   O     0.82986   0.79542   0.21820   0.00000  Uiso   1.00
O499   O     0.23109   0.13078   0.69708   0.00000  Uiso   1.00
O500   O     0.82048   0.52319   0.63708   0.00000  Uiso   1.00
N501   N     0.79815   0.82991   0.31507   0.00000  Uiso   1.00
N502   N     0.37145   0.06891   0.65632   0.00000  Uiso   1.00
N503   N     0.79143   0.63595   0.61359   0.00000  Uiso   1.00
N504   N     0.74512   0.77295   0.29331   0.00000  Uiso   1.00
N505   N     0.31842   0.01196   0.63457   0.00000  Uiso   1.00
N506   N     0.73840   0.57900   0.59183   0.00000  Uiso   1.00
C507   C     0.87085   0.21378   0.56818   0.00000  Uiso   1.00
C508   C     0.93520   0.15907   0.50949   0.00000  Uiso   1.00
C509   C     0.93000   0.16335   0.45777   0.00000  Uiso   1.00
C510   C     0.99529   0.10786   0.40881   0.00000  Uiso   1.00
C511   C     0.08484   0.03167   0.31727   0.00000  Uiso   1.00
C512   C     0.85076   0.16783   0.60820   0.00000  Uiso   1.00
C513   C     0.77455   0.17948   0.63948   0.00000  Uiso   1.00
C514   C     0.76875   0.13137   0.67362   0.00000  Uiso   1.00
C515   C     0.72720   0.06881   0.73536   0.00000  Uiso   1.00
C516   C     0.91239   0.24169   0.59029   0.00000  Uiso   1.00
C517   C     0.88800   0.31543   0.60652   0.00000  Uiso   1.00
C518   C     0.93408   0.32951   0.62560   0.00000  Uiso   1.00
C519   C     0.98821   0.38161   0.65953   0.00000  Uiso   1.00
C520   C     0.99605   0.10763   0.57321   0.00000  Uiso   1.00
C521   C     0.00320   0.10142   0.51222   0.00000  Uiso   1.00
C522   C     0.06852   0.04591   0.46333   0.00000  Uiso   1.00
C523   C     0.06341   0.05010   0.41154   0.00000  Uiso   1.00
C524   C     0.91875   0.11018   0.61093   0.00000  Uiso   1.00
C525   C     0.91307   0.06205   0.64504   0.00000  Uiso   1.00
C526   C     0.83688   0.07362   0.67635   0.00000  Uiso   1.00
C527   C     0.98039   0.18403   0.59302   0.00000  Uiso   1.00
C528   C     0.02651   0.19799   0.61208   0.00000  Uiso   1.00
C529   C     0.00220   0.27175   0.62833   0.00000  Uiso   1.00
H530   H     0.81791   0.25866   0.56605   0.00000  Uiso   1.00
H531   H     0.87736   0.20797   0.45567   0.00000  Uiso   1.00
H532   H     0.72194   0.22411   0.63736   0.00000  Uiso   1.00
H533   H     0.83537   0.36003   0.60440   0.00000  Uiso   1.00
H534   H     0.97325   0.12633   0.33450   0.00000  Uiso   1.00
H535   H     0.64553   0.16037   0.71761   0.00000  Uiso   1.00
H536   H     0.88472   0.44700   0.64812   0.00000  Uiso   1.00
H537   H     0.04899   0.06275   0.57533   0.00000  Uiso   1.00
H538   H     0.12113   0.00130   0.46546   0.00000  Uiso   1.00
H539   H     0.96570   0.01744   0.64714   0.00000  Uiso   1.00
H540   H     0.07913   0.15337   0.61419   0.00000  Uiso   1.00
H541   H     0.17110   0.95859   0.34244   0.00000  Uiso   1.00
H542   H     0.84338   0.99263   0.72555   0.00000  Uiso   1.00
H543   H     0.08256   0.27926   0.65606   0.00000  Uiso   1.00
O544   O     0.11545   0.00556   0.26603   0.00000  Uiso   1.00
O545   O     0.68549   0.05023   0.76866   0.00000  Uiso   1.00
O546   O     0.99930   0.42628   0.67749   0.00000  Uiso   1.00
N547   N     0.00993   0.09529   0.35145   0.00000  Uiso   1.00
N548   N     0.70353   0.12711   0.70962   0.00000  Uiso   1.00
N549   N     0.92713   0.39509   0.64467   0.00000  Uiso   1.00
N550   N     0.11639   0.00503   0.35572   0.00000  Uiso   1.00
N551   N     0.80999   0.03685   0.71390   0.00000  Uiso   1.00
N552   N     0.03359   0.30483   0.64895   0.00000  Uiso   1.00
