data_job_06105
_audit_creation_date              2018-12-19
_audit_creation_method            'Materials Studio'
_symmetry_space_group_name_H-M    'P1'
_symmetry_Int_Tables_number       1
_symmetry_cell_setting            triclinic
loop_
_symmetry_equiv_pos_as_xyz
  x,y,z
_cell_length_a                    8.4555
_cell_length_b                    22.9627
_cell_length_c                    23.3653
_cell_angle_alpha                 118.4490
_cell_angle_beta                  81.4508
_cell_angle_gamma                 86.4165
loop_
_atom_site_label
_atom_site_type_symbol
_atom_site_fract_x
_atom_site_fract_y
_atom_site_fract_z
_atom_site_U_iso_or_equiv
_atom_site_adp_type
_atom_site_occupancy
C1     C     0.67500   0.98176   0.67447   0.00000  Uiso   1.00
C2     C     0.76310   0.94174   0.70003   0.00000  Uiso   1.00
C3     C     0.69035   0.91726   0.73974   0.00000  Uiso   1.00
C4     C     0.79204   0.88187   0.75786   0.00000  Uiso   1.00
C5     C     0.90323   0.82136   0.80075   0.00000  Uiso   1.00
C6     C     0.74525   0.04705   0.69804   0.00000  Uiso   1.00
C7     C     0.65748   0.11110   0.73608   0.00000  Uiso   1.00
C8     C     0.74415   0.16435   0.75250   0.00000  Uiso   1.00
C9     C     0.82760   0.26733   0.79227   0.00000  Uiso   1.00
C10    C     0.72908   0.94325   0.59899   0.00000  Uiso   1.00
C11    C     0.62772   0.92004   0.55374   0.00000  Uiso   1.00
C12    C     0.70078   0.88591   0.48677   0.00000  Uiso   1.00
C13    C     0.75913   0.82772   0.37274   0.00000  Uiso   1.00
C14    C     0.98497   0.96243   0.63601   0.00000  Uiso   1.00
C15    C     0.93146   0.93124   0.67914   0.00000  Uiso   1.00
C16    C     0.03329   0.89587   0.69719   0.00000  Uiso   1.00
C17    C     0.96071   0.87134   0.73693   0.00000  Uiso   1.00
C18    C     0.91360   0.03655   0.67715   0.00000  Uiso   1.00
C19    C     0.00042   0.08971   0.69352   0.00000  Uiso   1.00
C20    C     0.91281   0.15383   0.73158   0.00000  Uiso   1.00
C21    C     0.89744   0.93274   0.57810   0.00000  Uiso   1.00
C22    C     0.97066   0.89865   0.51119   0.00000  Uiso   1.00
C23    C     0.86944   0.87539   0.46584   0.00000  Uiso   1.00
H24    H     0.54393   0.98994   0.69073   0.00000  Uiso   1.00
H25    H     0.56006   0.92541   0.75590   0.00000  Uiso   1.00
H26    H     0.52719   0.11921   0.75223   0.00000  Uiso   1.00
H27    H     0.49744   0.92818   0.56992   0.00000  Uiso   1.00
H28    H     0.65219   0.84925   0.81897   0.00000  Uiso   1.00
H29    H     0.58288   0.25790   0.81120   0.00000  Uiso   1.00
H30    H     0.52014   0.85507   0.42676   0.00000  Uiso   1.00
H31    H     0.11605   0.95425   0.61975   0.00000  Uiso   1.00
H32    H     0.16358   0.88776   0.68102   0.00000  Uiso   1.00
H33    H     0.13070   0.08157   0.67735   0.00000  Uiso   1.00
H34    H     0.10095   0.89053   0.49504   0.00000  Uiso   1.00
H35    H     0.14203   0.81869   0.75819   0.00000  Uiso   1.00
H36    H     0.07271   0.22735   0.75042   0.00000  Uiso   1.00
H37    H     0.00998   0.82452   0.36599   0.00000  Uiso   1.00
O38    O     0.91805   0.79089   0.83019   0.00000  Uiso   1.00
O39    O     0.82711   0.32703   0.81998   0.00000  Uiso   1.00
O40    O     0.74481   0.79852   0.31562   0.00000  Uiso   1.00
N41    N     0.76095   0.85117   0.79624   0.00000  Uiso   1.00
N42    N     0.69615   0.23324   0.78899   0.00000  Uiso   1.00
N43    N     0.63750   0.85664   0.42957   0.00000  Uiso   1.00
N44    N     0.02453   0.83473   0.76354   0.00000  Uiso   1.00
N45    N     0.95973   0.21680   0.75628   0.00000  Uiso   1.00
N46    N     0.90107   0.84020   0.39687   0.00000  Uiso   1.00
C47    C     0.34729   0.32354   0.30885   0.00000  Uiso   1.00
C48    C     0.46455   0.29951   0.24298   0.00000  Uiso   1.00
C49    C     0.43347   0.25905   0.18029   0.00000  Uiso   1.00
C50    C     0.55651   0.24262   0.12620   0.00000  Uiso   1.00
C51    C     0.71600   0.20176   0.02264   0.00000  Uiso   1.00
C52    C     0.43499   0.30057   0.34880   0.00000  Uiso   1.00
C53    C     0.37905   0.26100   0.37510   0.00000  Uiso   1.00
C54    C     0.47720   0.24545   0.41010   0.00000  Uiso   1.00
C55    C     0.59075   0.20626   0.47087   0.00000  Uiso   1.00
C56    C     0.32994   0.39983   0.34534   0.00000  Uiso   1.00
C57    C     0.18566   0.44373   0.36874   0.00000  Uiso   1.00
C58    C     0.19537   0.51176   0.40084   0.00000  Uiso   1.00
C59    C     0.14581   0.62670   0.45625   0.00000  Uiso   1.00
C60    C     0.62106   0.36630   0.32426   0.00000  Uiso   1.00
C61    C     0.61326   0.32274   0.25135   0.00000  Uiso   1.00
C62    C     0.73637   0.30637   0.19734   0.00000  Uiso   1.00
C63    C     0.70548   0.26589   0.13458   0.00000  Uiso   1.00
C64    C     0.58369   0.32379   0.35717   0.00000  Uiso   1.00
C65    C     0.68195   0.30831   0.39214   0.00000  Uiso   1.00
C66    C     0.62618   0.26872   0.41848   0.00000  Uiso   1.00
C67    C     0.47865   0.42306   0.35371   0.00000  Uiso   1.00
C68    C     0.48858   0.49104   0.38579   0.00000  Uiso   1.00
C69    C     0.34435   0.53503   0.40923   0.00000  Uiso   1.00
H70    H     0.23151   0.30545   0.30234   0.00000  Uiso   1.00
H71    H     0.31838   0.24108   0.17384   0.00000  Uiso   1.00
H72    H     0.26396   0.24303   0.36862   0.00000  Uiso   1.00
H73    H     0.07061   0.42573   0.36226   0.00000  Uiso   1.00
H74    H     0.48028   0.17994   0.03506   0.00000  Uiso   1.00
H75    H     0.36551   0.18407   0.44578   0.00000  Uiso   1.00
H76    H     0.95779   0.56933   0.43238   0.00000  Uiso   1.00
H77    H     0.73684   0.38439   0.33078   0.00000  Uiso   1.00
H78    H     0.85144   0.32435   0.20383   0.00000  Uiso   1.00
H79    H     0.79702   0.32630   0.39861   0.00000  Uiso   1.00
H80    H     0.60367   0.50900   0.39225   0.00000  Uiso   1.00
H81    H     0.91294   0.24752   0.05940   0.00000  Uiso   1.00
H82    H     0.79816   0.25165   0.47013   0.00000  Uiso   1.00
H83    H     0.39045   0.63691   0.45672   0.00000  Uiso   1.00
O84    O     0.76289   0.17279   0.96321   0.00000  Uiso   1.00
O85    O     0.61230   0.17822   0.50207   0.00000  Uiso   1.00
O86    O     0.07739   0.68368   0.48448   0.00000  Uiso   1.00
N87    N     0.56637   0.20409   0.05821   0.00000  Uiso   1.00
N88    N     0.45907   0.20795   0.44220   0.00000  Uiso   1.00
N89    N     0.07789   0.56814   0.42969   0.00000  Uiso   1.00
N90    N     0.79918   0.24046   0.07131   0.00000  Uiso   1.00
N91    N     0.69188   0.24431   0.45530   0.00000  Uiso   1.00
N92    N     0.31070   0.60450   0.44279   0.00000  Uiso   1.00
C93    C     0.65889   0.68975   0.01653   0.00000  Uiso   1.00
C94    C     0.71299   0.75724   0.05695   0.00000  Uiso   1.00
C95    C     0.62332   0.81961   0.07984   0.00000  Uiso   1.00
C96    C     0.69422   0.87537   0.11594   0.00000  Uiso   1.00
C97    C     0.75468   0.98115   0.17674   0.00000  Uiso   1.00
C98    C     0.78849   0.65126   0.95313   0.00000  Uiso   1.00
C99    C     0.76228   0.62451   0.88873   0.00000  Uiso   1.00
C100   C     0.89673   0.59106   0.83743   0.00000  Uiso   1.00
C101   C     0.07439   0.53225   0.73704   0.00000  Uiso   1.00
C102   C     0.67076   0.65262   0.05554   0.00000  Uiso   1.00
C103   C     0.54557   0.62699   0.07724   0.00000  Uiso   1.00
C104   C     0.58092   0.59466   0.11215   0.00000  Uiso   1.00
C105   C     0.57577   0.53796   0.17078   0.00000  Uiso   1.00
C106   C     0.94426   0.67788   0.03993   0.00000  Uiso   1.00
C107   C     0.86800   0.75079   0.06966   0.00000  Uiso   1.00
C108   C     0.93905   0.80647   0.10573   0.00000  Uiso   1.00
C109   C     0.84950   0.86891   0.12867   0.00000  Uiso   1.00
C110   C     0.94349   0.64481   0.96583   0.00000  Uiso   1.00
C111   C     0.07801   0.61138   0.91462   0.00000  Uiso   1.00
C112   C     0.05202   0.58459   0.85016   0.00000  Uiso   1.00
C113   C     0.82576   0.64617   0.06825   0.00000  Uiso   1.00
C114   C     0.86131   0.61386   0.10314   0.00000  Uiso   1.00
C115   C     0.73620   0.58820   0.12489   0.00000  Uiso   1.00
H116   H     0.53822   0.69477   0.00663   0.00000  Uiso   1.00
H117   H     0.50337   0.82458   0.06999   0.00000  Uiso   1.00
H118   H     0.64231   0.62951   0.87891   0.00000  Uiso   1.00
H119   H     0.42564   0.63200   0.06739   0.00000  Uiso   1.00
H120   H     0.53312   0.96565   0.14582   0.00000  Uiso   1.00
H121   H     0.82607   0.55432   0.74291   0.00000  Uiso   1.00
H122   H     0.36918   0.55955   0.14037   0.00000  Uiso   1.00
H123   H     0.06495   0.67285   0.04982   0.00000  Uiso   1.00
H124   H     0.05901   0.80146   0.11556   0.00000  Uiso   1.00
H125   H     0.19794   0.60639   0.92447   0.00000  Uiso   1.00
H126   H     0.98127   0.60888   0.11296   0.00000  Uiso   1.00
H127   H     0.98410   0.94689   0.18280   0.00000  Uiso   1.00
H128   H     0.27705   0.53555   0.77989   0.00000  Uiso   1.00
H129   H     0.82015   0.54079   0.17736   0.00000  Uiso   1.00
O130   O     0.74522   0.04127   0.20675   0.00000  Uiso   1.00
O131   O     0.12955   0.50160   0.67815   0.00000  Uiso   1.00
O132   O     0.53012   0.50848   0.19962   0.00000  Uiso   1.00
N133   N     0.64006   0.94359   0.14551   0.00000  Uiso   1.00
N134   N     0.91396   0.55902   0.76882   0.00000  Uiso   1.00
N135   N     0.48681   0.56390   0.14040   0.00000  Uiso   1.00
N136   N     0.88273   0.93349   0.16541   0.00000  Uiso   1.00
N137   N     0.15662   0.54892   0.78872   0.00000  Uiso   1.00
N138   N     0.72947   0.55381   0.16030   0.00000  Uiso   1.00
C139   C     0.32500   0.01824   0.32553   0.00000  Uiso   1.00
C140   C     0.23690   0.05826   0.29997   0.00000  Uiso   1.00
C141   C     0.30965   0.08274   0.26026   0.00000  Uiso   1.00
C142   C     0.20796   0.11813   0.24214   0.00000  Uiso   1.00
C143   C     0.09677   0.17864   0.19925   0.00000  Uiso   1.00
C144   C     0.25475   0.95295   0.30196   0.00000  Uiso   1.00
C145   C     0.34252   0.88890   0.26392   0.00000  Uiso   1.00
C146   C     0.25585   0.83565   0.24750   0.00000  Uiso   1.00
C147   C     0.17240   0.73267   0.20773   0.00000  Uiso   1.00
C148   C     0.27092   0.05675   0.40101   0.00000  Uiso   1.00
C149   C     0.37228   0.07996   0.44626   0.00000  Uiso   1.00
C150   C     0.29922   0.11409   0.51323   0.00000  Uiso   1.00
C151   C     0.24087   0.17228   0.62726   0.00000  Uiso   1.00
C152   C     0.01503   0.03757   0.36399   0.00000  Uiso   1.00
C153   C     0.06854   0.06876   0.32086   0.00000  Uiso   1.00
C154   C     0.96671   0.10413   0.30281   0.00000  Uiso   1.00
C155   C     0.03929   0.12866   0.26307   0.00000  Uiso   1.00
C156   C     0.08640   0.96345   0.32285   0.00000  Uiso   1.00
C157   C     0.99958   0.91029   0.30648   0.00000  Uiso   1.00
C158   C     0.08719   0.84617   0.26842   0.00000  Uiso   1.00
C159   C     0.10256   0.06726   0.42190   0.00000  Uiso   1.00
C160   C     0.02934   0.10135   0.48881   0.00000  Uiso   1.00
C161   C     0.13056   0.12461   0.53416   0.00000  Uiso   1.00
H162   H     0.45607   0.01006   0.30927   0.00000  Uiso   1.00
H163   H     0.43994   0.07459   0.24410   0.00000  Uiso   1.00
H164   H     0.47281   0.88079   0.24777   0.00000  Uiso   1.00
H165   H     0.50256   0.07182   0.43008   0.00000  Uiso   1.00
H166   H     0.34781   0.15075   0.18103   0.00000  Uiso   1.00
H167   H     0.41712   0.74210   0.18880   0.00000  Uiso   1.00
H168   H     0.47986   0.14493   0.57324   0.00000  Uiso   1.00
H169   H     0.88395   0.04575   0.38025   0.00000  Uiso   1.00
H170   H     0.83642   0.11224   0.31898   0.00000  Uiso   1.00
H171   H     0.86930   0.91843   0.32265   0.00000  Uiso   1.00
H172   H     0.89905   0.10947   0.50496   0.00000  Uiso   1.00
H173   H     0.85797   0.18131   0.24181   0.00000  Uiso   1.00
H174   H     0.92729   0.77265   0.24958   0.00000  Uiso   1.00
H175   H     0.99002   0.17548   0.63401   0.00000  Uiso   1.00
O176   O     0.08195   0.20911   0.16981   0.00000  Uiso   1.00
O177   O     0.17289   0.67297   0.18002   0.00000  Uiso   1.00
O178   O     0.25519   0.20148   0.68438   0.00000  Uiso   1.00
N179   N     0.23905   0.14883   0.20376   0.00000  Uiso   1.00
N180   N     0.30385   0.76676   0.21101   0.00000  Uiso   1.00
N181   N     0.36250   0.14336   0.57043   0.00000  Uiso   1.00
N182   N     0.97547   0.16527   0.23646   0.00000  Uiso   1.00
N183   N     0.04027   0.78320   0.24372   0.00000  Uiso   1.00
N184   N     0.09893   0.15980   0.60313   0.00000  Uiso   1.00
C185   C     0.65272   0.67646   0.69115   0.00000  Uiso   1.00
C186   C     0.53545   0.70049   0.75702   0.00000  Uiso   1.00
C187   C     0.56653   0.74095   0.81971   0.00000  Uiso   1.00
C188   C     0.44349   0.75738   0.87380   0.00000  Uiso   1.00
C189   C     0.28400   0.79824   0.97736   0.00000  Uiso   1.00
C190   C     0.56501   0.69944   0.65120   0.00000  Uiso   1.00
C191   C     0.62096   0.73900   0.62490   0.00000  Uiso   1.00
C192   C     0.52280   0.75455   0.58990   0.00000  Uiso   1.00
C193   C     0.40925   0.79374   0.52913   0.00000  Uiso   1.00
C194   C     0.67006   0.60017   0.65466   0.00000  Uiso   1.00
C195   C     0.81434   0.55627   0.63126   0.00000  Uiso   1.00
C196   C     0.80463   0.48824   0.59916   0.00000  Uiso   1.00
C197   C     0.85419   0.37330   0.54375   0.00000  Uiso   1.00
C198   C     0.37894   0.63370   0.67574   0.00000  Uiso   1.00
C199   C     0.38674   0.67726   0.74865   0.00000  Uiso   1.00
C200   C     0.26363   0.69363   0.80266   0.00000  Uiso   1.00
C201   C     0.29452   0.73411   0.86542   0.00000  Uiso   1.00
C202   C     0.41631   0.67621   0.64283   0.00000  Uiso   1.00
C203   C     0.31805   0.69169   0.60786   0.00000  Uiso   1.00
C204   C     0.37382   0.73128   0.58152   0.00000  Uiso   1.00
C205   C     0.52135   0.57694   0.64629   0.00000  Uiso   1.00
C206   C     0.51142   0.50896   0.61421   0.00000  Uiso   1.00
C207   C     0.65565   0.46497   0.59077   0.00000  Uiso   1.00
H208   H     0.76849   0.69455   0.69766   0.00000  Uiso   1.00
H209   H     0.68163   0.75892   0.82616   0.00000  Uiso   1.00
H210   H     0.73604   0.75697   0.63138   0.00000  Uiso   1.00
H211   H     0.92939   0.57427   0.63774   0.00000  Uiso   1.00
H212   H     0.51972   0.82006   0.96494   0.00000  Uiso   1.00
H213   H     0.63449   0.81593   0.55422   0.00000  Uiso   1.00
H214   H     0.04221   0.43067   0.56762   0.00000  Uiso   1.00
H215   H     0.26316   0.61561   0.66922   0.00000  Uiso   1.00
H216   H     0.14856   0.67565   0.79617   0.00000  Uiso   1.00
H217   H     0.20298   0.67370   0.60139   0.00000  Uiso   1.00
H218   H     0.39633   0.49100   0.60775   0.00000  Uiso   1.00
H219   H     0.08706   0.75248   0.94060   0.00000  Uiso   1.00
H220   H     0.20184   0.74835   0.52987   0.00000  Uiso   1.00
H221   H     0.60955   0.36309   0.54328   0.00000  Uiso   1.00
O222   O     0.23711   0.82721   0.03679   0.00000  Uiso   1.00
O223   O     0.38770   0.82178   0.49793   0.00000  Uiso   1.00
O224   O     0.92261   0.31632   0.51552   0.00000  Uiso   1.00
N225   N     0.43363   0.79591   0.94179   0.00000  Uiso   1.00
N226   N     0.54093   0.79205   0.55780   0.00000  Uiso   1.00
N227   N     0.92211   0.43186   0.57031   0.00000  Uiso   1.00
N228   N     0.20082   0.75954   0.92869   0.00000  Uiso   1.00
N229   N     0.30812   0.75569   0.54470   0.00000  Uiso   1.00
N230   N     0.68930   0.39550   0.55721   0.00000  Uiso   1.00
C231   C     0.34111   0.31025   0.98347   0.00000  Uiso   1.00
C232   C     0.28701   0.24276   0.94305   0.00000  Uiso   1.00
C233   C     0.37668   0.18039   0.92016   0.00000  Uiso   1.00
C234   C     0.30578   0.12463   0.88406   0.00000  Uiso   1.00
C235   C     0.24532   0.01886   0.82326   0.00000  Uiso   1.00
C236   C     0.21151   0.34874   0.04687   0.00000  Uiso   1.00
C237   C     0.23772   0.37549   0.11127   0.00000  Uiso   1.00
C238   C     0.10327   0.40894   0.16257   0.00000  Uiso   1.00
C239   C     0.92561   0.46775   0.26296   0.00000  Uiso   1.00
C240   C     0.32924   0.34738   0.94446   0.00000  Uiso   1.00
C241   C     0.45443   0.37301   0.92276   0.00000  Uiso   1.00
C242   C     0.41908   0.40534   0.88785   0.00000  Uiso   1.00
C243   C     0.42423   0.46204   0.82922   0.00000  Uiso   1.00
C244   C     0.05574   0.32212   0.96007   0.00000  Uiso   1.00
C245   C     0.13200   0.24921   0.93034   0.00000  Uiso   1.00
C246   C     0.06095   0.19353   0.89427   0.00000  Uiso   1.00
C247   C     0.15050   0.13109   0.87133   0.00000  Uiso   1.00
C248   C     0.05651   0.35519   0.03417   0.00000  Uiso   1.00
C249   C     0.92199   0.38862   0.08538   0.00000  Uiso   1.00
C250   C     0.94798   0.41541   0.14984   0.00000  Uiso   1.00
C251   C     0.17424   0.35383   0.93175   0.00000  Uiso   1.00
C252   C     0.13869   0.38614   0.89686   0.00000  Uiso   1.00
C253   C     0.26380   0.41180   0.87511   0.00000  Uiso   1.00
H254   H     0.46178   0.30523   0.99337   0.00000  Uiso   1.00
H255   H     0.49663   0.17542   0.93001   0.00000  Uiso   1.00
H256   H     0.35769   0.37049   0.12109   0.00000  Uiso   1.00
H257   H     0.57436   0.36800   0.93261   0.00000  Uiso   1.00
H258   H     0.46688   0.03435   0.85418   0.00000  Uiso   1.00
H259   H     0.17393   0.44568   0.25709   0.00000  Uiso   1.00
H260   H     0.63082   0.44045   0.85963   0.00000  Uiso   1.00
H261   H     0.93505   0.32715   0.95018   0.00000  Uiso   1.00
H262   H     0.94099   0.19854   0.88444   0.00000  Uiso   1.00
H263   H     0.80206   0.39361   0.07553   0.00000  Uiso   1.00
H264   H     0.01873   0.39112   0.88704   0.00000  Uiso   1.00
H265   H     0.01590   0.05311   0.81720   0.00000  Uiso   1.00
H266   H     0.72295   0.46445   0.22011   0.00000  Uiso   1.00
H267   H     0.17985   0.45921   0.82264   0.00000  Uiso   1.00
O268   O     0.25478   0.95873   0.79325   0.00000  Uiso   1.00
O269   O     0.87045   0.49840   0.32185   0.00000  Uiso   1.00
O270   O     0.46988   0.49152   0.80038   0.00000  Uiso   1.00
N271   N     0.35994   0.05641   0.85449   0.00000  Uiso   1.00
N272   N     0.08604   0.44098   0.23118   0.00000  Uiso   1.00
N273   N     0.51319   0.43610   0.85960   0.00000  Uiso   1.00
N274   N     0.11727   0.06651   0.83458   0.00000  Uiso   1.00
N275   N     0.84338   0.45108   0.21128   0.00000  Uiso   1.00
N276   N     0.27053   0.44619   0.83970   0.00000  Uiso   1.00
