data_job_03217
_audit_creation_date              2018-12-19
_audit_creation_method            'Materials Studio'
_symmetry_space_group_name_H-M    'P1'
_symmetry_Int_Tables_number       1
_symmetry_cell_setting            triclinic
loop_
_symmetry_equiv_pos_as_xyz
  x,y,z
_cell_length_a                    15.2153
_cell_length_b                    20.3392
_cell_length_c                    27.6009
_cell_angle_alpha                 90.0000
_cell_angle_beta                  124.8973
_cell_angle_gamma                 90.0000
loop_
_atom_site_label
_atom_site_type_symbol
_atom_site_fract_x
_atom_site_fract_y
_atom_site_fract_z
_atom_site_U_iso_or_equiv
_atom_site_adp_type
_atom_site_occupancy
C1     C     0.78523   0.59881   0.92419   0.00000  Uiso   1.00
C2     C     0.69032   0.64082   0.91015   0.00000  Uiso   1.00
C3     C     0.66195   0.65471   0.94874   0.00000  Uiso   1.00
C4     C     0.57240   0.69409   0.92747   0.00000  Uiso   1.00
C5     C     0.43397   0.75556   0.91444   0.00000  Uiso   1.00
C6     C     0.73880   0.54455   0.87772   0.00000  Uiso   1.00
C7     C     0.75122   0.47748   0.88904   0.00000  Uiso   1.00
C8     C     0.70249   0.43582   0.84047   0.00000  Uiso   1.00
C9     C     0.63940   0.34783   0.77710   0.00000  Uiso   1.00
C10    C     0.85212   0.64205   0.91180   0.00000  Uiso   1.00
C11    C     0.95983   0.65696   0.95177   0.00000  Uiso   1.00
C12    C     0.00652   0.69738   0.93188   0.00000  Uiso   1.00
C13    C     0.11938   0.76078   0.92142   0.00000  Uiso   1.00
C14    C     0.67662   0.64405   0.81781   0.00000  Uiso   1.00
C15    C     0.63133   0.66540   0.85237   0.00000  Uiso   1.00
C16    C     0.54179   0.70477   0.83103   0.00000  Uiso   1.00
C17    C     0.51330   0.71871   0.86958   0.00000  Uiso   1.00
C18    C     0.67981   0.56912   0.81994   0.00000  Uiso   1.00
C19    C     0.63106   0.52755   0.77134   0.00000  Uiso   1.00
C20    C     0.64339   0.46044   0.78258   0.00000  Uiso   1.00
C21    C     0.79313   0.66663   0.85402   0.00000  Uiso   1.00
C22    C     0.83967   0.70703   0.83406   0.00000  Uiso   1.00
C23    C     0.94742   0.72201   0.87399   0.00000  Uiso   1.00
H24    H     0.83115   0.57967   0.96918   0.00000  Uiso   1.00
H25    H     0.70762   0.63567   0.99345   0.00000  Uiso   1.00
H26    H     0.79688   0.45848   0.93376   0.00000  Uiso   1.00
H27    H     0.00546   0.63794   0.99648   0.00000  Uiso   1.00
H28    H     0.54463   0.70858   0.99487   0.00000  Uiso   1.00
H29    H     0.73287   0.33496   0.86901   0.00000  Uiso   1.00
H30    H     0.17269   0.71338   0.00126   0.00000  Uiso   1.00
H31    H     0.63069   0.66319   0.77282   0.00000  Uiso   1.00
H32    H     0.49616   0.72378   0.78632   0.00000  Uiso   1.00
H33    H     0.58542   0.54659   0.72663   0.00000  Uiso   1.00
H34    H     0.79399   0.72604   0.78934   0.00000  Uiso   1.00
H35    H     0.37299   0.78009   0.82675   0.00000  Uiso   1.00
H36    H     0.56124   0.40647   0.70090   0.00000  Uiso   1.00
H37    H     0.00106   0.78489   0.83314   0.00000  Uiso   1.00
O38    O     0.37391   0.78267   0.92322   0.00000  Uiso   1.00
O39    O     0.62090   0.29250   0.75811   0.00000  Uiso   1.00
O40    O     0.19792   0.78897   0.93162   0.00000  Uiso   1.00
N41    N     0.52271   0.71711   0.95345   0.00000  Uiso   1.00
N42    N     0.69869   0.36780   0.83579   0.00000  Uiso   1.00
N43    N     0.10989   0.72157   0.95942   0.00000  Uiso   1.00
N44    N     0.43035   0.75559   0.86299   0.00000  Uiso   1.00
N45    N     0.60634   0.40628   0.74532   0.00000  Uiso   1.00
N46    N     0.01754   0.76005   0.86896   0.00000  Uiso   1.00
C47    C     0.28523   0.09881   0.92419   0.00000  Uiso   1.00
C48    C     0.19032   0.14082   0.91015   0.00000  Uiso   1.00
C49    C     0.16195   0.15471   0.94874   0.00000  Uiso   1.00
C50    C     0.07240   0.19409   0.92747   0.00000  Uiso   1.00
C51    C     0.93397   0.25556   0.91444   0.00000  Uiso   1.00
C52    C     0.23880   0.04455   0.87772   0.00000  Uiso   1.00
C53    C     0.25122   0.97748   0.88904   0.00000  Uiso   1.00
C54    C     0.20249   0.93582   0.84047   0.00000  Uiso   1.00
C55    C     0.13940   0.84783   0.77710   0.00000  Uiso   1.00
C56    C     0.35212   0.14205   0.91180   0.00000  Uiso   1.00
C57    C     0.45983   0.15696   0.95177   0.00000  Uiso   1.00
C58    C     0.50652   0.19738   0.93188   0.00000  Uiso   1.00
C59    C     0.61938   0.26078   0.92142   0.00000  Uiso   1.00
C60    C     0.17662   0.14405   0.81781   0.00000  Uiso   1.00
C61    C     0.13133   0.16540   0.85237   0.00000  Uiso   1.00
C62    C     0.04179   0.20477   0.83103   0.00000  Uiso   1.00
C63    C     0.01330   0.21871   0.86958   0.00000  Uiso   1.00
C64    C     0.17981   0.06912   0.81994   0.00000  Uiso   1.00
C65    C     0.13106   0.02755   0.77134   0.00000  Uiso   1.00
C66    C     0.14339   0.96044   0.78258   0.00000  Uiso   1.00
C67    C     0.29313   0.16663   0.85402   0.00000  Uiso   1.00
C68    C     0.33967   0.20703   0.83406   0.00000  Uiso   1.00
C69    C     0.44742   0.22201   0.87399   0.00000  Uiso   1.00
H70    H     0.33115   0.07967   0.96918   0.00000  Uiso   1.00
H71    H     0.20762   0.13567   0.99345   0.00000  Uiso   1.00
H72    H     0.29688   0.95848   0.93376   0.00000  Uiso   1.00
H73    H     0.50546   0.13794   0.99648   0.00000  Uiso   1.00
H74    H     0.04463   0.20858   0.99487   0.00000  Uiso   1.00
H75    H     0.23287   0.83496   0.86901   0.00000  Uiso   1.00
H76    H     0.67269   0.21338   0.00126   0.00000  Uiso   1.00
H77    H     0.13069   0.16319   0.77282   0.00000  Uiso   1.00
H78    H     0.99616   0.22378   0.78632   0.00000  Uiso   1.00
H79    H     0.08542   0.04659   0.72663   0.00000  Uiso   1.00
H80    H     0.29399   0.22604   0.78934   0.00000  Uiso   1.00
H81    H     0.87299   0.28009   0.82675   0.00000  Uiso   1.00
H82    H     0.06124   0.90647   0.70090   0.00000  Uiso   1.00
H83    H     0.50106   0.28489   0.83314   0.00000  Uiso   1.00
O84    O     0.87391   0.28267   0.92322   0.00000  Uiso   1.00
O85    O     0.12090   0.79250   0.75811   0.00000  Uiso   1.00
O86    O     0.69792   0.28897   0.93162   0.00000  Uiso   1.00
N87    N     0.02271   0.21711   0.95345   0.00000  Uiso   1.00
N88    N     0.19869   0.86780   0.83579   0.00000  Uiso   1.00
N89    N     0.60989   0.22157   0.95942   0.00000  Uiso   1.00
N90    N     0.93035   0.25559   0.86299   0.00000  Uiso   1.00
N91    N     0.10634   0.90628   0.74532   0.00000  Uiso   1.00
N92    N     0.51754   0.26005   0.86896   0.00000  Uiso   1.00
C93    C     0.21477   0.59881   0.57581   0.00000  Uiso   1.00
C94    C     0.30968   0.64082   0.58985   0.00000  Uiso   1.00
C95    C     0.33805   0.65471   0.55126   0.00000  Uiso   1.00
C96    C     0.42760   0.69409   0.57253   0.00000  Uiso   1.00
C97    C     0.56603   0.75556   0.58556   0.00000  Uiso   1.00
C98    C     0.26120   0.54455   0.62228   0.00000  Uiso   1.00
C99    C     0.24878   0.47748   0.61096   0.00000  Uiso   1.00
C100   C     0.29751   0.43582   0.65953   0.00000  Uiso   1.00
C101   C     0.36060   0.34783   0.72290   0.00000  Uiso   1.00
C102   C     0.14788   0.64205   0.58820   0.00000  Uiso   1.00
C103   C     0.04017   0.65696   0.54823   0.00000  Uiso   1.00
C104   C     0.99348   0.69738   0.56812   0.00000  Uiso   1.00
C105   C     0.88062   0.76078   0.57858   0.00000  Uiso   1.00
C106   C     0.32338   0.64405   0.68219   0.00000  Uiso   1.00
C107   C     0.36867   0.66540   0.64763   0.00000  Uiso   1.00
C108   C     0.45821   0.70477   0.66897   0.00000  Uiso   1.00
C109   C     0.48670   0.71871   0.63042   0.00000  Uiso   1.00
C110   C     0.32019   0.56912   0.68006   0.00000  Uiso   1.00
C111   C     0.36894   0.52755   0.72866   0.00000  Uiso   1.00
C112   C     0.35661   0.46044   0.71742   0.00000  Uiso   1.00
C113   C     0.20687   0.66663   0.64598   0.00000  Uiso   1.00
C114   C     0.16033   0.70703   0.66594   0.00000  Uiso   1.00
C115   C     0.05258   0.72201   0.62601   0.00000  Uiso   1.00
H116   H     0.16885   0.57967   0.53082   0.00000  Uiso   1.00
H117   H     0.29238   0.63567   0.50655   0.00000  Uiso   1.00
H118   H     0.20312   0.45848   0.56624   0.00000  Uiso   1.00
H119   H     0.99454   0.63794   0.50352   0.00000  Uiso   1.00
H120   H     0.45537   0.70858   0.50513   0.00000  Uiso   1.00
H121   H     0.26713   0.33496   0.63099   0.00000  Uiso   1.00
H122   H     0.82731   0.71338   0.49874   0.00000  Uiso   1.00
H123   H     0.36931   0.66319   0.72718   0.00000  Uiso   1.00
H124   H     0.50384   0.72378   0.71368   0.00000  Uiso   1.00
H125   H     0.41458   0.54659   0.77337   0.00000  Uiso   1.00
H126   H     0.20601   0.72604   0.71066   0.00000  Uiso   1.00
H127   H     0.62701   0.78009   0.67325   0.00000  Uiso   1.00
H128   H     0.43876   0.40647   0.79910   0.00000  Uiso   1.00
H129   H     0.99894   0.78489   0.66686   0.00000  Uiso   1.00
O130   O     0.62609   0.78267   0.57678   0.00000  Uiso   1.00
O131   O     0.37910   0.29250   0.74189   0.00000  Uiso   1.00
O132   O     0.80208   0.78897   0.56838   0.00000  Uiso   1.00
N133   N     0.47729   0.71711   0.54655   0.00000  Uiso   1.00
N134   N     0.30131   0.36780   0.66421   0.00000  Uiso   1.00
N135   N     0.89011   0.72157   0.54058   0.00000  Uiso   1.00
N136   N     0.56965   0.75559   0.63701   0.00000  Uiso   1.00
N137   N     0.39366   0.40628   0.75468   0.00000  Uiso   1.00
N138   N     0.98246   0.76005   0.63104   0.00000  Uiso   1.00
C139   C     0.71477   0.09881   0.57581   0.00000  Uiso   1.00
C140   C     0.80968   0.14082   0.58985   0.00000  Uiso   1.00
C141   C     0.83805   0.15471   0.55126   0.00000  Uiso   1.00
C142   C     0.92760   0.19409   0.57253   0.00000  Uiso   1.00
C143   C     0.06603   0.25556   0.58556   0.00000  Uiso   1.00
C144   C     0.76120   0.04455   0.62228   0.00000  Uiso   1.00
C145   C     0.74878   0.97748   0.61096   0.00000  Uiso   1.00
C146   C     0.79751   0.93582   0.65953   0.00000  Uiso   1.00
C147   C     0.86060   0.84783   0.72290   0.00000  Uiso   1.00
C148   C     0.64788   0.14205   0.58820   0.00000  Uiso   1.00
C149   C     0.54017   0.15696   0.54823   0.00000  Uiso   1.00
C150   C     0.49348   0.19738   0.56812   0.00000  Uiso   1.00
C151   C     0.38062   0.26078   0.57858   0.00000  Uiso   1.00
C152   C     0.82338   0.14405   0.68219   0.00000  Uiso   1.00
C153   C     0.86867   0.16540   0.64763   0.00000  Uiso   1.00
C154   C     0.95821   0.20477   0.66897   0.00000  Uiso   1.00
C155   C     0.98670   0.21871   0.63042   0.00000  Uiso   1.00
C156   C     0.82019   0.06912   0.68006   0.00000  Uiso   1.00
C157   C     0.86894   0.02755   0.72866   0.00000  Uiso   1.00
C158   C     0.85661   0.96044   0.71742   0.00000  Uiso   1.00
C159   C     0.70687   0.16663   0.64598   0.00000  Uiso   1.00
C160   C     0.66033   0.20703   0.66594   0.00000  Uiso   1.00
C161   C     0.55258   0.22201   0.62601   0.00000  Uiso   1.00
H162   H     0.66885   0.07967   0.53082   0.00000  Uiso   1.00
H163   H     0.79238   0.13567   0.50655   0.00000  Uiso   1.00
H164   H     0.70312   0.95848   0.56624   0.00000  Uiso   1.00
H165   H     0.49454   0.13794   0.50352   0.00000  Uiso   1.00
H166   H     0.95537   0.20858   0.50513   0.00000  Uiso   1.00
H167   H     0.76713   0.83496   0.63099   0.00000  Uiso   1.00
H168   H     0.32731   0.21338   0.49874   0.00000  Uiso   1.00
H169   H     0.86931   0.16319   0.72718   0.00000  Uiso   1.00
H170   H     0.00384   0.22378   0.71368   0.00000  Uiso   1.00
H171   H     0.91458   0.04659   0.77337   0.00000  Uiso   1.00
H172   H     0.70601   0.22604   0.71066   0.00000  Uiso   1.00
H173   H     0.12701   0.28009   0.67325   0.00000  Uiso   1.00
H174   H     0.93876   0.90647   0.79910   0.00000  Uiso   1.00
H175   H     0.49894   0.28489   0.66686   0.00000  Uiso   1.00
O176   O     0.12609   0.28267   0.57678   0.00000  Uiso   1.00
O177   O     0.87910   0.79250   0.74189   0.00000  Uiso   1.00
O178   O     0.30208   0.28897   0.56838   0.00000  Uiso   1.00
N179   N     0.97729   0.21711   0.54655   0.00000  Uiso   1.00
N180   N     0.80131   0.86780   0.66421   0.00000  Uiso   1.00
N181   N     0.39011   0.22157   0.54058   0.00000  Uiso   1.00
N182   N     0.06965   0.25559   0.63701   0.00000  Uiso   1.00
N183   N     0.89366   0.90628   0.75468   0.00000  Uiso   1.00
N184   N     0.48246   0.26005   0.63104   0.00000  Uiso   1.00
C185   C     0.21477   0.40119   0.07581   0.00000  Uiso   1.00
C186   C     0.30968   0.35918   0.08985   0.00000  Uiso   1.00
C187   C     0.33805   0.34529   0.05126   0.00000  Uiso   1.00
C188   C     0.42760   0.30591   0.07253   0.00000  Uiso   1.00
C189   C     0.56603   0.24444   0.08556   0.00000  Uiso   1.00
C190   C     0.26120   0.45545   0.12228   0.00000  Uiso   1.00
C191   C     0.24878   0.52252   0.11096   0.00000  Uiso   1.00
C192   C     0.29751   0.56418   0.15953   0.00000  Uiso   1.00
C193   C     0.36060   0.65217   0.22290   0.00000  Uiso   1.00
C194   C     0.14788   0.35795   0.08820   0.00000  Uiso   1.00
C195   C     0.04017   0.34304   0.04823   0.00000  Uiso   1.00
C196   C     0.99348   0.30262   0.06812   0.00000  Uiso   1.00
C197   C     0.88062   0.23922   0.07858   0.00000  Uiso   1.00
C198   C     0.32338   0.35595   0.18219   0.00000  Uiso   1.00
C199   C     0.36867   0.33460   0.14763   0.00000  Uiso   1.00
C200   C     0.45821   0.29523   0.16897   0.00000  Uiso   1.00
C201   C     0.48670   0.28129   0.13042   0.00000  Uiso   1.00
C202   C     0.32019   0.43088   0.18006   0.00000  Uiso   1.00
C203   C     0.36894   0.47245   0.22866   0.00000  Uiso   1.00
C204   C     0.35661   0.53956   0.21742   0.00000  Uiso   1.00
C205   C     0.20687   0.33337   0.14598   0.00000  Uiso   1.00
C206   C     0.16033   0.29297   0.16594   0.00000  Uiso   1.00
C207   C     0.05258   0.27799   0.12601   0.00000  Uiso   1.00
H208   H     0.16885   0.42033   0.03082   0.00000  Uiso   1.00
H209   H     0.29238   0.36433   0.00655   0.00000  Uiso   1.00
H210   H     0.20312   0.54152   0.06624   0.00000  Uiso   1.00
H211   H     0.99454   0.36206   0.00352   0.00000  Uiso   1.00
H212   H     0.45537   0.29142   0.00513   0.00000  Uiso   1.00
H213   H     0.26713   0.66504   0.13099   0.00000  Uiso   1.00
H214   H     0.82731   0.28662   0.99874   0.00000  Uiso   1.00
H215   H     0.36931   0.33681   0.22718   0.00000  Uiso   1.00
H216   H     0.50384   0.27622   0.21368   0.00000  Uiso   1.00
H217   H     0.41458   0.45341   0.27337   0.00000  Uiso   1.00
H218   H     0.20601   0.27396   0.21066   0.00000  Uiso   1.00
H219   H     0.62701   0.21991   0.17325   0.00000  Uiso   1.00
H220   H     0.43876   0.59353   0.29910   0.00000  Uiso   1.00
H221   H     0.99894   0.21511   0.16686   0.00000  Uiso   1.00
O222   O     0.62609   0.21733   0.07678   0.00000  Uiso   1.00
O223   O     0.37910   0.70750   0.24189   0.00000  Uiso   1.00
O224   O     0.80208   0.21103   0.06838   0.00000  Uiso   1.00
N225   N     0.47729   0.28289   0.04655   0.00000  Uiso   1.00
N226   N     0.30131   0.63220   0.16421   0.00000  Uiso   1.00
N227   N     0.89011   0.27843   0.04058   0.00000  Uiso   1.00
N228   N     0.56965   0.24441   0.13701   0.00000  Uiso   1.00
N229   N     0.39366   0.59372   0.25468   0.00000  Uiso   1.00
N230   N     0.98246   0.23995   0.13104   0.00000  Uiso   1.00
C231   C     0.71477   0.90119   0.07581   0.00000  Uiso   1.00
C232   C     0.80968   0.85918   0.08985   0.00000  Uiso   1.00
C233   C     0.83805   0.84529   0.05126   0.00000  Uiso   1.00
C234   C     0.92760   0.80591   0.07253   0.00000  Uiso   1.00
C235   C     0.06603   0.74444   0.08556   0.00000  Uiso   1.00
C236   C     0.76120   0.95545   0.12228   0.00000  Uiso   1.00
C237   C     0.74878   0.02252   0.11096   0.00000  Uiso   1.00
C238   C     0.79751   0.06418   0.15953   0.00000  Uiso   1.00
C239   C     0.86060   0.15217   0.22290   0.00000  Uiso   1.00
C240   C     0.64788   0.85795   0.08820   0.00000  Uiso   1.00
C241   C     0.54017   0.84304   0.04823   0.00000  Uiso   1.00
C242   C     0.49348   0.80262   0.06812   0.00000  Uiso   1.00
C243   C     0.38062   0.73922   0.07858   0.00000  Uiso   1.00
C244   C     0.82338   0.85595   0.18219   0.00000  Uiso   1.00
C245   C     0.86867   0.83460   0.14763   0.00000  Uiso   1.00
C246   C     0.95821   0.79523   0.16897   0.00000  Uiso   1.00
C247   C     0.98670   0.78129   0.13042   0.00000  Uiso   1.00
C248   C     0.82019   0.93088   0.18006   0.00000  Uiso   1.00
C249   C     0.86894   0.97245   0.22866   0.00000  Uiso   1.00
C250   C     0.85661   0.03956   0.21742   0.00000  Uiso   1.00
C251   C     0.70687   0.83337   0.14598   0.00000  Uiso   1.00
C252   C     0.66033   0.79297   0.16594   0.00000  Uiso   1.00
C253   C     0.55258   0.77799   0.12601   0.00000  Uiso   1.00
H254   H     0.66885   0.92033   0.03082   0.00000  Uiso   1.00
H255   H     0.79238   0.86433   0.00655   0.00000  Uiso   1.00
H256   H     0.70312   0.04152   0.06624   0.00000  Uiso   1.00
H257   H     0.49454   0.86206   0.00352   0.00000  Uiso   1.00
H258   H     0.95537   0.79142   0.00513   0.00000  Uiso   1.00
H259   H     0.76713   0.16504   0.13099   0.00000  Uiso   1.00
H260   H     0.32731   0.78662   0.99874   0.00000  Uiso   1.00
H261   H     0.86931   0.83681   0.22718   0.00000  Uiso   1.00
H262   H     0.00384   0.77622   0.21368   0.00000  Uiso   1.00
H263   H     0.91458   0.95341   0.27337   0.00000  Uiso   1.00
H264   H     0.70601   0.77396   0.21066   0.00000  Uiso   1.00
H265   H     0.12701   0.71991   0.17325   0.00000  Uiso   1.00
H266   H     0.93876   0.09353   0.29910   0.00000  Uiso   1.00
H267   H     0.49894   0.71511   0.16686   0.00000  Uiso   1.00
O268   O     0.12609   0.71733   0.07678   0.00000  Uiso   1.00
O269   O     0.87910   0.20750   0.24189   0.00000  Uiso   1.00
O270   O     0.30208   0.71103   0.06838   0.00000  Uiso   1.00
N271   N     0.97729   0.78289   0.04655   0.00000  Uiso   1.00
N272   N     0.80131   0.13220   0.16421   0.00000  Uiso   1.00
N273   N     0.39011   0.77843   0.04058   0.00000  Uiso   1.00
N274   N     0.06965   0.74441   0.13701   0.00000  Uiso   1.00
N275   N     0.89366   0.09372   0.25468   0.00000  Uiso   1.00
N276   N     0.48246   0.73995   0.13104   0.00000  Uiso   1.00
C277   C     0.78523   0.40119   0.42419   0.00000  Uiso   1.00
C278   C     0.69032   0.35918   0.41015   0.00000  Uiso   1.00
C279   C     0.66195   0.34529   0.44874   0.00000  Uiso   1.00
C280   C     0.57240   0.30591   0.42747   0.00000  Uiso   1.00
C281   C     0.43397   0.24444   0.41444   0.00000  Uiso   1.00
C282   C     0.73880   0.45545   0.37772   0.00000  Uiso   1.00
C283   C     0.75122   0.52252   0.38904   0.00000  Uiso   1.00
C284   C     0.70249   0.56418   0.34047   0.00000  Uiso   1.00
C285   C     0.63940   0.65217   0.27710   0.00000  Uiso   1.00
C286   C     0.85212   0.35795   0.41180   0.00000  Uiso   1.00
C287   C     0.95983   0.34304   0.45177   0.00000  Uiso   1.00
C288   C     0.00652   0.30262   0.43188   0.00000  Uiso   1.00
C289   C     0.11938   0.23922   0.42142   0.00000  Uiso   1.00
C290   C     0.67662   0.35595   0.31781   0.00000  Uiso   1.00
C291   C     0.63133   0.33460   0.35237   0.00000  Uiso   1.00
C292   C     0.54179   0.29523   0.33103   0.00000  Uiso   1.00
C293   C     0.51330   0.28129   0.36958   0.00000  Uiso   1.00
C294   C     0.67981   0.43088   0.31994   0.00000  Uiso   1.00
C295   C     0.63106   0.47245   0.27134   0.00000  Uiso   1.00
C296   C     0.64339   0.53956   0.28258   0.00000  Uiso   1.00
C297   C     0.79313   0.33337   0.35402   0.00000  Uiso   1.00
C298   C     0.83967   0.29297   0.33406   0.00000  Uiso   1.00
C299   C     0.94742   0.27799   0.37399   0.00000  Uiso   1.00
H300   H     0.83115   0.42033   0.46918   0.00000  Uiso   1.00
H301   H     0.70762   0.36433   0.49345   0.00000  Uiso   1.00
H302   H     0.79688   0.54152   0.43376   0.00000  Uiso   1.00
H303   H     0.00546   0.36206   0.49648   0.00000  Uiso   1.00
H304   H     0.54463   0.29142   0.49487   0.00000  Uiso   1.00
H305   H     0.73287   0.66504   0.36901   0.00000  Uiso   1.00
H306   H     0.17269   0.28662   0.50126   0.00000  Uiso   1.00
H307   H     0.63069   0.33681   0.27282   0.00000  Uiso   1.00
H308   H     0.49616   0.27622   0.28632   0.00000  Uiso   1.00
H309   H     0.58542   0.45341   0.22663   0.00000  Uiso   1.00
H310   H     0.79399   0.27396   0.28934   0.00000  Uiso   1.00
H311   H     0.37299   0.21991   0.32675   0.00000  Uiso   1.00
H312   H     0.56124   0.59353   0.20090   0.00000  Uiso   1.00
H313   H     0.00106   0.21511   0.33314   0.00000  Uiso   1.00
O314   O     0.37391   0.21733   0.42322   0.00000  Uiso   1.00
O315   O     0.62090   0.70750   0.25811   0.00000  Uiso   1.00
O316   O     0.19792   0.21103   0.43162   0.00000  Uiso   1.00
N317   N     0.52271   0.28289   0.45345   0.00000  Uiso   1.00
N318   N     0.69869   0.63220   0.33579   0.00000  Uiso   1.00
N319   N     0.10989   0.27843   0.45942   0.00000  Uiso   1.00
N320   N     0.43035   0.24441   0.36299   0.00000  Uiso   1.00
N321   N     0.60634   0.59372   0.24532   0.00000  Uiso   1.00
N322   N     0.01754   0.23995   0.36896   0.00000  Uiso   1.00
C323   C     0.28523   0.90119   0.42419   0.00000  Uiso   1.00
C324   C     0.19032   0.85918   0.41015   0.00000  Uiso   1.00
C325   C     0.16195   0.84529   0.44874   0.00000  Uiso   1.00
C326   C     0.07240   0.80591   0.42747   0.00000  Uiso   1.00
C327   C     0.93397   0.74444   0.41444   0.00000  Uiso   1.00
C328   C     0.23880   0.95545   0.37772   0.00000  Uiso   1.00
C329   C     0.25122   0.02252   0.38904   0.00000  Uiso   1.00
C330   C     0.20249   0.06418   0.34047   0.00000  Uiso   1.00
C331   C     0.13940   0.15217   0.27710   0.00000  Uiso   1.00
C332   C     0.35212   0.85795   0.41180   0.00000  Uiso   1.00
C333   C     0.45983   0.84304   0.45177   0.00000  Uiso   1.00
C334   C     0.50652   0.80262   0.43188   0.00000  Uiso   1.00
C335   C     0.61938   0.73922   0.42142   0.00000  Uiso   1.00
C336   C     0.17662   0.85595   0.31781   0.00000  Uiso   1.00
C337   C     0.13133   0.83460   0.35237   0.00000  Uiso   1.00
C338   C     0.04179   0.79523   0.33103   0.00000  Uiso   1.00
C339   C     0.01330   0.78129   0.36958   0.00000  Uiso   1.00
C340   C     0.17981   0.93088   0.31994   0.00000  Uiso   1.00
C341   C     0.13106   0.97245   0.27134   0.00000  Uiso   1.00
C342   C     0.14339   0.03956   0.28258   0.00000  Uiso   1.00
C343   C     0.29313   0.83337   0.35402   0.00000  Uiso   1.00
C344   C     0.33967   0.79297   0.33406   0.00000  Uiso   1.00
C345   C     0.44742   0.77799   0.37399   0.00000  Uiso   1.00
H346   H     0.33115   0.92033   0.46918   0.00000  Uiso   1.00
H347   H     0.20762   0.86433   0.49345   0.00000  Uiso   1.00
H348   H     0.29688   0.04152   0.43376   0.00000  Uiso   1.00
H349   H     0.50546   0.86206   0.49648   0.00000  Uiso   1.00
H350   H     0.04463   0.79142   0.49487   0.00000  Uiso   1.00
H351   H     0.23287   0.16504   0.36901   0.00000  Uiso   1.00
H352   H     0.67269   0.78662   0.50126   0.00000  Uiso   1.00
H353   H     0.13069   0.83681   0.27282   0.00000  Uiso   1.00
H354   H     0.99616   0.77622   0.28632   0.00000  Uiso   1.00
H355   H     0.08542   0.95341   0.22663   0.00000  Uiso   1.00
H356   H     0.29399   0.77396   0.28934   0.00000  Uiso   1.00
H357   H     0.87299   0.71991   0.32675   0.00000  Uiso   1.00
H358   H     0.06124   0.09353   0.20090   0.00000  Uiso   1.00
H359   H     0.50106   0.71511   0.33314   0.00000  Uiso   1.00
O360   O     0.87391   0.71733   0.42322   0.00000  Uiso   1.00
O361   O     0.12090   0.20750   0.25811   0.00000  Uiso   1.00
O362   O     0.69792   0.71103   0.43162   0.00000  Uiso   1.00
N363   N     0.02271   0.78289   0.45345   0.00000  Uiso   1.00
N364   N     0.19869   0.13220   0.33579   0.00000  Uiso   1.00
N365   N     0.60989   0.77843   0.45942   0.00000  Uiso   1.00
N366   N     0.93035   0.74441   0.36299   0.00000  Uiso   1.00
N367   N     0.10634   0.09372   0.24532   0.00000  Uiso   1.00
N368   N     0.51754   0.73995   0.36896   0.00000  Uiso   1.00
