data_job_01702
_audit_creation_date              2018-12-19
_audit_creation_method            'Materials Studio'
_symmetry_space_group_name_H-M    'P1'
_symmetry_Int_Tables_number       1
_symmetry_cell_setting            triclinic
loop_
_symmetry_equiv_pos_as_xyz
  x,y,z
_cell_length_a                    23.8789
_cell_length_b                    18.1382
_cell_length_c                    12.3256
_cell_angle_alpha                 90.0000
_cell_angle_beta                  90.0000
_cell_angle_gamma                 90.0000
loop_
_atom_site_label
_atom_site_type_symbol
_atom_site_fract_x
_atom_site_fract_y
_atom_site_fract_z
_atom_site_U_iso_or_equiv
_atom_site_adp_type
_atom_site_occupancy
C1     C     0.40224   0.93212   0.05033   0.00000  Uiso   1.00
C2     C     0.37230   0.93842   0.15921   0.00000  Uiso   1.00
C3     C     0.36943   0.00132   0.22309   0.00000  Uiso   1.00
C4     C     0.34005   0.99583   0.31995   0.00000  Uiso   1.00
C5     C     0.29747   0.01565   0.48422   0.00000  Uiso   1.00
C6     C     0.44387   0.86889   0.06240   0.00000  Uiso   1.00
C7     C     0.50118   0.87332   0.04485   0.00000  Uiso   1.00
C8     C     0.53204   0.80929   0.06020   0.00000  Uiso   1.00
C9     C     0.60057   0.72115   0.07408   0.00000  Uiso   1.00
C10    C     0.35829   0.90571   0.96943   0.00000  Uiso   1.00
C11    C     0.34365   0.94109   0.87370   0.00000  Uiso   1.00
C12    C     0.30247   0.90805   0.81076   0.00000  Uiso   1.00
C13    C     0.23812   0.87708   0.68030   0.00000  Uiso   1.00
C14    C     0.35514   0.81052   0.10877   0.00000  Uiso   1.00
C15    C     0.34672   0.87238   0.19095   0.00000  Uiso   1.00
C16    C     0.31733   0.86679   0.28774   0.00000  Uiso   1.00
C17    C     0.31442   0.92966   0.35175   0.00000  Uiso   1.00
C18    C     0.41829   0.80285   0.09414   0.00000  Uiso   1.00
C19    C     0.44907   0.73879   0.10951   0.00000  Uiso   1.00
C20    C     0.50642   0.74312   0.09200   0.00000  Uiso   1.00
C21    C     0.33270   0.83966   0.00117   0.00000  Uiso   1.00
C22    C     0.29154   0.80656   0.93836   0.00000  Uiso   1.00
C23    C     0.27684   0.84188   0.84256   0.00000  Uiso   1.00
H24    H     0.42216   0.98353   0.02562   0.00000  Uiso   1.00
H25    H     0.38924   0.05242   0.19850   0.00000  Uiso   1.00
H26    H     0.52096   0.92443   0.02028   0.00000  Uiso   1.00
H27    H     0.36346   0.99219   0.84917   0.00000  Uiso   1.00
H28    H     0.34148   0.09965   0.40419   0.00000  Uiso   1.00
H29    H     0.61922   0.82979   0.02837   0.00000  Uiso   1.00
H30    H     0.28709   0.97268   0.66753   0.00000  Uiso   1.00
H31    H     0.33523   0.75910   0.13348   0.00000  Uiso   1.00
H32    H     0.29754   0.81567   0.31229   0.00000  Uiso   1.00
H33    H     0.42926   0.68769   0.13407   0.00000  Uiso   1.00
H34    H     0.27176   0.75545   0.96295   0.00000  Uiso   1.00
H35    H     0.26706   0.90750   0.49655   0.00000  Uiso   1.00
H36    H     0.54479   0.63764   0.12072   0.00000  Uiso   1.00
H37    H     0.21266   0.78052   0.75989   0.00000  Uiso   1.00
O38    O     0.28106   0.04483   0.56607   0.00000  Uiso   1.00
O39    O     0.64544   0.69079   0.07298   0.00000  Uiso   1.00
O40    O     0.20969   0.87825   0.59958   0.00000  Uiso   1.00
N41    N     0.32913   0.04667   0.40138   0.00000  Uiso   1.00
N42    N     0.58880   0.79437   0.05003   0.00000  Uiso   1.00
N43    N     0.27830   0.92794   0.71266   0.00000  Uiso   1.00
N44    N     0.28908   0.94328   0.45107   0.00000  Uiso   1.00
N45    N     0.54875   0.69098   0.09972   0.00000  Uiso   1.00
N46    N     0.23825   0.82455   0.76235   0.00000  Uiso   1.00
C47    C     0.09776   0.06788   0.55033   0.00000  Uiso   1.00
C48    C     0.12770   0.06158   0.65921   0.00000  Uiso   1.00
C49    C     0.13057   0.99868   0.72309   0.00000  Uiso   1.00
C50    C     0.15995   0.00417   0.81995   0.00000  Uiso   1.00
C51    C     0.20253   0.98435   0.98422   0.00000  Uiso   1.00
C52    C     0.05613   0.13111   0.56240   0.00000  Uiso   1.00
C53    C     0.99882   0.12668   0.54485   0.00000  Uiso   1.00
C54    C     0.96796   0.19071   0.56020   0.00000  Uiso   1.00
C55    C     0.89943   0.27885   0.57408   0.00000  Uiso   1.00
C56    C     0.14171   0.09429   0.46943   0.00000  Uiso   1.00
C57    C     0.15635   0.05891   0.37370   0.00000  Uiso   1.00
C58    C     0.19753   0.09195   0.31076   0.00000  Uiso   1.00
C59    C     0.26188   0.12292   0.18030   0.00000  Uiso   1.00
C60    C     0.14486   0.18948   0.60877   0.00000  Uiso   1.00
C61    C     0.15328   0.12762   0.69095   0.00000  Uiso   1.00
C62    C     0.18267   0.13321   0.78774   0.00000  Uiso   1.00
C63    C     0.18558   0.07034   0.85175   0.00000  Uiso   1.00
C64    C     0.08171   0.19715   0.59414   0.00000  Uiso   1.00
C65    C     0.05093   0.26121   0.60951   0.00000  Uiso   1.00
C66    C     0.99358   0.25688   0.59200   0.00000  Uiso   1.00
C67    C     0.16730   0.16034   0.50117   0.00000  Uiso   1.00
C68    C     0.20846   0.19344   0.43836   0.00000  Uiso   1.00
C69    C     0.22316   0.15812   0.34256   0.00000  Uiso   1.00
H70    H     0.07784   0.01647   0.52562   0.00000  Uiso   1.00
H71    H     0.11076   0.94758   0.69850   0.00000  Uiso   1.00
H72    H     0.97904   0.07557   0.52028   0.00000  Uiso   1.00
H73    H     0.13654   0.00781   0.34917   0.00000  Uiso   1.00
H74    H     0.15852   0.90035   0.90419   0.00000  Uiso   1.00
H75    H     0.88078   0.17021   0.52837   0.00000  Uiso   1.00
H76    H     0.21291   0.02732   0.16753   0.00000  Uiso   1.00
H77    H     0.16477   0.24090   0.63348   0.00000  Uiso   1.00
H78    H     0.20246   0.18433   0.81229   0.00000  Uiso   1.00
H79    H     0.07074   0.31231   0.63407   0.00000  Uiso   1.00
H80    H     0.22824   0.24455   0.46295   0.00000  Uiso   1.00
H81    H     0.23294   0.09250   0.99655   0.00000  Uiso   1.00
H82    H     0.95521   0.36236   0.62072   0.00000  Uiso   1.00
H83    H     0.28734   0.21948   0.25989   0.00000  Uiso   1.00
O84    O     0.21894   0.95517   0.06607   0.00000  Uiso   1.00
O85    O     0.85456   0.30921   0.57298   0.00000  Uiso   1.00
O86    O     0.29031   0.12175   0.09958   0.00000  Uiso   1.00
N87    N     0.17087   0.95333   0.90138   0.00000  Uiso   1.00
N88    N     0.91120   0.20563   0.55003   0.00000  Uiso   1.00
N89    N     0.22170   0.07206   0.21266   0.00000  Uiso   1.00
N90    N     0.21092   0.05672   0.95107   0.00000  Uiso   1.00
N91    N     0.95125   0.30902   0.59972   0.00000  Uiso   1.00
N92    N     0.26175   0.17545   0.26235   0.00000  Uiso   1.00
C93    C     0.59776   0.43212   0.44967   0.00000  Uiso   1.00
C94    C     0.62770   0.43842   0.34079   0.00000  Uiso   1.00
C95    C     0.63057   0.50132   0.27691   0.00000  Uiso   1.00
C96    C     0.65995   0.49583   0.18005   0.00000  Uiso   1.00
C97    C     0.70253   0.51565   0.01578   0.00000  Uiso   1.00
C98    C     0.55613   0.36889   0.43760   0.00000  Uiso   1.00
C99    C     0.49882   0.37332   0.45515   0.00000  Uiso   1.00
C100   C     0.46796   0.30929   0.43980   0.00000  Uiso   1.00
C101   C     0.39943   0.22115   0.42592   0.00000  Uiso   1.00
C102   C     0.64171   0.40571   0.53057   0.00000  Uiso   1.00
C103   C     0.65635   0.44109   0.62630   0.00000  Uiso   1.00
C104   C     0.69753   0.40805   0.68924   0.00000  Uiso   1.00
C105   C     0.76188   0.37708   0.81970   0.00000  Uiso   1.00
C106   C     0.64486   0.31052   0.39123   0.00000  Uiso   1.00
C107   C     0.65328   0.37238   0.30905   0.00000  Uiso   1.00
C108   C     0.68267   0.36679   0.21226   0.00000  Uiso   1.00
C109   C     0.68558   0.42966   0.14825   0.00000  Uiso   1.00
C110   C     0.58171   0.30285   0.40586   0.00000  Uiso   1.00
C111   C     0.55093   0.23879   0.39049   0.00000  Uiso   1.00
C112   C     0.49358   0.24312   0.40800   0.00000  Uiso   1.00
C113   C     0.66730   0.33966   0.49883   0.00000  Uiso   1.00
C114   C     0.70846   0.30656   0.56164   0.00000  Uiso   1.00
C115   C     0.72316   0.34188   0.65744   0.00000  Uiso   1.00
H116   H     0.57784   0.48353   0.47438   0.00000  Uiso   1.00
H117   H     0.61076   0.55242   0.30150   0.00000  Uiso   1.00
H118   H     0.47904   0.42443   0.47972   0.00000  Uiso   1.00
H119   H     0.63654   0.49219   0.65083   0.00000  Uiso   1.00
H120   H     0.65852   0.59965   0.09581   0.00000  Uiso   1.00
H121   H     0.38078   0.32979   0.47163   0.00000  Uiso   1.00
H122   H     0.71291   0.47268   0.83247   0.00000  Uiso   1.00
H123   H     0.66477   0.25910   0.36652   0.00000  Uiso   1.00
H124   H     0.70246   0.31567   0.18771   0.00000  Uiso   1.00
H125   H     0.57074   0.18769   0.36593   0.00000  Uiso   1.00
H126   H     0.72824   0.25545   0.53705   0.00000  Uiso   1.00
H127   H     0.73294   0.40750   0.00345   0.00000  Uiso   1.00
H128   H     0.45521   0.13764   0.37928   0.00000  Uiso   1.00
H129   H     0.78734   0.28052   0.74011   0.00000  Uiso   1.00
O130   O     0.71894   0.54483   0.93393   0.00000  Uiso   1.00
O131   O     0.35456   0.19079   0.42702   0.00000  Uiso   1.00
O132   O     0.79031   0.37825   0.90042   0.00000  Uiso   1.00
N133   N     0.67087   0.54667   0.09862   0.00000  Uiso   1.00
N134   N     0.41120   0.29437   0.44997   0.00000  Uiso   1.00
N135   N     0.72170   0.42794   0.78734   0.00000  Uiso   1.00
N136   N     0.71092   0.44328   0.04893   0.00000  Uiso   1.00
N137   N     0.45125   0.19098   0.40028   0.00000  Uiso   1.00
N138   N     0.76175   0.32455   0.73765   0.00000  Uiso   1.00
C139   C     0.90224   0.56788   0.94967   0.00000  Uiso   1.00
C140   C     0.87230   0.56158   0.84079   0.00000  Uiso   1.00
C141   C     0.86943   0.49868   0.77691   0.00000  Uiso   1.00
C142   C     0.84005   0.50417   0.68005   0.00000  Uiso   1.00
C143   C     0.79747   0.48435   0.51578   0.00000  Uiso   1.00
C144   C     0.94387   0.63111   0.93760   0.00000  Uiso   1.00
C145   C     0.00118   0.62668   0.95515   0.00000  Uiso   1.00
C146   C     0.03204   0.69071   0.93980   0.00000  Uiso   1.00
C147   C     0.10057   0.77885   0.92592   0.00000  Uiso   1.00
C148   C     0.85829   0.59429   0.03057   0.00000  Uiso   1.00
C149   C     0.84365   0.55891   0.12630   0.00000  Uiso   1.00
C150   C     0.80247   0.59195   0.18924   0.00000  Uiso   1.00
C151   C     0.73812   0.62292   0.31970   0.00000  Uiso   1.00
C152   C     0.85514   0.68948   0.89123   0.00000  Uiso   1.00
C153   C     0.84672   0.62762   0.80905   0.00000  Uiso   1.00
C154   C     0.81733   0.63321   0.71226   0.00000  Uiso   1.00
C155   C     0.81442   0.57034   0.64825   0.00000  Uiso   1.00
C156   C     0.91829   0.69715   0.90586   0.00000  Uiso   1.00
C157   C     0.94907   0.76121   0.89049   0.00000  Uiso   1.00
C158   C     0.00642   0.75688   0.90800   0.00000  Uiso   1.00
C159   C     0.83270   0.66034   0.99883   0.00000  Uiso   1.00
C160   C     0.79154   0.69344   0.06164   0.00000  Uiso   1.00
C161   C     0.77684   0.65812   0.15744   0.00000  Uiso   1.00
H162   H     0.92216   0.51647   0.97438   0.00000  Uiso   1.00
H163   H     0.88924   0.44758   0.80150   0.00000  Uiso   1.00
H164   H     0.02096   0.57557   0.97972   0.00000  Uiso   1.00
H165   H     0.86346   0.50781   0.15083   0.00000  Uiso   1.00
H166   H     0.84148   0.40035   0.59581   0.00000  Uiso   1.00
H167   H     0.11922   0.67021   0.97163   0.00000  Uiso   1.00
H168   H     0.78709   0.52732   0.33247   0.00000  Uiso   1.00
H169   H     0.83523   0.74090   0.86652   0.00000  Uiso   1.00
H170   H     0.79754   0.68433   0.68771   0.00000  Uiso   1.00
H171   H     0.92926   0.81231   0.86593   0.00000  Uiso   1.00
H172   H     0.77176   0.74455   0.03705   0.00000  Uiso   1.00
H173   H     0.76706   0.59250   0.50345   0.00000  Uiso   1.00
H174   H     0.04479   0.86236   0.87928   0.00000  Uiso   1.00
H175   H     0.71266   0.71948   0.24011   0.00000  Uiso   1.00
O176   O     0.78106   0.45517   0.43393   0.00000  Uiso   1.00
O177   O     0.14544   0.80921   0.92702   0.00000  Uiso   1.00
O178   O     0.70969   0.62175   0.40042   0.00000  Uiso   1.00
N179   N     0.82913   0.45333   0.59862   0.00000  Uiso   1.00
N180   N     0.08880   0.70563   0.94997   0.00000  Uiso   1.00
N181   N     0.77830   0.57206   0.28734   0.00000  Uiso   1.00
N182   N     0.78908   0.55672   0.54893   0.00000  Uiso   1.00
N183   N     0.04875   0.80902   0.90028   0.00000  Uiso   1.00
N184   N     0.73825   0.67545   0.23765   0.00000  Uiso   1.00
C185   C     0.59776   0.06788   0.94967   0.00000  Uiso   1.00
C186   C     0.62770   0.06158   0.84079   0.00000  Uiso   1.00
C187   C     0.63057   0.99868   0.77691   0.00000  Uiso   1.00
C188   C     0.65995   0.00417   0.68005   0.00000  Uiso   1.00
C189   C     0.70253   0.98435   0.51578   0.00000  Uiso   1.00
C190   C     0.55613   0.13111   0.93760   0.00000  Uiso   1.00
C191   C     0.49882   0.12668   0.95515   0.00000  Uiso   1.00
C192   C     0.46796   0.19071   0.93980   0.00000  Uiso   1.00
C193   C     0.39943   0.27885   0.92592   0.00000  Uiso   1.00
C194   C     0.64171   0.09429   0.03057   0.00000  Uiso   1.00
C195   C     0.65635   0.05891   0.12630   0.00000  Uiso   1.00
C196   C     0.69753   0.09195   0.18924   0.00000  Uiso   1.00
C197   C     0.76188   0.12292   0.31970   0.00000  Uiso   1.00
C198   C     0.64486   0.18948   0.89123   0.00000  Uiso   1.00
C199   C     0.65328   0.12762   0.80905   0.00000  Uiso   1.00
C200   C     0.68267   0.13321   0.71226   0.00000  Uiso   1.00
C201   C     0.68558   0.07034   0.64825   0.00000  Uiso   1.00
C202   C     0.58171   0.19715   0.90586   0.00000  Uiso   1.00
C203   C     0.55093   0.26121   0.89049   0.00000  Uiso   1.00
C204   C     0.49358   0.25688   0.90800   0.00000  Uiso   1.00
C205   C     0.66730   0.16034   0.99883   0.00000  Uiso   1.00
C206   C     0.70846   0.19344   0.06164   0.00000  Uiso   1.00
C207   C     0.72316   0.15812   0.15744   0.00000  Uiso   1.00
H208   H     0.57784   0.01647   0.97438   0.00000  Uiso   1.00
H209   H     0.61076   0.94758   0.80150   0.00000  Uiso   1.00
H210   H     0.47904   0.07557   0.97972   0.00000  Uiso   1.00
H211   H     0.63654   0.00781   0.15083   0.00000  Uiso   1.00
H212   H     0.65852   0.90035   0.59581   0.00000  Uiso   1.00
H213   H     0.38078   0.17021   0.97163   0.00000  Uiso   1.00
H214   H     0.71291   0.02732   0.33247   0.00000  Uiso   1.00
H215   H     0.66477   0.24090   0.86652   0.00000  Uiso   1.00
H216   H     0.70246   0.18433   0.68771   0.00000  Uiso   1.00
H217   H     0.57074   0.31231   0.86593   0.00000  Uiso   1.00
H218   H     0.72824   0.24455   0.03705   0.00000  Uiso   1.00
H219   H     0.73294   0.09250   0.50345   0.00000  Uiso   1.00
H220   H     0.45521   0.36236   0.87928   0.00000  Uiso   1.00
H221   H     0.78734   0.21948   0.24011   0.00000  Uiso   1.00
O222   O     0.71894   0.95517   0.43393   0.00000  Uiso   1.00
O223   O     0.35456   0.30921   0.92702   0.00000  Uiso   1.00
O224   O     0.79031   0.12175   0.40042   0.00000  Uiso   1.00
N225   N     0.67087   0.95333   0.59862   0.00000  Uiso   1.00
N226   N     0.41120   0.20563   0.94997   0.00000  Uiso   1.00
N227   N     0.72170   0.07206   0.28734   0.00000  Uiso   1.00
N228   N     0.71092   0.05672   0.54893   0.00000  Uiso   1.00
N229   N     0.45125   0.30902   0.90028   0.00000  Uiso   1.00
N230   N     0.76175   0.17545   0.23765   0.00000  Uiso   1.00
C231   C     0.90224   0.93212   0.44967   0.00000  Uiso   1.00
C232   C     0.87230   0.93842   0.34079   0.00000  Uiso   1.00
C233   C     0.86943   0.00132   0.27691   0.00000  Uiso   1.00
C234   C     0.84005   0.99583   0.18005   0.00000  Uiso   1.00
C235   C     0.79747   0.01565   0.01578   0.00000  Uiso   1.00
C236   C     0.94387   0.86889   0.43760   0.00000  Uiso   1.00
C237   C     0.00118   0.87332   0.45515   0.00000  Uiso   1.00
C238   C     0.03204   0.80929   0.43980   0.00000  Uiso   1.00
C239   C     0.10057   0.72115   0.42592   0.00000  Uiso   1.00
C240   C     0.85829   0.90571   0.53057   0.00000  Uiso   1.00
C241   C     0.84365   0.94109   0.62630   0.00000  Uiso   1.00
C242   C     0.80247   0.90805   0.68924   0.00000  Uiso   1.00
C243   C     0.73812   0.87708   0.81970   0.00000  Uiso   1.00
C244   C     0.85514   0.81052   0.39123   0.00000  Uiso   1.00
C245   C     0.84672   0.87238   0.30905   0.00000  Uiso   1.00
C246   C     0.81733   0.86679   0.21226   0.00000  Uiso   1.00
C247   C     0.81442   0.92966   0.14825   0.00000  Uiso   1.00
C248   C     0.91829   0.80285   0.40586   0.00000  Uiso   1.00
C249   C     0.94907   0.73879   0.39049   0.00000  Uiso   1.00
C250   C     0.00642   0.74312   0.40800   0.00000  Uiso   1.00
C251   C     0.83270   0.83966   0.49883   0.00000  Uiso   1.00
C252   C     0.79154   0.80656   0.56164   0.00000  Uiso   1.00
C253   C     0.77684   0.84188   0.65744   0.00000  Uiso   1.00
H254   H     0.92216   0.98353   0.47438   0.00000  Uiso   1.00
H255   H     0.88924   0.05242   0.30150   0.00000  Uiso   1.00
H256   H     0.02096   0.92443   0.47972   0.00000  Uiso   1.00
H257   H     0.86346   0.99219   0.65083   0.00000  Uiso   1.00
H258   H     0.84148   0.09965   0.09581   0.00000  Uiso   1.00
H259   H     0.11922   0.82979   0.47163   0.00000  Uiso   1.00
H260   H     0.78709   0.97268   0.83247   0.00000  Uiso   1.00
H261   H     0.83523   0.75910   0.36652   0.00000  Uiso   1.00
H262   H     0.79754   0.81567   0.18771   0.00000  Uiso   1.00
H263   H     0.92926   0.68769   0.36593   0.00000  Uiso   1.00
H264   H     0.77176   0.75545   0.53705   0.00000  Uiso   1.00
H265   H     0.76706   0.90750   0.00345   0.00000  Uiso   1.00
H266   H     0.04479   0.63764   0.37928   0.00000  Uiso   1.00
H267   H     0.71266   0.78052   0.74011   0.00000  Uiso   1.00
O268   O     0.78106   0.04483   0.93393   0.00000  Uiso   1.00
O269   O     0.14544   0.69079   0.42702   0.00000  Uiso   1.00
O270   O     0.70969   0.87825   0.90042   0.00000  Uiso   1.00
N271   N     0.82913   0.04667   0.09862   0.00000  Uiso   1.00
N272   N     0.08880   0.79437   0.44997   0.00000  Uiso   1.00
N273   N     0.77830   0.92794   0.78734   0.00000  Uiso   1.00
N274   N     0.78908   0.94328   0.04893   0.00000  Uiso   1.00
N275   N     0.04875   0.69098   0.40028   0.00000  Uiso   1.00
N276   N     0.73825   0.82455   0.73765   0.00000  Uiso   1.00
C277   C     0.40224   0.56788   0.55033   0.00000  Uiso   1.00
C278   C     0.37230   0.56158   0.65921   0.00000  Uiso   1.00
C279   C     0.36943   0.49868   0.72309   0.00000  Uiso   1.00
C280   C     0.34005   0.50417   0.81995   0.00000  Uiso   1.00
C281   C     0.29747   0.48435   0.98422   0.00000  Uiso   1.00
C282   C     0.44387   0.63111   0.56240   0.00000  Uiso   1.00
C283   C     0.50118   0.62668   0.54485   0.00000  Uiso   1.00
C284   C     0.53204   0.69071   0.56020   0.00000  Uiso   1.00
C285   C     0.60057   0.77885   0.57408   0.00000  Uiso   1.00
C286   C     0.35829   0.59429   0.46943   0.00000  Uiso   1.00
C287   C     0.34365   0.55891   0.37370   0.00000  Uiso   1.00
C288   C     0.30247   0.59195   0.31076   0.00000  Uiso   1.00
C289   C     0.23812   0.62292   0.18030   0.00000  Uiso   1.00
C290   C     0.35514   0.68948   0.60877   0.00000  Uiso   1.00
C291   C     0.34672   0.62762   0.69095   0.00000  Uiso   1.00
C292   C     0.31733   0.63321   0.78774   0.00000  Uiso   1.00
C293   C     0.31442   0.57034   0.85175   0.00000  Uiso   1.00
C294   C     0.41829   0.69715   0.59414   0.00000  Uiso   1.00
C295   C     0.44907   0.76121   0.60951   0.00000  Uiso   1.00
C296   C     0.50642   0.75688   0.59200   0.00000  Uiso   1.00
C297   C     0.33270   0.66034   0.50117   0.00000  Uiso   1.00
C298   C     0.29154   0.69344   0.43836   0.00000  Uiso   1.00
C299   C     0.27684   0.65812   0.34256   0.00000  Uiso   1.00
H300   H     0.42216   0.51647   0.52562   0.00000  Uiso   1.00
H301   H     0.38924   0.44758   0.69850   0.00000  Uiso   1.00
H302   H     0.52096   0.57557   0.52028   0.00000  Uiso   1.00
H303   H     0.36346   0.50781   0.34917   0.00000  Uiso   1.00
H304   H     0.34148   0.40035   0.90419   0.00000  Uiso   1.00
H305   H     0.61922   0.67021   0.52837   0.00000  Uiso   1.00
H306   H     0.28709   0.52732   0.16753   0.00000  Uiso   1.00
H307   H     0.33523   0.74090   0.63348   0.00000  Uiso   1.00
H308   H     0.29754   0.68433   0.81229   0.00000  Uiso   1.00
H309   H     0.42926   0.81231   0.63407   0.00000  Uiso   1.00
H310   H     0.27176   0.74455   0.46295   0.00000  Uiso   1.00
H311   H     0.26706   0.59250   0.99655   0.00000  Uiso   1.00
H312   H     0.54479   0.86236   0.62072   0.00000  Uiso   1.00
H313   H     0.21266   0.71948   0.25989   0.00000  Uiso   1.00
O314   O     0.28106   0.45517   0.06607   0.00000  Uiso   1.00
O315   O     0.64544   0.80921   0.57298   0.00000  Uiso   1.00
O316   O     0.20969   0.62175   0.09958   0.00000  Uiso   1.00
N317   N     0.32913   0.45333   0.90138   0.00000  Uiso   1.00
N318   N     0.58880   0.70563   0.55003   0.00000  Uiso   1.00
N319   N     0.27830   0.57206   0.21266   0.00000  Uiso   1.00
N320   N     0.28908   0.55672   0.95107   0.00000  Uiso   1.00
N321   N     0.54875   0.80902   0.59972   0.00000  Uiso   1.00
N322   N     0.23825   0.67545   0.26235   0.00000  Uiso   1.00
C323   C     0.09776   0.43212   0.05033   0.00000  Uiso   1.00
C324   C     0.12770   0.43842   0.15921   0.00000  Uiso   1.00
C325   C     0.13057   0.50132   0.22309   0.00000  Uiso   1.00
C326   C     0.15995   0.49583   0.31995   0.00000  Uiso   1.00
C327   C     0.20253   0.51565   0.48422   0.00000  Uiso   1.00
C328   C     0.05613   0.36889   0.06240   0.00000  Uiso   1.00
C329   C     0.99882   0.37332   0.04485   0.00000  Uiso   1.00
C330   C     0.96796   0.30929   0.06020   0.00000  Uiso   1.00
C331   C     0.89943   0.22115   0.07408   0.00000  Uiso   1.00
C332   C     0.14171   0.40571   0.96943   0.00000  Uiso   1.00
C333   C     0.15635   0.44109   0.87370   0.00000  Uiso   1.00
C334   C     0.19753   0.40805   0.81076   0.00000  Uiso   1.00
C335   C     0.26188   0.37708   0.68030   0.00000  Uiso   1.00
C336   C     0.14486   0.31052   0.10877   0.00000  Uiso   1.00
C337   C     0.15328   0.37238   0.19095   0.00000  Uiso   1.00
C338   C     0.18267   0.36679   0.28774   0.00000  Uiso   1.00
C339   C     0.18558   0.42966   0.35175   0.00000  Uiso   1.00
C340   C     0.08171   0.30285   0.09414   0.00000  Uiso   1.00
C341   C     0.05093   0.23879   0.10951   0.00000  Uiso   1.00
C342   C     0.99358   0.24312   0.09200   0.00000  Uiso   1.00
C343   C     0.16730   0.33966   0.00117   0.00000  Uiso   1.00
C344   C     0.20846   0.30656   0.93836   0.00000  Uiso   1.00
C345   C     0.22316   0.34188   0.84256   0.00000  Uiso   1.00
H346   H     0.07784   0.48353   0.02562   0.00000  Uiso   1.00
H347   H     0.11076   0.55242   0.19850   0.00000  Uiso   1.00
H348   H     0.97904   0.42443   0.02028   0.00000  Uiso   1.00
H349   H     0.13654   0.49219   0.84917   0.00000  Uiso   1.00
H350   H     0.15852   0.59965   0.40419   0.00000  Uiso   1.00
H351   H     0.88078   0.32979   0.02837   0.00000  Uiso   1.00
H352   H     0.21291   0.47268   0.66753   0.00000  Uiso   1.00
H353   H     0.16477   0.25910   0.13348   0.00000  Uiso   1.00
H354   H     0.20246   0.31567   0.31229   0.00000  Uiso   1.00
H355   H     0.07074   0.18769   0.13407   0.00000  Uiso   1.00
H356   H     0.22824   0.25545   0.96295   0.00000  Uiso   1.00
H357   H     0.23294   0.40750   0.49655   0.00000  Uiso   1.00
H358   H     0.95521   0.13764   0.12072   0.00000  Uiso   1.00
H359   H     0.28734   0.28052   0.75989   0.00000  Uiso   1.00
O360   O     0.21894   0.54483   0.56607   0.00000  Uiso   1.00
O361   O     0.85456   0.19079   0.07298   0.00000  Uiso   1.00
O362   O     0.29031   0.37825   0.59958   0.00000  Uiso   1.00
N363   N     0.17087   0.54667   0.40138   0.00000  Uiso   1.00
N364   N     0.91120   0.29437   0.05003   0.00000  Uiso   1.00
N365   N     0.22170   0.42794   0.71266   0.00000  Uiso   1.00
N366   N     0.21092   0.44328   0.45107   0.00000  Uiso   1.00
N367   N     0.95125   0.19098   0.09972   0.00000  Uiso   1.00
N368   N     0.26175   0.32455   0.76235   0.00000  Uiso   1.00
