data_job_00834
_audit_creation_date              2018-12-19
_audit_creation_method            'Materials Studio'
_symmetry_space_group_name_H-M    'P1'
_symmetry_Int_Tables_number       1
_symmetry_cell_setting            triclinic
loop_
_symmetry_equiv_pos_as_xyz
  x,y,z
_cell_length_a                    15.6487
_cell_length_b                    7.8623
_cell_length_c                    19.1355
_cell_angle_alpha                 90.0000
_cell_angle_beta                  99.2985
_cell_angle_gamma                 90.0000
loop_
_atom_site_label
_atom_site_type_symbol
_atom_site_fract_x
_atom_site_fract_y
_atom_site_fract_z
_atom_site_U_iso_or_equiv
_atom_site_adp_type
_atom_site_occupancy
C1     C     0.74212   0.56174   0.78018   0.00000  Uiso   1.00
C2     C     0.75085   0.45773   0.71444   0.00000  Uiso   1.00
C3     C     0.72317   0.50754   0.64489   0.00000  Uiso   1.00
C4     C     0.73707   0.39422   0.59223   0.00000  Uiso   1.00
C5     C     0.74449   0.25662   0.48766   0.00000  Uiso   1.00
C6     C     0.69271   0.44976   0.82507   0.00000  Uiso   1.00
C7     C     0.61615   0.49290   0.84854   0.00000  Uiso   1.00
C8     C     0.58111   0.37288   0.88901   0.00000  Uiso   1.00
C9     C     0.49829   0.22297   0.95624   0.00000  Uiso   1.00
C10    C     0.83345   0.57912   0.82169   0.00000  Uiso   1.00
C11    C     0.87522   0.73101   0.84233   0.00000  Uiso   1.00
C12    C     0.95867   0.71990   0.87997   0.00000  Uiso   1.00
C13    C     0.09437   0.77084   0.94195   0.00000  Uiso   1.00
C14    C     0.81605   0.27192   0.81032   0.00000  Uiso   1.00
C15    C     0.79101   0.30030   0.73082   0.00000  Uiso   1.00
C16    C     0.80496   0.18688   0.67824   0.00000  Uiso   1.00
C17    C     0.77730   0.23652   0.60863   0.00000  Uiso   1.00
C18    C     0.73286   0.29235   0.84144   0.00000  Uiso   1.00
C19    C     0.69794   0.17224   0.88189   0.00000  Uiso   1.00
C20    C     0.62134   0.21518   0.90541   0.00000  Uiso   1.00
C21    C     0.87361   0.42170   0.83806   0.00000  Uiso   1.00
C22    C     0.95701   0.41036   0.87568   0.00000  Uiso   1.00
C23    C     0.99890   0.56220   0.89637   0.00000  Uiso   1.00
H24    H     0.71086   0.68429   0.76744   0.00000  Uiso   1.00
H25    H     0.69209   0.62937   0.63225   0.00000  Uiso   1.00
H26    H     0.58509   0.61473   0.83587   0.00000  Uiso   1.00
H27    H     0.84412   0.85281   0.82965   0.00000  Uiso   1.00
H28    H     0.68896   0.49902   0.48958   0.00000  Uiso   1.00
H29    H     0.46337   0.46819   0.91895   0.00000  Uiso   1.00
H30    H     0.00958   0.97022   0.90585   0.00000  Uiso   1.00
H31    H     0.84731   0.14936   0.82307   0.00000  Uiso   1.00
H32    H     0.83603   0.06507   0.69093   0.00000  Uiso   1.00
H33    H     0.72903   0.05044   0.89455   0.00000  Uiso   1.00
H34    H     0.98806   0.28852   0.88834   0.00000  Uiso   1.00
H35    H     0.80579   0.04101   0.53721   0.00000  Uiso   1.00
H36    H     0.58019   0.01019   0.96658   0.00000  Uiso   1.00
H37    H     0.12641   0.51221   0.95348   0.00000  Uiso   1.00
O38    O     0.73747   0.22420   0.42547   0.00000  Uiso   1.00
O39    O     0.44151   0.18377   0.98879   0.00000  Uiso   1.00
O40    O     0.15813   0.84242   0.97160   0.00000  Uiso   1.00
N41    N     0.71802   0.40281   0.51893   0.00000  Uiso   1.00
N42    N     0.50710   0.37397   0.92035   0.00000  Uiso   1.00
N43    N     0.01775   0.84333   0.90812   0.00000  Uiso   1.00
N44    N     0.78089   0.15636   0.54455   0.00000  Uiso   1.00
N45    N     0.56996   0.12752   0.94597   0.00000  Uiso   1.00
N46    N     0.08062   0.59688   0.93375   0.00000  Uiso   1.00
C47    C     0.25788   0.56174   0.71982   0.00000  Uiso   1.00
C48    C     0.24915   0.45773   0.78556   0.00000  Uiso   1.00
C49    C     0.27683   0.50754   0.85511   0.00000  Uiso   1.00
C50    C     0.26293   0.39422   0.90777   0.00000  Uiso   1.00
C51    C     0.25551   0.25662   0.01234   0.00000  Uiso   1.00
C52    C     0.30729   0.44976   0.67493   0.00000  Uiso   1.00
C53    C     0.38385   0.49290   0.65146   0.00000  Uiso   1.00
C54    C     0.41889   0.37288   0.61099   0.00000  Uiso   1.00
C55    C     0.50171   0.22297   0.54376   0.00000  Uiso   1.00
C56    C     0.16655   0.57912   0.67831   0.00000  Uiso   1.00
C57    C     0.12478   0.73101   0.65767   0.00000  Uiso   1.00
C58    C     0.04133   0.71990   0.62003   0.00000  Uiso   1.00
C59    C     0.90563   0.77084   0.55805   0.00000  Uiso   1.00
C60    C     0.18395   0.27192   0.68968   0.00000  Uiso   1.00
C61    C     0.20899   0.30030   0.76918   0.00000  Uiso   1.00
C62    C     0.19504   0.18688   0.82176   0.00000  Uiso   1.00
C63    C     0.22270   0.23652   0.89137   0.00000  Uiso   1.00
C64    C     0.26714   0.29235   0.65856   0.00000  Uiso   1.00
C65    C     0.30206   0.17224   0.61811   0.00000  Uiso   1.00
C66    C     0.37866   0.21518   0.59459   0.00000  Uiso   1.00
C67    C     0.12639   0.42170   0.66194   0.00000  Uiso   1.00
C68    C     0.04299   0.41036   0.62432   0.00000  Uiso   1.00
C69    C     0.00110   0.56220   0.60363   0.00000  Uiso   1.00
H70    H     0.28914   0.68429   0.73256   0.00000  Uiso   1.00
H71    H     0.30791   0.62937   0.86775   0.00000  Uiso   1.00
H72    H     0.41491   0.61473   0.66413   0.00000  Uiso   1.00
H73    H     0.15588   0.85281   0.67035   0.00000  Uiso   1.00
H74    H     0.31104   0.49902   0.01042   0.00000  Uiso   1.00
H75    H     0.53663   0.46819   0.58105   0.00000  Uiso   1.00
H76    H     0.99042   0.97022   0.59415   0.00000  Uiso   1.00
H77    H     0.15269   0.14936   0.67693   0.00000  Uiso   1.00
H78    H     0.16397   0.06507   0.80907   0.00000  Uiso   1.00
H79    H     0.27097   0.05044   0.60545   0.00000  Uiso   1.00
H80    H     0.01194   0.28852   0.61166   0.00000  Uiso   1.00
H81    H     0.19421   0.04101   0.96279   0.00000  Uiso   1.00
H82    H     0.41981   0.01019   0.53342   0.00000  Uiso   1.00
H83    H     0.87359   0.51221   0.54652   0.00000  Uiso   1.00
O84    O     0.26253   0.22420   0.07453   0.00000  Uiso   1.00
O85    O     0.55849   0.18377   0.51121   0.00000  Uiso   1.00
O86    O     0.84187   0.84242   0.52840   0.00000  Uiso   1.00
N87    N     0.28198   0.40281   0.98107   0.00000  Uiso   1.00
N88    N     0.49290   0.37397   0.57965   0.00000  Uiso   1.00
N89    N     0.98225   0.84333   0.59188   0.00000  Uiso   1.00
N90    N     0.21911   0.15636   0.95545   0.00000  Uiso   1.00
N91    N     0.43004   0.12752   0.55403   0.00000  Uiso   1.00
N92    N     0.91938   0.59688   0.56625   0.00000  Uiso   1.00
C93    C     0.25788   0.43826   0.21982   0.00000  Uiso   1.00
C94    C     0.24915   0.54227   0.28556   0.00000  Uiso   1.00
C95    C     0.27683   0.49246   0.35511   0.00000  Uiso   1.00
C96    C     0.26293   0.60578   0.40777   0.00000  Uiso   1.00
C97    C     0.25551   0.74338   0.51234   0.00000  Uiso   1.00
C98    C     0.30729   0.55024   0.17493   0.00000  Uiso   1.00
C99    C     0.38385   0.50710   0.15146   0.00000  Uiso   1.00
C100   C     0.41889   0.62712   0.11099   0.00000  Uiso   1.00
C101   C     0.50171   0.77703   0.04376   0.00000  Uiso   1.00
C102   C     0.16655   0.42088   0.17831   0.00000  Uiso   1.00
C103   C     0.12478   0.26899   0.15767   0.00000  Uiso   1.00
C104   C     0.04133   0.28010   0.12003   0.00000  Uiso   1.00
C105   C     0.90563   0.22916   0.05805   0.00000  Uiso   1.00
C106   C     0.18395   0.72808   0.18968   0.00000  Uiso   1.00
C107   C     0.20899   0.69970   0.26918   0.00000  Uiso   1.00
C108   C     0.19504   0.81312   0.32176   0.00000  Uiso   1.00
C109   C     0.22270   0.76348   0.39137   0.00000  Uiso   1.00
C110   C     0.26714   0.70765   0.15856   0.00000  Uiso   1.00
C111   C     0.30206   0.82776   0.11811   0.00000  Uiso   1.00
C112   C     0.37866   0.78482   0.09459   0.00000  Uiso   1.00
C113   C     0.12639   0.57830   0.16194   0.00000  Uiso   1.00
C114   C     0.04299   0.58964   0.12432   0.00000  Uiso   1.00
C115   C     0.00110   0.43780   0.10363   0.00000  Uiso   1.00
H116   H     0.28914   0.31571   0.23256   0.00000  Uiso   1.00
H117   H     0.30791   0.37063   0.36775   0.00000  Uiso   1.00
H118   H     0.41491   0.38527   0.16413   0.00000  Uiso   1.00
H119   H     0.15588   0.14719   0.17035   0.00000  Uiso   1.00
H120   H     0.31104   0.50098   0.51042   0.00000  Uiso   1.00
H121   H     0.53663   0.53181   0.08105   0.00000  Uiso   1.00
H122   H     0.99042   0.02978   0.09415   0.00000  Uiso   1.00
H123   H     0.15269   0.85064   0.17693   0.00000  Uiso   1.00
H124   H     0.16397   0.93493   0.30907   0.00000  Uiso   1.00
H125   H     0.27097   0.94956   0.10545   0.00000  Uiso   1.00
H126   H     0.01194   0.71148   0.11166   0.00000  Uiso   1.00
H127   H     0.19421   0.95899   0.46279   0.00000  Uiso   1.00
H128   H     0.41981   0.98981   0.03342   0.00000  Uiso   1.00
H129   H     0.87359   0.48779   0.04652   0.00000  Uiso   1.00
O130   O     0.26253   0.77580   0.57453   0.00000  Uiso   1.00
O131   O     0.55849   0.81623   0.01121   0.00000  Uiso   1.00
O132   O     0.84187   0.15758   0.02840   0.00000  Uiso   1.00
N133   N     0.28198   0.59719   0.48107   0.00000  Uiso   1.00
N134   N     0.49290   0.62603   0.07965   0.00000  Uiso   1.00
N135   N     0.98225   0.15667   0.09188   0.00000  Uiso   1.00
N136   N     0.21911   0.84364   0.45545   0.00000  Uiso   1.00
N137   N     0.43004   0.87248   0.05403   0.00000  Uiso   1.00
N138   N     0.91938   0.40312   0.06625   0.00000  Uiso   1.00
C139   C     0.74212   0.43826   0.28018   0.00000  Uiso   1.00
C140   C     0.75085   0.54227   0.21444   0.00000  Uiso   1.00
C141   C     0.72317   0.49246   0.14489   0.00000  Uiso   1.00
C142   C     0.73707   0.60578   0.09223   0.00000  Uiso   1.00
C143   C     0.74449   0.74338   0.98766   0.00000  Uiso   1.00
C144   C     0.69271   0.55024   0.32507   0.00000  Uiso   1.00
C145   C     0.61615   0.50710   0.34854   0.00000  Uiso   1.00
C146   C     0.58111   0.62712   0.38901   0.00000  Uiso   1.00
C147   C     0.49829   0.77703   0.45624   0.00000  Uiso   1.00
C148   C     0.83345   0.42088   0.32169   0.00000  Uiso   1.00
C149   C     0.87522   0.26899   0.34233   0.00000  Uiso   1.00
C150   C     0.95867   0.28010   0.37997   0.00000  Uiso   1.00
C151   C     0.09437   0.22916   0.44195   0.00000  Uiso   1.00
C152   C     0.81605   0.72808   0.31032   0.00000  Uiso   1.00
C153   C     0.79101   0.69970   0.23082   0.00000  Uiso   1.00
C154   C     0.80496   0.81312   0.17824   0.00000  Uiso   1.00
C155   C     0.77730   0.76348   0.10863   0.00000  Uiso   1.00
C156   C     0.73286   0.70765   0.34144   0.00000  Uiso   1.00
C157   C     0.69794   0.82776   0.38189   0.00000  Uiso   1.00
C158   C     0.62134   0.78482   0.40541   0.00000  Uiso   1.00
C159   C     0.87361   0.57830   0.33806   0.00000  Uiso   1.00
C160   C     0.95701   0.58964   0.37568   0.00000  Uiso   1.00
C161   C     0.99890   0.43780   0.39637   0.00000  Uiso   1.00
H162   H     0.71086   0.31571   0.26744   0.00000  Uiso   1.00
H163   H     0.69209   0.37063   0.13225   0.00000  Uiso   1.00
H164   H     0.58509   0.38527   0.33587   0.00000  Uiso   1.00
H165   H     0.84412   0.14719   0.32965   0.00000  Uiso   1.00
H166   H     0.68896   0.50098   0.98958   0.00000  Uiso   1.00
H167   H     0.46337   0.53181   0.41895   0.00000  Uiso   1.00
H168   H     0.00958   0.02978   0.40585   0.00000  Uiso   1.00
H169   H     0.84731   0.85064   0.32307   0.00000  Uiso   1.00
H170   H     0.83603   0.93493   0.19093   0.00000  Uiso   1.00
H171   H     0.72903   0.94956   0.39455   0.00000  Uiso   1.00
H172   H     0.98806   0.71148   0.38834   0.00000  Uiso   1.00
H173   H     0.80579   0.95899   0.03721   0.00000  Uiso   1.00
H174   H     0.58019   0.98981   0.46658   0.00000  Uiso   1.00
H175   H     0.12641   0.48779   0.45348   0.00000  Uiso   1.00
O176   O     0.73747   0.77580   0.92547   0.00000  Uiso   1.00
O177   O     0.44151   0.81623   0.48879   0.00000  Uiso   1.00
O178   O     0.15813   0.15758   0.47160   0.00000  Uiso   1.00
N179   N     0.71802   0.59719   0.01893   0.00000  Uiso   1.00
N180   N     0.50710   0.62603   0.42035   0.00000  Uiso   1.00
N181   N     0.01775   0.15667   0.40812   0.00000  Uiso   1.00
N182   N     0.78089   0.84364   0.04455   0.00000  Uiso   1.00
N183   N     0.56996   0.87248   0.44597   0.00000  Uiso   1.00
N184   N     0.08062   0.40312   0.43375   0.00000  Uiso   1.00
