data_job_06293
_audit_creation_date              2018-12-19
_audit_creation_method            'Materials Studio'
_symmetry_space_group_name_H-M    'P1'
_symmetry_Int_Tables_number       1
_symmetry_cell_setting            triclinic
loop_
_symmetry_equiv_pos_as_xyz
  x,y,z
_cell_length_a                    12.1254
_cell_length_b                    22.9418
_cell_length_c                    23.7144
_cell_angle_alpha                 64.6420
_cell_angle_beta                  80.1696
_cell_angle_gamma                 97.6469
loop_
_atom_site_label
_atom_site_type_symbol
_atom_site_fract_x
_atom_site_fract_y
_atom_site_fract_z
_atom_site_U_iso_or_equiv
_atom_site_adp_type
_atom_site_occupancy
C1     C     0.85247   0.48514   0.13125   0.00000  Uiso   1.00
C2     C     0.94734   0.51628   0.15144   0.00000  Uiso   1.00
C3     C     0.06450   0.52344   0.12972   0.00000  Uiso   1.00
C4     C     0.13736   0.55323   0.15397   0.00000  Uiso   1.00
C5     C     0.29120   0.59830   0.17854   0.00000  Uiso   1.00
C6     C     0.78380   0.53743   0.10482   0.00000  Uiso   1.00
C7     C     0.76344   0.56237   0.04391   0.00000  Uiso   1.00
C8     C     0.69862   0.60996   0.02892   0.00000  Uiso   1.00
C9     C     0.59849   0.68783   0.98113   0.00000  Uiso   1.00
C10    C     0.77217   0.42925   0.19345   0.00000  Uiso   1.00
C11    C     0.74201   0.36322   0.20706   0.00000  Uiso   1.00
C12    C     0.66737   0.31973   0.26668   0.00000  Uiso   1.00
C13    C     0.54918   0.22962   0.35650   0.00000  Uiso   1.00
C14    C     0.77353   0.52532   0.21292   0.00000  Uiso   1.00
C15    C     0.90446   0.53810   0.19580   0.00000  Uiso   1.00
C16    C     0.97717   0.56789   0.22008   0.00000  Uiso   1.00
C17    C     0.09441   0.57509   0.19841   0.00000  Uiso   1.00
C18    C     0.74093   0.55926   0.14918   0.00000  Uiso   1.00
C19    C     0.67611   0.60682   0.13427   0.00000  Uiso   1.00
C20    C     0.65567   0.63183   0.07335   0.00000  Uiso   1.00
C21    C     0.72930   0.45107   0.23781   0.00000  Uiso   1.00
C22    C     0.65468   0.40767   0.29742   0.00000  Uiso   1.00
C23    C     0.62442   0.34159   0.31112   0.00000  Uiso   1.00
H24    H     0.88584   0.46815   0.09671   0.00000  Uiso   1.00
H25    H     0.09764   0.50655   0.09539   0.00000  Uiso   1.00
H26    H     0.79662   0.54547   0.00960   0.00000  Uiso   1.00
H27    H     0.77520   0.34635   0.17272   0.00000  Uiso   1.00
H28    H     0.31356   0.55877   0.11347   0.00000  Uiso   1.00
H29    H     0.67881   0.64081   0.93258   0.00000  Uiso   1.00
H30    H     0.63363   0.22093   0.27655   0.00000  Uiso   1.00
H31    H     0.74015   0.54231   0.24746   0.00000  Uiso   1.00
H32    H     0.94397   0.58478   0.25441   0.00000  Uiso   1.00
H33    H     0.64295   0.62369   0.16861   0.00000  Uiso   1.00
H34    H     0.62152   0.42458   0.33173   0.00000  Uiso   1.00
H35    H     0.18883   0.62226   0.24253   0.00000  Uiso   1.00
H36    H     0.55407   0.70430   0.06164   0.00000  Uiso   1.00
H37    H     0.50890   0.28442   0.40561   0.00000  Uiso   1.00
O38    O     0.38790   0.61713   0.17984   0.00000  Uiso   1.00
O39    O     0.55511   0.72476   0.94252   0.00000  Uiso   1.00
O40    O     0.49585   0.17389   0.39380   0.00000  Uiso   1.00
N41    N     0.25623   0.56787   0.14290   0.00000  Uiso   1.00
N42    N     0.66279   0.64458   0.97377   0.00000  Uiso   1.00
N43    N     0.62053   0.25203   0.29535   0.00000  Uiso   1.00
N44    N     0.18912   0.60203   0.21235   0.00000  Uiso   1.00
N45    N     0.59568   0.67875   0.04322   0.00000  Uiso   1.00
N46    N     0.55342   0.28620   0.36480   0.00000  Uiso   1.00
C47    C     0.38553   0.40465   0.46221   0.00000  Uiso   1.00
C48    C     0.44519   0.34966   0.49565   0.00000  Uiso   1.00
C49    C     0.55119   0.35844   0.50928   0.00000  Uiso   1.00
C50    C     0.59093   0.30184   0.54017   0.00000  Uiso   1.00
C51    C     0.69327   0.22605   0.58960   0.00000  Uiso   1.00
C52    C     0.26779   0.38694   0.50814   0.00000  Uiso   1.00
C53    C     0.22463   0.42708   0.53226   0.00000  Uiso   1.00
C54    C     0.11503   0.40185   0.57364   0.00000  Uiso   1.00
C55    C     0.94192   0.38397   0.64242   0.00000  Uiso   1.00
C56    C     0.36281   0.39773   0.40382   0.00000  Uiso   1.00
C57    C     0.39953   0.44695   0.34022   0.00000  Uiso   1.00
C58    C     0.36991   0.43082   0.29377   0.00000  Uiso   1.00
C59    C     0.34435   0.42970   0.20058   0.00000  Uiso   1.00
C60    C     0.26762   0.28849   0.49282   0.00000  Uiso   1.00
C61    C     0.38114   0.28656   0.51228   0.00000  Uiso   1.00
C62    C     0.42073   0.22993   0.54315   0.00000  Uiso   1.00
C63    C     0.52677   0.23863   0.55682   0.00000  Uiso   1.00
C64    C     0.20374   0.32385   0.52476   0.00000  Uiso   1.00
C65    C     0.09417   0.29856   0.56612   0.00000  Uiso   1.00
C66    C     0.05087   0.33865   0.59030   0.00000  Uiso   1.00
C67    C     0.29877   0.33464   0.42044   0.00000  Uiso   1.00
C68    C     0.26908   0.31843   0.37409   0.00000  Uiso   1.00
C69    C     0.30574   0.36762   0.31043   0.00000  Uiso   1.00
H70    H     0.43539   0.45377   0.44927   0.00000  Uiso   1.00
H71    H     0.60072   0.40728   0.49642   0.00000  Uiso   1.00
H72    H     0.27421   0.47590   0.51938   0.00000  Uiso   1.00
H73    H     0.44909   0.49577   0.32738   0.00000  Uiso   1.00
H74    H     0.75576   0.32792   0.55604   0.00000  Uiso   1.00
H75    H     0.06728   0.47262   0.60444   0.00000  Uiso   1.00
H76    H     0.43603   0.51452   0.19956   0.00000  Uiso   1.00
H77    H     0.21775   0.23936   0.50576   0.00000  Uiso   1.00
H78    H     0.37115   0.18111   0.55601   0.00000  Uiso   1.00
H79    H     0.04464   0.24973   0.57897   0.00000  Uiso   1.00
H80    H     0.21951   0.26960   0.38697   0.00000  Uiso   1.00
H81    H     0.56943   0.14435   0.60441   0.00000  Uiso   1.00
H82    H     0.88094   0.28906   0.65281   0.00000  Uiso   1.00
H83    H     0.24970   0.33095   0.24793   0.00000  Uiso   1.00
O84    O     0.76741   0.20168   0.61228   0.00000  Uiso   1.00
O85    O     0.86414   0.39153   0.67576   0.00000  Uiso   1.00
O86    O     0.34795   0.44650   0.14458   0.00000  Uiso   1.00
N87    N     0.69086   0.29271   0.56052   0.00000  Uiso   1.00
N88    N     0.04718   0.42799   0.60578   0.00000  Uiso   1.00
N89    N     0.39191   0.46717   0.22725   0.00000  Uiso   1.00
N90    N     0.59060   0.19393   0.58654   0.00000  Uiso   1.00
N91    N     0.94692   0.32922   0.63180   0.00000  Uiso   1.00
N92    N     0.29165   0.36840   0.25328   0.00000  Uiso   1.00
C93    C     0.99905   0.16315   0.38358   0.00000  Uiso   1.00
C94    C     0.11066   0.17672   0.33443   0.00000  Uiso   1.00
C95    C     0.20352   0.14856   0.34785   0.00000  Uiso   1.00
C96    C     0.29766   0.16739   0.29621   0.00000  Uiso   1.00
C97    C     0.47077   0.18153   0.22944   0.00000  Uiso   1.00
C98    C     0.90249   0.13949   0.35931   0.00000  Uiso   1.00
C99    C     0.82031   0.08004   0.39364   0.00000  Uiso   1.00
C100   C     0.73920   0.06754   0.36295   0.00000  Uiso   1.00
C101   C     0.58906   0.02391   0.33481   0.00000  Uiso   1.00
C102   C     0.98541   0.23046   0.37780   0.00000  Uiso   1.00
C103   C     0.97292   0.24750   0.42769   0.00000  Uiso   1.00
C104   C     0.96160   0.31158   0.41257   0.00000  Uiso   1.00
C105   C     0.94022   0.40919   0.41316   0.00000  Uiso   1.00
C106   C     0.00112   0.24665   0.26802   0.00000  Uiso   1.00
C107   C     0.11179   0.22207   0.27167   0.00000  Uiso   1.00
C108   C     0.20582   0.24095   0.21999   0.00000  Uiso   1.00
C109   C     0.29879   0.21283   0.23333   0.00000  Uiso   1.00
C110   C     0.90361   0.18485   0.29654   0.00000  Uiso   1.00
C111   C     0.82260   0.17243   0.26579   0.00000  Uiso   1.00
C112   C     0.74032   0.11298   0.30006   0.00000  Uiso   1.00
C113   C     0.98654   0.27582   0.31504   0.00000  Uiso   1.00
C114   C     0.97523   0.33988   0.29984   0.00000  Uiso   1.00
C115   C     0.96273   0.35702   0.34969   0.00000  Uiso   1.00
H116   H     0.99817   0.12784   0.43245   0.00000  Uiso   1.00
H117   H     0.20261   0.11346   0.39643   0.00000  Uiso   1.00
H118   H     0.81945   0.04496   0.44222   0.00000  Uiso   1.00
H119   H     0.97205   0.21238   0.47626   0.00000  Uiso   1.00
H120   H     0.42975   0.11751   0.32881   0.00000  Uiso   1.00
H121   H     0.62182   0.97307   0.42537   0.00000  Uiso   1.00
H122   H     0.94360   0.32613   0.49716   0.00000  Uiso   1.00
H123   H     0.00200   0.28197   0.21915   0.00000  Uiso   1.00
H124   H     0.20666   0.27605   0.17142   0.00000  Uiso   1.00
H125   H     0.82350   0.20754   0.21721   0.00000  Uiso   1.00
H126   H     0.97610   0.37497   0.25126   0.00000  Uiso   1.00
H127   H     0.43304   0.24947   0.14619   0.00000  Uiso   1.00
H128   H     0.62510   0.10503   0.24275   0.00000  Uiso   1.00
H129   H     0.94689   0.45809   0.31453   0.00000  Uiso   1.00
O130   O     0.56594   0.17680   0.20995   0.00000  Uiso   1.00
O131   O     0.50595   0.98731   0.33663   0.00000  Uiso   1.00
O132   O     0.92813   0.45051   0.43082   0.00000  Uiso   1.00
N133   N     0.40245   0.14939   0.29238   0.00000  Uiso   1.00
N134   N     0.64709   0.01434   0.38265   0.00000  Uiso   1.00
N135   N     0.94790   0.34441   0.44978   0.00000  Uiso   1.00
N136   N     0.40422   0.22039   0.19411   0.00000  Uiso   1.00
N137   N     0.64886   0.08535   0.28439   0.00000  Uiso   1.00
N138   N     0.94967   0.41542   0.35151   0.00000  Uiso   1.00
C139   C     0.14753   0.51486   0.86875   0.00000  Uiso   1.00
C140   C     0.05266   0.48372   0.84856   0.00000  Uiso   1.00
C141   C     0.93550   0.47656   0.87028   0.00000  Uiso   1.00
C142   C     0.86264   0.44677   0.84603   0.00000  Uiso   1.00
C143   C     0.70880   0.40170   0.82146   0.00000  Uiso   1.00
C144   C     0.21620   0.46257   0.89518   0.00000  Uiso   1.00
C145   C     0.23656   0.43763   0.95609   0.00000  Uiso   1.00
C146   C     0.30138   0.39004   0.97108   0.00000  Uiso   1.00
C147   C     0.40151   0.31217   0.01887   0.00000  Uiso   1.00
C148   C     0.22783   0.57075   0.80655   0.00000  Uiso   1.00
C149   C     0.25799   0.63678   0.79294   0.00000  Uiso   1.00
C150   C     0.33263   0.68027   0.73332   0.00000  Uiso   1.00
C151   C     0.45082   0.77038   0.64350   0.00000  Uiso   1.00
C152   C     0.22647   0.47468   0.78708   0.00000  Uiso   1.00
C153   C     0.09554   0.46190   0.80420   0.00000  Uiso   1.00
C154   C     0.02283   0.43211   0.77992   0.00000  Uiso   1.00
C155   C     0.90559   0.42491   0.80159   0.00000  Uiso   1.00
C156   C     0.25907   0.44074   0.85082   0.00000  Uiso   1.00
C157   C     0.32389   0.39318   0.86573   0.00000  Uiso   1.00
C158   C     0.34433   0.36817   0.92665   0.00000  Uiso   1.00
C159   C     0.27070   0.54893   0.76219   0.00000  Uiso   1.00
C160   C     0.34532   0.59233   0.70258   0.00000  Uiso   1.00
C161   C     0.37558   0.65841   0.68888   0.00000  Uiso   1.00
H162   H     0.11416   0.53185   0.90329   0.00000  Uiso   1.00
H163   H     0.90236   0.49345   0.90461   0.00000  Uiso   1.00
H164   H     0.20338   0.45453   0.99040   0.00000  Uiso   1.00
H165   H     0.22480   0.65365   0.82728   0.00000  Uiso   1.00
H166   H     0.68644   0.44123   0.88653   0.00000  Uiso   1.00
H167   H     0.32119   0.35919   0.06742   0.00000  Uiso   1.00
H168   H     0.36637   0.77907   0.72345   0.00000  Uiso   1.00
H169   H     0.25985   0.45769   0.75254   0.00000  Uiso   1.00
H170   H     0.05603   0.41522   0.74559   0.00000  Uiso   1.00
H171   H     0.35705   0.37631   0.83139   0.00000  Uiso   1.00
H172   H     0.37848   0.57542   0.66827   0.00000  Uiso   1.00
H173   H     0.81117   0.37774   0.75747   0.00000  Uiso   1.00
H174   H     0.44593   0.29570   0.93836   0.00000  Uiso   1.00
H175   H     0.49110   0.71558   0.59439   0.00000  Uiso   1.00
O176   O     0.61210   0.38287   0.82016   0.00000  Uiso   1.00
O177   O     0.44489   0.27524   0.05748   0.00000  Uiso   1.00
O178   O     0.50415   0.82611   0.60620   0.00000  Uiso   1.00
N179   N     0.74377   0.43213   0.85710   0.00000  Uiso   1.00
N180   N     0.33721   0.35542   0.02623   0.00000  Uiso   1.00
N181   N     0.37947   0.74797   0.70465   0.00000  Uiso   1.00
N182   N     0.81088   0.39797   0.78765   0.00000  Uiso   1.00
N183   N     0.40432   0.32125   0.95678   0.00000  Uiso   1.00
N184   N     0.44658   0.71380   0.63520   0.00000  Uiso   1.00
C185   C     0.61447   0.59536   0.53779   0.00000  Uiso   1.00
C186   C     0.55481   0.65034   0.50435   0.00000  Uiso   1.00
C187   C     0.44881   0.64156   0.49072   0.00000  Uiso   1.00
C188   C     0.40907   0.69816   0.45983   0.00000  Uiso   1.00
C189   C     0.30673   0.77395   0.41040   0.00000  Uiso   1.00
C190   C     0.73221   0.61306   0.49186   0.00000  Uiso   1.00
C191   C     0.77537   0.57292   0.46774   0.00000  Uiso   1.00
C192   C     0.88497   0.59815   0.42636   0.00000  Uiso   1.00
C193   C     0.05808   0.61603   0.35758   0.00000  Uiso   1.00
C194   C     0.63719   0.60227   0.59618   0.00000  Uiso   1.00
C195   C     0.60047   0.55305   0.65978   0.00000  Uiso   1.00
C196   C     0.63009   0.56918   0.70622   0.00000  Uiso   1.00
C197   C     0.65565   0.57030   0.79942   0.00000  Uiso   1.00
C198   C     0.73238   0.71151   0.50718   0.00000  Uiso   1.00
C199   C     0.61886   0.71344   0.48772   0.00000  Uiso   1.00
C200   C     0.57927   0.77007   0.45685   0.00000  Uiso   1.00
C201   C     0.47323   0.76137   0.44318   0.00000  Uiso   1.00
C202   C     0.79626   0.67615   0.47524   0.00000  Uiso   1.00
C203   C     0.90583   0.70144   0.43388   0.00000  Uiso   1.00
C204   C     0.94913   0.66135   0.40970   0.00000  Uiso   1.00
C205   C     0.70123   0.66536   0.57956   0.00000  Uiso   1.00
C206   C     0.73092   0.68157   0.62591   0.00000  Uiso   1.00
C207   C     0.69426   0.63238   0.68957   0.00000  Uiso   1.00
H208   H     0.56461   0.54624   0.55073   0.00000  Uiso   1.00
H209   H     0.39928   0.59272   0.50358   0.00000  Uiso   1.00
H210   H     0.72579   0.52410   0.48062   0.00000  Uiso   1.00
H211   H     0.55091   0.50423   0.67262   0.00000  Uiso   1.00
H212   H     0.24424   0.67209   0.44396   0.00000  Uiso   1.00
H213   H     0.93272   0.52738   0.39556   0.00000  Uiso   1.00
H214   H     0.56397   0.48548   0.80044   0.00000  Uiso   1.00
H215   H     0.78225   0.76064   0.49424   0.00000  Uiso   1.00
H216   H     0.62885   0.81889   0.44399   0.00000  Uiso   1.00
H217   H     0.95536   0.75027   0.42103   0.00000  Uiso   1.00
H218   H     0.78049   0.73040   0.61303   0.00000  Uiso   1.00
H219   H     0.43057   0.85565   0.39559   0.00000  Uiso   1.00
H220   H     0.11906   0.71094   0.34719   0.00000  Uiso   1.00
H221   H     0.75030   0.66905   0.75207   0.00000  Uiso   1.00
O222   O     0.23259   0.79832   0.38772   0.00000  Uiso   1.00
O223   O     0.13586   0.60847   0.32424   0.00000  Uiso   1.00
O224   O     0.65205   0.55350   0.85542   0.00000  Uiso   1.00
N225   N     0.30914   0.70729   0.43948   0.00000  Uiso   1.00
N226   N     0.95282   0.57201   0.39422   0.00000  Uiso   1.00
N227   N     0.60809   0.53283   0.77275   0.00000  Uiso   1.00
N228   N     0.40940   0.80607   0.41346   0.00000  Uiso   1.00
N229   N     0.05308   0.67078   0.36820   0.00000  Uiso   1.00
N230   N     0.70835   0.63160   0.74672   0.00000  Uiso   1.00
C231   C     0.00095   0.83685   0.61642   0.00000  Uiso   1.00
C232   C     0.88933   0.82328   0.66557   0.00000  Uiso   1.00
C233   C     0.79648   0.85144   0.65215   0.00000  Uiso   1.00
C234   C     0.70234   0.83261   0.70379   0.00000  Uiso   1.00
C235   C     0.52923   0.81847   0.77056   0.00000  Uiso   1.00
C236   C     0.09751   0.86051   0.64069   0.00000  Uiso   1.00
C237   C     0.17969   0.91996   0.60636   0.00000  Uiso   1.00
C238   C     0.26080   0.93246   0.63705   0.00000  Uiso   1.00
C239   C     0.41094   0.97609   0.66519   0.00000  Uiso   1.00
C240   C     0.01459   0.76954   0.62220   0.00000  Uiso   1.00
C241   C     0.02708   0.75250   0.57231   0.00000  Uiso   1.00
C242   C     0.03840   0.68842   0.58743   0.00000  Uiso   1.00
C243   C     0.05978   0.59081   0.58684   0.00000  Uiso   1.00
C244   C     0.99888   0.75335   0.73198   0.00000  Uiso   1.00
C245   C     0.88821   0.77793   0.72833   0.00000  Uiso   1.00
C246   C     0.79418   0.75905   0.78001   0.00000  Uiso   1.00
C247   C     0.70121   0.78717   0.76667   0.00000  Uiso   1.00
C248   C     0.09639   0.81515   0.70346   0.00000  Uiso   1.00
C249   C     0.17740   0.82757   0.73421   0.00000  Uiso   1.00
C250   C     0.25968   0.88702   0.69994   0.00000  Uiso   1.00
C251   C     0.01346   0.72418   0.68496   0.00000  Uiso   1.00
C252   C     0.02477   0.66012   0.70016   0.00000  Uiso   1.00
C253   C     0.03727   0.64298   0.65031   0.00000  Uiso   1.00
H254   H     0.00183   0.87216   0.56755   0.00000  Uiso   1.00
H255   H     0.79739   0.88654   0.60357   0.00000  Uiso   1.00
H256   H     0.18055   0.95504   0.55778   0.00000  Uiso   1.00
H257   H     0.02795   0.78762   0.52374   0.00000  Uiso   1.00
H258   H     0.57025   0.88249   0.67119   0.00000  Uiso   1.00
H259   H     0.37818   0.02693   0.57463   0.00000  Uiso   1.00
H260   H     0.05640   0.67387   0.50284   0.00000  Uiso   1.00
H261   H     0.99800   0.71803   0.78085   0.00000  Uiso   1.00
H262   H     0.79334   0.72395   0.82858   0.00000  Uiso   1.00
H263   H     0.17650   0.79246   0.78278   0.00000  Uiso   1.00
H264   H     0.02390   0.62503   0.74874   0.00000  Uiso   1.00
H265   H     0.56696   0.75053   0.85381   0.00000  Uiso   1.00
H266   H     0.37490   0.89497   0.75725   0.00000  Uiso   1.00
H267   H     0.05311   0.54191   0.68547   0.00000  Uiso   1.00
O268   O     0.43406   0.82320   0.79005   0.00000  Uiso   1.00
O269   O     0.49405   0.01269   0.66337   0.00000  Uiso   1.00
O270   O     0.07187   0.54949   0.56918   0.00000  Uiso   1.00
N271   N     0.59755   0.85062   0.70762   0.00000  Uiso   1.00
N272   N     0.35291   0.98566   0.61735   0.00000  Uiso   1.00
N273   N     0.05210   0.65559   0.55022   0.00000  Uiso   1.00
N274   N     0.59578   0.77961   0.80589   0.00000  Uiso   1.00
N275   N     0.35114   0.91465   0.71561   0.00000  Uiso   1.00
N276   N     0.05033   0.58458   0.64849   0.00000  Uiso   1.00
