data_job_06408
_audit_creation_date              2018-12-19
_audit_creation_method            'Materials Studio'
_symmetry_space_group_name_H-M    'P1'
_symmetry_Int_Tables_number       1
_symmetry_cell_setting            triclinic
loop_
_symmetry_equiv_pos_as_xyz
  x,y,z
_cell_length_a                    11.9527
_cell_length_b                    22.5986
_cell_length_c                    22.6593
_cell_angle_alpha                 62.5100
_cell_angle_beta                  81.4792
_cell_angle_gamma                 98.4853
loop_
_atom_site_label
_atom_site_type_symbol
_atom_site_fract_x
_atom_site_fract_y
_atom_site_fract_z
_atom_site_U_iso_or_equiv
_atom_site_adp_type
_atom_site_occupancy
C1     C     0.00232   0.26685   0.52867   0.00000  Uiso   1.00
C2     C     0.09905   0.28814   0.55709   0.00000  Uiso   1.00
C3     C     0.11999   0.24792   0.62060   0.00000  Uiso   1.00
C4     C     0.21273   0.27674   0.63711   0.00000  Uiso   1.00
C5     C     0.35237   0.29967   0.68816   0.00000  Uiso   1.00
C6     C     0.93247   0.32141   0.51141   0.00000  Uiso   1.00
C7     C     0.81334   0.30916   0.53651   0.00000  Uiso   1.00
C8     C     0.76585   0.36599   0.51455   0.00000  Uiso   1.00
C9     C     0.64685   0.44056   0.49464   0.00000  Uiso   1.00
C10    C     0.06280   0.27509   0.46021   0.00000  Uiso   1.00
C11    C     0.05323   0.22391   0.44224   0.00000  Uiso   1.00
C12    C     0.11545   0.24175   0.37716   0.00000  Uiso   1.00
C13    C     0.19880   0.24441   0.27776   0.00000  Uiso   1.00
C14    C     0.12982   0.38954   0.44505   0.00000  Uiso   1.00
C15    C     0.16830   0.35478   0.51167   0.00000  Uiso   1.00
C16    C     0.26105   0.38367   0.52808   0.00000  Uiso   1.00
C17    C     0.28211   0.34350   0.59160   0.00000  Uiso   1.00
C18    C     0.00171   0.38805   0.46599   0.00000  Uiso   1.00
C19    C     0.95440   0.44491   0.44398   0.00000  Uiso   1.00
C20    C     0.83523   0.43275   0.46905   0.00000  Uiso   1.00
C21    C     0.13205   0.34173   0.41478   0.00000  Uiso   1.00
C22    C     0.19429   0.35966   0.34972   0.00000  Uiso   1.00
C23    C     0.18483   0.30851   0.33166   0.00000  Uiso   1.00
H24    H     0.94840   0.21497   0.56404   0.00000  Uiso   1.00
H25    H     0.06637   0.19635   0.65574   0.00000  Uiso   1.00
H26    H     0.75977   0.25759   0.57165   0.00000  Uiso   1.00
H27    H     0.99963   0.17235   0.47741   0.00000  Uiso   1.00
H28    H     0.22767   0.20511   0.73740   0.00000  Uiso   1.00
H29    H     0.58118   0.33422   0.56007   0.00000  Uiso   1.00
H30    H     0.08697   0.15448   0.36133   0.00000  Uiso   1.00
H31    H     0.18373   0.44143   0.40968   0.00000  Uiso   1.00
H32    H     0.31462   0.43524   0.49292   0.00000  Uiso   1.00
H33    H     0.00801   0.49647   0.40883   0.00000  Uiso   1.00
H34    H     0.24787   0.41123   0.31458   0.00000  Uiso   1.00
H35    H     0.42916   0.39900   0.60524   0.00000  Uiso   1.00
H36    H     0.78266   0.52811   0.42792   0.00000  Uiso   1.00
H37    H     0.28846   0.34837   0.22918   0.00000  Uiso   1.00
O38    O     0.41024   0.29391   0.72887   0.00000  Uiso   1.00
O39    O     0.56207   0.46328   0.49622   0.00000  Uiso   1.00
O40    O     0.22566   0.22747   0.23548   0.00000  Uiso   1.00
N41    N     0.25714   0.25159   0.69487   0.00000  Uiso   1.00
N42    N     0.65271   0.37230   0.52909   0.00000  Uiso   1.00
N43    N     0.12556   0.20426   0.34327   0.00000  Uiso   1.00
N44    N     0.36556   0.35592   0.62376   0.00000  Uiso   1.00
N45    N     0.76113   0.47662   0.45798   0.00000  Uiso   1.00
N46    N     0.23398   0.30859   0.27216   0.00000  Uiso   1.00
C47    C     0.72356   0.20406   0.26593   0.00000  Uiso   1.00
C48    C     0.80026   0.15339   0.28917   0.00000  Uiso   1.00
C49    C     0.85697   0.12924   0.24994   0.00000  Uiso   1.00
C50    C     0.92298   0.08311   0.28054   0.00000  Uiso   1.00
C51    C     0.04067   0.00761   0.30639   0.00000  Uiso   1.00
C52    C     0.60567   0.16826   0.31813   0.00000  Uiso   1.00
C53    C     0.49877   0.15663   0.30323   0.00000  Uiso   1.00
C54    C     0.40097   0.12302   0.35820   0.00000  Uiso   1.00
C55    C     0.21654   0.07067   0.42899   0.00000  Uiso   1.00
C56    C     0.77598   0.26382   0.27553   0.00000  Uiso   1.00
C57    C     0.81225   0.33254   0.22483   0.00000  Uiso   1.00
C58    C     0.85781   0.37938   0.24394   0.00000  Uiso   1.00
C59    C     0.93782   0.47539   0.24860   0.00000  Uiso   1.00
C60    C     0.73995   0.16507   0.39002   0.00000  Uiso   1.00
C61    C     0.80916   0.13221   0.35658   0.00000  Uiso   1.00
C62    C     0.87511   0.08610   0.38723   0.00000  Uiso   1.00
C63    C     0.93191   0.06189   0.34806   0.00000  Uiso   1.00
C64    C     0.61457   0.14708   0.38552   0.00000  Uiso   1.00
C65    C     0.51690   0.11349   0.44052   0.00000  Uiso   1.00
C66    C     0.40988   0.10181   0.42572   0.00000  Uiso   1.00
C67    C     0.78488   0.24264   0.34293   0.00000  Uiso   1.00
C68    C     0.83039   0.28939   0.36212   0.00000  Uiso   1.00
C69    C     0.86673   0.35817   0.31146   0.00000  Uiso   1.00
H70    H     0.71662   0.22055   0.21346   0.00000  Uiso   1.00
H71    H     0.85005   0.14564   0.19779   0.00000  Uiso   1.00
H72    H     0.49191   0.17303   0.25107   0.00000  Uiso   1.00
H73    H     0.80535   0.34890   0.17268   0.00000  Uiso   1.00
H74    H     0.00187   0.05322   0.21015   0.00000  Uiso   1.00
H75    H     0.24670   0.11100   0.32249   0.00000  Uiso   1.00
H76    H     0.90764   0.48187   0.15719   0.00000  Uiso   1.00
H77    H     0.74688   0.14858   0.44250   0.00000  Uiso   1.00
H78    H     0.88198   0.06972   0.43939   0.00000  Uiso   1.00
H79    H     0.52382   0.09711   0.49267   0.00000  Uiso   1.00
H80    H     0.83726   0.27299   0.41428   0.00000  Uiso   1.00
H81    H     0.02778   0.99161   0.40624   0.00000  Uiso   1.00
H82    H     0.27260   0.04938   0.51858   0.00000  Uiso   1.00
H83    H     0.93355   0.42025   0.35329   0.00000  Uiso   1.00
O84    O     0.10312   0.97182   0.30203   0.00000  Uiso   1.00
O85    O     0.11236   0.04763   0.44941   0.00000  Uiso   1.00
O86    O     0.97950   0.53420   0.23255   0.00000  Uiso   1.00
N87    N     0.98945   0.04955   0.25672   0.00000  Uiso   1.00
N88    N     0.28341   0.10356   0.36175   0.00000  Uiso   1.00
N89    N     0.90131   0.45030   0.20722   0.00000  Uiso   1.00
N90    N     0.00339   0.01640   0.36224   0.00000  Uiso   1.00
N91    N     0.29735   0.07041   0.46727   0.00000  Uiso   1.00
N92    N     0.91525   0.41714   0.31274   0.00000  Uiso   1.00
C93    C     0.51972   0.53024   0.20426   0.00000  Uiso   1.00
C94    C     0.64093   0.55613   0.15604   0.00000  Uiso   1.00
C95    C     0.71859   0.61865   0.13358   0.00000  Uiso   1.00
C96    C     0.82517   0.63281   0.08959   0.00000  Uiso   1.00
C97    C     0.00912   0.68013   0.01786   0.00000  Uiso   1.00
C98    C     0.43513   0.51473   0.16613   0.00000  Uiso   1.00
C99    C     0.33976   0.54242   0.15216   0.00000  Uiso   1.00
C100   C     0.27308   0.52172   0.11667   0.00000  Uiso   1.00
C101   C     0.13748   0.50472   0.06065   0.00000  Uiso   1.00
C102   C     0.51817   0.46092   0.26442   0.00000  Uiso   1.00
C103   C     0.49258   0.44337   0.33310   0.00000  Uiso   1.00
C104   C     0.49580   0.37737   0.38037   0.00000  Uiso   1.00
C105   C     0.48912   0.27683   0.47696   0.00000  Uiso   1.00
C106   C     0.57089   0.44422   0.16608   0.00000  Uiso   1.00
C107   C     0.66872   0.50941   0.13531   0.00000  Uiso   1.00
C108   C     0.77521   0.52348   0.09134   0.00000  Uiso   1.00
C109   C     0.85302   0.58601   0.06882   0.00000  Uiso   1.00
C110   C     0.46292   0.46801   0.14539   0.00000  Uiso   1.00
C111   C     0.39637   0.44725   0.10992   0.00000  Uiso   1.00
C112   C     0.30092   0.47491   0.09590   0.00000  Uiso   1.00
C113   C     0.54597   0.41420   0.24369   0.00000  Uiso   1.00
C114   C     0.54920   0.34821   0.29086   0.00000  Uiso   1.00
C115   C     0.52364   0.33056   0.35960   0.00000  Uiso   1.00
H116   H     0.49808   0.56662   0.22040   0.00000  Uiso   1.00
H117   H     0.69705   0.65480   0.14964   0.00000  Uiso   1.00
H118   H     0.31826   0.57857   0.16822   0.00000  Uiso   1.00
H119   H     0.47108   0.47954   0.34913   0.00000  Uiso   1.00
H120   H     0.92988   0.73196   0.06202   0.00000  Uiso   1.00
H121   H     0.13117   0.57123   0.10123   0.00000  Uiso   1.00
H122   H     0.45340   0.36240   0.48271   0.00000  Uiso   1.00
H123   H     0.59253   0.40785   0.14993   0.00000  Uiso   1.00
H124   H     0.79669   0.48731   0.07531   0.00000  Uiso   1.00
H125   H     0.41790   0.41109   0.09389   0.00000  Uiso   1.00
H126   H     0.57072   0.31206   0.27480   0.00000  Uiso   1.00
H127   H     0.01075   0.59603   0.00169   0.00000  Uiso   1.00
H128   H     0.21204   0.43529   0.04090   0.00000  Uiso   1.00
H129   H     0.53427   0.22647   0.42238   0.00000  Uiso   1.00
O130   O     0.10290   0.71915   0.98402   0.00000  Uiso   1.00
O131   O     0.05501   0.50826   0.03546   0.00000  Uiso   1.00
O132   O     0.47778   0.23429   0.53596   0.00000  Uiso   1.00
N133   N     0.92091   0.68906   0.05807   0.00000  Uiso   1.00
N134   N     0.17417   0.53879   0.09472   0.00000  Uiso   1.00
N135   N     0.47540   0.34355   0.45138   0.00000  Uiso   1.00
N136   N     0.96442   0.61592   0.02561   0.00000  Uiso   1.00
N137   N     0.21769   0.46564   0.06225   0.00000  Uiso   1.00
N138   N     0.51891   0.27041   0.41891   0.00000  Uiso   1.00
C139   C     0.50232   0.47113   0.73294   0.00000  Uiso   1.00
C140   C     0.59904   0.44256   0.71176   0.00000  Uiso   1.00
C141   C     0.61996   0.37889   0.75194   0.00000  Uiso   1.00
C142   C     0.71269   0.36227   0.72324   0.00000  Uiso   1.00
C143   C     0.85230   0.31098   0.70045   0.00000  Uiso   1.00
C144   C     0.43246   0.48837   0.67856   0.00000  Uiso   1.00
C145   C     0.31332   0.46322   0.69082   0.00000  Uiso   1.00
C146   C     0.26583   0.48517   0.63416   0.00000  Uiso   1.00
C147   C     0.14680   0.50504   0.55983   0.00000  Uiso   1.00
C148   C     0.56282   0.53981   0.72461   0.00000  Uiso   1.00
C149   C     0.55327   0.55792   0.77558   0.00000  Uiso   1.00
C150   C     0.61551   0.62319   0.75769   0.00000  Uiso   1.00
C151   C     0.69889   0.72292   0.75486   0.00000  Uiso   1.00
C152   C     0.62980   0.55482   0.61052   0.00000  Uiso   1.00
C153   C     0.66828   0.48802   0.64526   0.00000  Uiso   1.00
C154   C     0.76101   0.47149   0.61649   0.00000  Uiso   1.00
C155   C     0.78207   0.40781   0.65662   0.00000  Uiso   1.00
C156   C     0.50169   0.53382   0.61206   0.00000  Uiso   1.00
C157   C     0.45436   0.55582   0.55537   0.00000  Uiso   1.00
C158   C     0.33519   0.53071   0.56754   0.00000  Uiso   1.00
C159   C     0.63206   0.58527   0.65811   0.00000  Uiso   1.00
C160   C     0.69432   0.65052   0.64013   0.00000  Uiso   1.00
C161   C     0.68487   0.66873   0.69107   0.00000  Uiso   1.00
H162   H     0.44840   0.43573   0.78471   0.00000  Uiso   1.00
H163   H     0.56635   0.34372   0.80340   0.00000  Uiso   1.00
H164   H     0.25976   0.42805   0.74228   0.00000  Uiso   1.00
H165   H     0.49967   0.52273   0.82703   0.00000  Uiso   1.00
H166   H     0.72762   0.26175   0.79478   0.00000  Uiso   1.00
H167   H     0.08115   0.43957   0.66592   0.00000  Uiso   1.00
H168   H     0.58706   0.63923   0.84463   0.00000  Uiso   1.00
H169   H     0.68371   0.59022   0.55874   0.00000  Uiso   1.00
H170   H     0.81458   0.50668   0.56503   0.00000  Uiso   1.00
H171   H     0.50798   0.59100   0.50392   0.00000  Uiso   1.00
H172   H     0.74789   0.68569   0.58867   0.00000  Uiso   1.00
H173   H     0.92909   0.39401   0.60131   0.00000  Uiso   1.00
H174   H     0.28261   0.57183   0.47246   0.00000  Uiso   1.00
H175   H     0.78852   0.77149   0.65117   0.00000  Uiso   1.00
O176   O     0.91017   0.27013   0.70625   0.00000  Uiso   1.00
O177   O     0.06202   0.50343   0.53720   0.00000  Uiso   1.00
O178   O     0.72576   0.76537   0.77167   0.00000  Uiso   1.00
N179   N     0.75709   0.30434   0.74839   0.00000  Uiso   1.00
N180   N     0.15268   0.47059   0.62792   0.00000  Uiso   1.00
N181   N     0.62564   0.65726   0.79499   0.00000  Uiso   1.00
N182   N     0.86550   0.37551   0.64429   0.00000  Uiso   1.00
N183   N     0.26109   0.54175   0.52381   0.00000  Uiso   1.00
N184   N     0.73405   0.72843   0.69089   0.00000  Uiso   1.00
C185   C     0.22360   0.73449   0.79574   0.00000  Uiso   1.00
C186   C     0.30031   0.71124   0.84626   0.00000  Uiso   1.00
C187   C     0.35704   0.75064   0.87025   0.00000  Uiso   1.00
C188   C     0.42306   0.72001   0.91627   0.00000  Uiso   1.00
C189   C     0.54076   0.69418   0.99152   0.00000  Uiso   1.00
C190   C     0.10570   0.68219   0.83152   0.00000  Uiso   1.00
C191   C     0.99881   0.69717   0.84310   0.00000  Uiso   1.00
C192   C     0.90101   0.64209   0.87670   0.00000  Uiso   1.00
C193   C     0.71657   0.57117   0.92901   0.00000  Uiso   1.00
C194   C     0.27599   0.72475   0.73620   0.00000  Uiso   1.00
C195   C     0.31226   0.77551   0.66763   0.00000  Uiso   1.00
C196   C     0.35780   0.75625   0.62097   0.00000  Uiso   1.00
C197   C     0.43778   0.75141   0.52528   0.00000  Uiso   1.00
C198   C     0.23996   0.61003   0.83480   0.00000  Uiso   1.00
C199   C     0.30919   0.64364   0.86748   0.00000  Uiso   1.00
C200   C     0.37514   0.61294   0.91347   0.00000  Uiso   1.00
C201   C     0.43196   0.65229   0.93752   0.00000  Uiso   1.00
C202   C     0.11459   0.61460   0.85273   0.00000  Uiso   1.00
C203   C     0.01691   0.55948   0.88631   0.00000  Uiso   1.00
C204   C     0.90991   0.57437   0.89795   0.00000  Uiso   1.00
C205   C     0.28489   0.65715   0.75741   0.00000  Uiso   1.00
C206   C     0.33037   0.63781   0.71085   0.00000  Uiso   1.00
C207   C     0.36670   0.68853   0.64222   0.00000  Uiso   1.00
H208   H     0.21667   0.78712   0.77922   0.00000  Uiso   1.00
H209   H     0.35013   0.80295   0.85383   0.00000  Uiso   1.00
H210   H     0.99196   0.74949   0.82667   0.00000  Uiso   1.00
H211   H     0.30537   0.82782   0.65123   0.00000  Uiso   1.00
H212   H     0.50198   0.79068   0.94592   0.00000  Uiso   1.00
H213   H     0.74675   0.67796   0.88864   0.00000  Uiso   1.00
H214   H     0.40763   0.84312   0.51868   0.00000  Uiso   1.00
H215   H     0.24688   0.55740   0.85131   0.00000  Uiso   1.00
H216   H     0.38200   0.56063   0.92988   0.00000  Uiso   1.00
H217   H     0.02383   0.50717   0.90272   0.00000  Uiso   1.00
H218   H     0.33723   0.58549   0.72728   0.00000  Uiso   1.00
H219   H     0.52784   0.59400   0.00765   0.00000  Uiso   1.00
H220   H     0.77261   0.48129   0.95036   0.00000  Uiso   1.00
H221   H     0.43349   0.64644   0.58041   0.00000  Uiso   1.00
O222   O     0.60322   0.69860   0.02718   0.00000  Uiso   1.00
O223   O     0.61239   0.55072   0.95202   0.00000  Uiso   1.00
O224   O     0.47945   0.76741   0.46665   0.00000  Uiso   1.00
N225   N     0.48954   0.74395   0.94965   0.00000  Uiso   1.00
N226   N     0.78345   0.63857   0.89611   0.00000  Uiso   1.00
N227   N     0.40129   0.79298   0.55023   0.00000  Uiso   1.00
N228   N     0.50346   0.63812   0.98287   0.00000  Uiso   1.00
N229   N     0.79737   0.53274   0.92933   0.00000  Uiso   1.00
N230   N     0.41520   0.68714   0.58345   0.00000  Uiso   1.00
C231   C     0.01969   0.79554   0.47018   0.00000  Uiso   1.00
C232   C     0.14090   0.84386   0.44429   0.00000  Uiso   1.00
C233   C     0.21855   0.86628   0.38194   0.00000  Uiso   1.00
C234   C     0.32514   0.91038   0.36773   0.00000  Uiso   1.00
C235   C     0.50910   0.98226   0.32043   0.00000  Uiso   1.00
C236   C     0.93511   0.83383   0.48560   0.00000  Uiso   1.00
C237   C     0.83973   0.84782   0.45799   0.00000  Uiso   1.00
C238   C     0.77308   0.88348   0.47857   0.00000  Uiso   1.00
C239   C     0.63750   0.93975   0.49544   0.00000  Uiso   1.00
C240   C     0.01814   0.73528   0.53936   0.00000  Uiso   1.00
C241   C     0.99253   0.66639   0.55697   0.00000  Uiso   1.00
C242   C     0.99575   0.61907   0.62282   0.00000  Uiso   1.00
C243   C     0.98908   0.52231   0.72317   0.00000  Uiso   1.00
C244   C     0.07089   0.83398   0.55583   0.00000  Uiso   1.00
C245   C     0.16871   0.86474   0.49081   0.00000  Uiso   1.00
C246   C     0.27521   0.90881   0.47670   0.00000  Uiso   1.00
C247   C     0.35301   0.93130   0.41434   0.00000  Uiso   1.00
C248   C     0.96292   0.85472   0.53211   0.00000  Uiso   1.00
C249   C     0.89639   0.89035   0.55275   0.00000  Uiso   1.00
C250   C     0.80094   0.90439   0.52517   0.00000  Uiso   1.00
C251   C     0.04595   0.75616   0.58588   0.00000  Uiso   1.00
C252   C     0.04920   0.70893   0.65173   0.00000  Uiso   1.00
C253   C     0.02361   0.63999   0.66943   0.00000  Uiso   1.00
H254   H     0.99803   0.77928   0.43396   0.00000  Uiso   1.00
H255   H     0.19699   0.85011   0.34595   0.00000  Uiso   1.00
H256   H     0.81822   0.83165   0.42199   0.00000  Uiso   1.00
H257   H     0.97101   0.65025   0.52095   0.00000  Uiso   1.00
H258   H     0.42983   0.93787   0.26887   0.00000  Uiso   1.00
H259   H     0.63116   0.89892   0.42923   0.00000  Uiso   1.00
H260   H     0.95333   0.51640   0.63791   0.00000  Uiso   1.00
H261   H     0.09255   0.85024   0.59205   0.00000  Uiso   1.00
H262   H     0.29671   0.92497   0.51271   0.00000  Uiso   1.00
H263   H     0.91794   0.90650   0.58875   0.00000  Uiso   1.00
H264   H     0.07072   0.72510   0.68771   0.00000  Uiso   1.00
H265   H     0.51076   0.99863   0.40421   0.00000  Uiso   1.00
H266   H     0.71208   0.95967   0.56458   0.00000  Uiso   1.00
H267   H     0.03426   0.57716   0.77326   0.00000  Uiso   1.00
O268   O     0.60287   0.01614   0.28148   0.00000  Uiso   1.00
O269   O     0.55503   0.96502   0.49188   0.00000  Uiso   1.00
O270   O     0.97773   0.46318   0.76567   0.00000  Uiso   1.00
N271   N     0.42087   0.94190   0.31161   0.00000  Uiso   1.00
N272   N     0.67417   0.90549   0.46153   0.00000  Uiso   1.00
N273   N     0.97534   0.54787   0.65664   0.00000  Uiso   1.00
N274   N     0.46442   0.97459   0.38445   0.00000  Uiso   1.00
N275   N     0.71772   0.93818   0.53436   0.00000  Uiso   1.00
N276   N     0.01889   0.58057   0.72947   0.00000  Uiso   1.00
