data_job_01534
_audit_creation_date              2018-12-19
_audit_creation_method            'Materials Studio'
_symmetry_space_group_name_H-M    'P1'
_symmetry_Int_Tables_number       1
_symmetry_cell_setting            triclinic
loop_
_symmetry_equiv_pos_as_xyz
  x,y,z
_cell_length_a                    18.5333
_cell_length_b                    26.4265
_cell_length_c                    11.7467
_cell_angle_alpha                 90.0000
_cell_angle_beta                  90.0000
_cell_angle_gamma                 90.0000
loop_
_atom_site_label
_atom_site_type_symbol
_atom_site_fract_x
_atom_site_fract_y
_atom_site_fract_z
_atom_site_U_iso_or_equiv
_atom_site_adp_type
_atom_site_occupancy
C1     C     0.52288   0.30406   0.46447   0.00000  Uiso   1.00
C2     C     0.52015   0.34419   0.37128   0.00000  Uiso   1.00
C3     C     0.54679   0.33882   0.26153   0.00000  Uiso   1.00
C4     C     0.53908   0.37994   0.18896   0.00000  Uiso   1.00
C5     C     0.53992   0.43543   0.03879   0.00000  Uiso   1.00
C6     C     0.56158   0.32854   0.56493   0.00000  Uiso   1.00
C7     C     0.62304   0.31001   0.61801   0.00000  Uiso   1.00
C8     C     0.65020   0.33795   0.70848   0.00000  Uiso   1.00
C9     C     0.71532   0.36913   0.85902   0.00000  Uiso   1.00
C10    C     0.44508   0.29604   0.50263   0.00000  Uiso   1.00
C11    C     0.40859   0.25018   0.50336   0.00000  Uiso   1.00
C12    C     0.33766   0.25076   0.54140   0.00000  Uiso   1.00
C13    C     0.22190   0.23148   0.59522   0.00000  Uiso   1.00
C14    C     0.46182   0.38662   0.53076   0.00000  Uiso   1.00
C15    C     0.48699   0.38903   0.40729   0.00000  Uiso   1.00
C16    C     0.47923   0.43017   0.33487   0.00000  Uiso   1.00
C17    C     0.50585   0.42486   0.22503   0.00000  Uiso   1.00
C18    C     0.52842   0.37338   0.60094   0.00000  Uiso   1.00
C19    C     0.55548   0.40136   0.69136   0.00000  Uiso   1.00
C20    C     0.61697   0.38288   0.74455   0.00000  Uiso   1.00
C21    C     0.41191   0.34088   0.53864   0.00000  Uiso   1.00
C22    C     0.34103   0.34153   0.57670   0.00000  Uiso   1.00
C23    C     0.30444   0.29568   0.57748   0.00000  Uiso   1.00
H24    H     0.54871   0.26915   0.43644   0.00000  Uiso   1.00
H25    H     0.57246   0.30411   0.23370   0.00000  Uiso   1.00
H26    H     0.64870   0.27530   0.59014   0.00000  Uiso   1.00
H27    H     0.43427   0.21549   0.47549   0.00000  Uiso   1.00
H28    H     0.58419   0.36266   0.02480   0.00000  Uiso   1.00
H29    H     0.74492   0.30190   0.77640   0.00000  Uiso   1.00
H30    H     0.29277   0.17577   0.53466   0.00000  Uiso   1.00
H31    H     0.43600   0.42154   0.55880   0.00000  Uiso   1.00
H32    H     0.45356   0.46487   0.36275   0.00000  Uiso   1.00
H33    H     0.52980   0.43606   0.71920   0.00000  Uiso   1.00
H34    H     0.31538   0.37624   0.60456   0.00000  Uiso   1.00
H35    H     0.48769   0.49313   0.12955   0.00000  Uiso   1.00
H36    H     0.64842   0.43238   0.88116   0.00000  Uiso   1.00
H37    H     0.19627   0.30624   0.63941   0.00000  Uiso   1.00
O38    O     0.54955   0.45365   0.94602   0.00000  Uiso   1.00
O39    O     0.76041   0.37394   0.93210   0.00000  Uiso   1.00
O40    O     0.16721   0.20845   0.61494   0.00000  Uiso   1.00
N41    N     0.55906   0.38742   0.07635   0.00000  Uiso   1.00
N42    N     0.70934   0.33062   0.77904   0.00000  Uiso   1.00
N43    N     0.28662   0.21269   0.55306   0.00000  Uiso   1.00
N44    N     0.50713   0.45762   0.13272   0.00000  Uiso   1.00
N45    N     0.65741   0.40082   0.83541   0.00000  Uiso   1.00
N46    N     0.23469   0.28290   0.60943   0.00000  Uiso   1.00
C47    C     0.97712   0.69594   0.46447   0.00000  Uiso   1.00
C48    C     0.97985   0.65581   0.37128   0.00000  Uiso   1.00
C49    C     0.95321   0.66118   0.26153   0.00000  Uiso   1.00
C50    C     0.96092   0.62006   0.18896   0.00000  Uiso   1.00
C51    C     0.96008   0.56457   0.03879   0.00000  Uiso   1.00
C52    C     0.93842   0.67146   0.56493   0.00000  Uiso   1.00
C53    C     0.87696   0.68999   0.61801   0.00000  Uiso   1.00
C54    C     0.84980   0.66205   0.70848   0.00000  Uiso   1.00
C55    C     0.78468   0.63087   0.85902   0.00000  Uiso   1.00
C56    C     0.05492   0.70396   0.50263   0.00000  Uiso   1.00
C57    C     0.09141   0.74982   0.50336   0.00000  Uiso   1.00
C58    C     0.16234   0.74924   0.54140   0.00000  Uiso   1.00
C59    C     0.27810   0.76852   0.59522   0.00000  Uiso   1.00
C60    C     0.03818   0.61338   0.53076   0.00000  Uiso   1.00
C61    C     0.01301   0.61097   0.40729   0.00000  Uiso   1.00
C62    C     0.02077   0.56983   0.33487   0.00000  Uiso   1.00
C63    C     0.99415   0.57514   0.22503   0.00000  Uiso   1.00
C64    C     0.97158   0.62662   0.60094   0.00000  Uiso   1.00
C65    C     0.94452   0.59864   0.69136   0.00000  Uiso   1.00
C66    C     0.88303   0.61712   0.74455   0.00000  Uiso   1.00
C67    C     0.08809   0.65912   0.53864   0.00000  Uiso   1.00
C68    C     0.15897   0.65847   0.57670   0.00000  Uiso   1.00
C69    C     0.19556   0.70432   0.57748   0.00000  Uiso   1.00
H70    H     0.95129   0.73085   0.43644   0.00000  Uiso   1.00
H71    H     0.92754   0.69589   0.23370   0.00000  Uiso   1.00
H72    H     0.85130   0.72470   0.59014   0.00000  Uiso   1.00
H73    H     0.06573   0.78451   0.47549   0.00000  Uiso   1.00
H74    H     0.91581   0.63734   0.02480   0.00000  Uiso   1.00
H75    H     0.75508   0.69810   0.77640   0.00000  Uiso   1.00
H76    H     0.20723   0.82423   0.53466   0.00000  Uiso   1.00
H77    H     0.06400   0.57846   0.55880   0.00000  Uiso   1.00
H78    H     0.04644   0.53513   0.36275   0.00000  Uiso   1.00
H79    H     0.97020   0.56394   0.71920   0.00000  Uiso   1.00
H80    H     0.18462   0.62376   0.60456   0.00000  Uiso   1.00
H81    H     0.01231   0.50687   0.12955   0.00000  Uiso   1.00
H82    H     0.85158   0.56762   0.88116   0.00000  Uiso   1.00
H83    H     0.30373   0.69376   0.63941   0.00000  Uiso   1.00
O84    O     0.95045   0.54635   0.94602   0.00000  Uiso   1.00
O85    O     0.73959   0.62606   0.93210   0.00000  Uiso   1.00
O86    O     0.33279   0.79155   0.61494   0.00000  Uiso   1.00
N87    N     0.94094   0.61258   0.07635   0.00000  Uiso   1.00
N88    N     0.79066   0.66938   0.77904   0.00000  Uiso   1.00
N89    N     0.21338   0.78731   0.55306   0.00000  Uiso   1.00
N90    N     0.99287   0.54238   0.13272   0.00000  Uiso   1.00
N91    N     0.84259   0.59918   0.83541   0.00000  Uiso   1.00
N92    N     0.26531   0.71710   0.60943   0.00000  Uiso   1.00
C93    C     0.97712   0.80406   0.03553   0.00000  Uiso   1.00
C94    C     0.97985   0.84419   0.12872   0.00000  Uiso   1.00
C95    C     0.95321   0.83882   0.23847   0.00000  Uiso   1.00
C96    C     0.96092   0.87994   0.31104   0.00000  Uiso   1.00
C97    C     0.96008   0.93543   0.46121   0.00000  Uiso   1.00
C98    C     0.93842   0.82854   0.93507   0.00000  Uiso   1.00
C99    C     0.87696   0.81001   0.88199   0.00000  Uiso   1.00
C100   C     0.84980   0.83795   0.79152   0.00000  Uiso   1.00
C101   C     0.78468   0.86913   0.64098   0.00000  Uiso   1.00
C102   C     0.05492   0.79604   0.99737   0.00000  Uiso   1.00
C103   C     0.09141   0.75018   0.99664   0.00000  Uiso   1.00
C104   C     0.16234   0.75076   0.95860   0.00000  Uiso   1.00
C105   C     0.27810   0.73148   0.90478   0.00000  Uiso   1.00
C106   C     0.03818   0.88662   0.96924   0.00000  Uiso   1.00
C107   C     0.01301   0.88903   0.09271   0.00000  Uiso   1.00
C108   C     0.02077   0.93017   0.16513   0.00000  Uiso   1.00
C109   C     0.99415   0.92486   0.27497   0.00000  Uiso   1.00
C110   C     0.97158   0.87338   0.89906   0.00000  Uiso   1.00
C111   C     0.94452   0.90136   0.80864   0.00000  Uiso   1.00
C112   C     0.88303   0.88288   0.75545   0.00000  Uiso   1.00
C113   C     0.08809   0.84088   0.96136   0.00000  Uiso   1.00
C114   C     0.15897   0.84153   0.92330   0.00000  Uiso   1.00
C115   C     0.19556   0.79568   0.92252   0.00000  Uiso   1.00
H116   H     0.95129   0.76915   0.06356   0.00000  Uiso   1.00
H117   H     0.92754   0.80411   0.26630   0.00000  Uiso   1.00
H118   H     0.85130   0.77530   0.90986   0.00000  Uiso   1.00
H119   H     0.06573   0.71549   0.02451   0.00000  Uiso   1.00
H120   H     0.91581   0.86266   0.47520   0.00000  Uiso   1.00
H121   H     0.75508   0.80190   0.72360   0.00000  Uiso   1.00
H122   H     0.20723   0.67577   0.96534   0.00000  Uiso   1.00
H123   H     0.06400   0.92154   0.94120   0.00000  Uiso   1.00
H124   H     0.04644   0.96487   0.13725   0.00000  Uiso   1.00
H125   H     0.97020   0.93606   0.78080   0.00000  Uiso   1.00
H126   H     0.18462   0.87624   0.89544   0.00000  Uiso   1.00
H127   H     0.01231   0.99313   0.37045   0.00000  Uiso   1.00
H128   H     0.85158   0.93238   0.61884   0.00000  Uiso   1.00
H129   H     0.30373   0.80624   0.86059   0.00000  Uiso   1.00
O130   O     0.95045   0.95365   0.55398   0.00000  Uiso   1.00
O131   O     0.73959   0.87394   0.56790   0.00000  Uiso   1.00
O132   O     0.33279   0.70845   0.88506   0.00000  Uiso   1.00
N133   N     0.94094   0.88742   0.42365   0.00000  Uiso   1.00
N134   N     0.79066   0.83062   0.72096   0.00000  Uiso   1.00
N135   N     0.21338   0.71269   0.94694   0.00000  Uiso   1.00
N136   N     0.99287   0.95762   0.36728   0.00000  Uiso   1.00
N137   N     0.84259   0.90082   0.66459   0.00000  Uiso   1.00
N138   N     0.26531   0.78290   0.89057   0.00000  Uiso   1.00
C139   C     0.52288   0.19594   0.03553   0.00000  Uiso   1.00
C140   C     0.52015   0.15581   0.12872   0.00000  Uiso   1.00
C141   C     0.54679   0.16118   0.23847   0.00000  Uiso   1.00
C142   C     0.53908   0.12006   0.31104   0.00000  Uiso   1.00
C143   C     0.53992   0.06457   0.46121   0.00000  Uiso   1.00
C144   C     0.56158   0.17146   0.93507   0.00000  Uiso   1.00
C145   C     0.62304   0.18999   0.88199   0.00000  Uiso   1.00
C146   C     0.65020   0.16205   0.79152   0.00000  Uiso   1.00
C147   C     0.71532   0.13087   0.64098   0.00000  Uiso   1.00
C148   C     0.44508   0.20396   0.99737   0.00000  Uiso   1.00
C149   C     0.40859   0.24982   0.99664   0.00000  Uiso   1.00
C150   C     0.33766   0.24924   0.95860   0.00000  Uiso   1.00
C151   C     0.22190   0.26852   0.90478   0.00000  Uiso   1.00
C152   C     0.46182   0.11338   0.96924   0.00000  Uiso   1.00
C153   C     0.48699   0.11097   0.09271   0.00000  Uiso   1.00
C154   C     0.47923   0.06983   0.16513   0.00000  Uiso   1.00
C155   C     0.50585   0.07514   0.27497   0.00000  Uiso   1.00
C156   C     0.52842   0.12662   0.89906   0.00000  Uiso   1.00
C157   C     0.55548   0.09864   0.80864   0.00000  Uiso   1.00
C158   C     0.61697   0.11712   0.75545   0.00000  Uiso   1.00
C159   C     0.41191   0.15912   0.96136   0.00000  Uiso   1.00
C160   C     0.34103   0.15847   0.92330   0.00000  Uiso   1.00
C161   C     0.30444   0.20432   0.92252   0.00000  Uiso   1.00
H162   H     0.54871   0.23085   0.06356   0.00000  Uiso   1.00
H163   H     0.57246   0.19589   0.26630   0.00000  Uiso   1.00
H164   H     0.64870   0.22470   0.90986   0.00000  Uiso   1.00
H165   H     0.43427   0.28451   0.02451   0.00000  Uiso   1.00
H166   H     0.58419   0.13734   0.47520   0.00000  Uiso   1.00
H167   H     0.74492   0.19810   0.72360   0.00000  Uiso   1.00
H168   H     0.29277   0.32423   0.96534   0.00000  Uiso   1.00
H169   H     0.43600   0.07846   0.94120   0.00000  Uiso   1.00
H170   H     0.45356   0.03513   0.13725   0.00000  Uiso   1.00
H171   H     0.52980   0.06394   0.78080   0.00000  Uiso   1.00
H172   H     0.31538   0.12376   0.89544   0.00000  Uiso   1.00
H173   H     0.48769   0.00687   0.37045   0.00000  Uiso   1.00
H174   H     0.64842   0.06762   0.61884   0.00000  Uiso   1.00
H175   H     0.19627   0.19376   0.86059   0.00000  Uiso   1.00
O176   O     0.54955   0.04635   0.55398   0.00000  Uiso   1.00
O177   O     0.76041   0.12606   0.56790   0.00000  Uiso   1.00
O178   O     0.16721   0.29155   0.88506   0.00000  Uiso   1.00
N179   N     0.55906   0.11258   0.42365   0.00000  Uiso   1.00
N180   N     0.70934   0.16938   0.72096   0.00000  Uiso   1.00
N181   N     0.28662   0.28731   0.94694   0.00000  Uiso   1.00
N182   N     0.50713   0.04238   0.36728   0.00000  Uiso   1.00
N183   N     0.65741   0.09918   0.66459   0.00000  Uiso   1.00
N184   N     0.23469   0.21710   0.89057   0.00000  Uiso   1.00
C185   C     0.47712   0.69594   0.53553   0.00000  Uiso   1.00
C186   C     0.47985   0.65581   0.62872   0.00000  Uiso   1.00
C187   C     0.45321   0.66118   0.73847   0.00000  Uiso   1.00
C188   C     0.46092   0.62006   0.81104   0.00000  Uiso   1.00
C189   C     0.46008   0.56457   0.96121   0.00000  Uiso   1.00
C190   C     0.43842   0.67146   0.43507   0.00000  Uiso   1.00
C191   C     0.37696   0.68999   0.38199   0.00000  Uiso   1.00
C192   C     0.34980   0.66205   0.29152   0.00000  Uiso   1.00
C193   C     0.28468   0.63087   0.14098   0.00000  Uiso   1.00
C194   C     0.55492   0.70396   0.49737   0.00000  Uiso   1.00
C195   C     0.59141   0.74982   0.49664   0.00000  Uiso   1.00
C196   C     0.66234   0.74924   0.45860   0.00000  Uiso   1.00
C197   C     0.77810   0.76852   0.40478   0.00000  Uiso   1.00
C198   C     0.53818   0.61338   0.46924   0.00000  Uiso   1.00
C199   C     0.51301   0.61097   0.59271   0.00000  Uiso   1.00
C200   C     0.52077   0.56983   0.66513   0.00000  Uiso   1.00
C201   C     0.49415   0.57514   0.77497   0.00000  Uiso   1.00
C202   C     0.47158   0.62662   0.39906   0.00000  Uiso   1.00
C203   C     0.44452   0.59864   0.30864   0.00000  Uiso   1.00
C204   C     0.38303   0.61712   0.25545   0.00000  Uiso   1.00
C205   C     0.58809   0.65912   0.46136   0.00000  Uiso   1.00
C206   C     0.65897   0.65847   0.42330   0.00000  Uiso   1.00
C207   C     0.69556   0.70432   0.42252   0.00000  Uiso   1.00
H208   H     0.45129   0.73085   0.56356   0.00000  Uiso   1.00
H209   H     0.42754   0.69589   0.76630   0.00000  Uiso   1.00
H210   H     0.35130   0.72470   0.40986   0.00000  Uiso   1.00
H211   H     0.56573   0.78451   0.52451   0.00000  Uiso   1.00
H212   H     0.41581   0.63734   0.97520   0.00000  Uiso   1.00
H213   H     0.25508   0.69810   0.22360   0.00000  Uiso   1.00
H214   H     0.70723   0.82423   0.46534   0.00000  Uiso   1.00
H215   H     0.56400   0.57846   0.44120   0.00000  Uiso   1.00
H216   H     0.54644   0.53513   0.63725   0.00000  Uiso   1.00
H217   H     0.47020   0.56394   0.28080   0.00000  Uiso   1.00
H218   H     0.68462   0.62376   0.39544   0.00000  Uiso   1.00
H219   H     0.51231   0.50687   0.87045   0.00000  Uiso   1.00
H220   H     0.35158   0.56762   0.11884   0.00000  Uiso   1.00
H221   H     0.80373   0.69376   0.36059   0.00000  Uiso   1.00
O222   O     0.45045   0.54635   0.05398   0.00000  Uiso   1.00
O223   O     0.23959   0.62606   0.06790   0.00000  Uiso   1.00
O224   O     0.83279   0.79155   0.38506   0.00000  Uiso   1.00
N225   N     0.44094   0.61258   0.92365   0.00000  Uiso   1.00
N226   N     0.29066   0.66938   0.22096   0.00000  Uiso   1.00
N227   N     0.71338   0.78731   0.44694   0.00000  Uiso   1.00
N228   N     0.49287   0.54238   0.86728   0.00000  Uiso   1.00
N229   N     0.34259   0.59918   0.16459   0.00000  Uiso   1.00
N230   N     0.76531   0.71710   0.39057   0.00000  Uiso   1.00
C231   C     0.02288   0.30406   0.53553   0.00000  Uiso   1.00
C232   C     0.02015   0.34419   0.62872   0.00000  Uiso   1.00
C233   C     0.04679   0.33882   0.73847   0.00000  Uiso   1.00
C234   C     0.03908   0.37994   0.81104   0.00000  Uiso   1.00
C235   C     0.03992   0.43543   0.96121   0.00000  Uiso   1.00
C236   C     0.06158   0.32854   0.43507   0.00000  Uiso   1.00
C237   C     0.12304   0.31001   0.38199   0.00000  Uiso   1.00
C238   C     0.15020   0.33795   0.29152   0.00000  Uiso   1.00
C239   C     0.21532   0.36913   0.14098   0.00000  Uiso   1.00
C240   C     0.94508   0.29604   0.49737   0.00000  Uiso   1.00
C241   C     0.90859   0.25018   0.49664   0.00000  Uiso   1.00
C242   C     0.83766   0.25076   0.45860   0.00000  Uiso   1.00
C243   C     0.72190   0.23148   0.40478   0.00000  Uiso   1.00
C244   C     0.96182   0.38662   0.46924   0.00000  Uiso   1.00
C245   C     0.98699   0.38903   0.59271   0.00000  Uiso   1.00
C246   C     0.97923   0.43017   0.66513   0.00000  Uiso   1.00
C247   C     0.00585   0.42486   0.77497   0.00000  Uiso   1.00
C248   C     0.02842   0.37338   0.39906   0.00000  Uiso   1.00
C249   C     0.05548   0.40136   0.30864   0.00000  Uiso   1.00
C250   C     0.11697   0.38288   0.25545   0.00000  Uiso   1.00
C251   C     0.91191   0.34088   0.46136   0.00000  Uiso   1.00
C252   C     0.84103   0.34153   0.42330   0.00000  Uiso   1.00
C253   C     0.80444   0.29568   0.42252   0.00000  Uiso   1.00
H254   H     0.04871   0.26915   0.56356   0.00000  Uiso   1.00
H255   H     0.07246   0.30411   0.76630   0.00000  Uiso   1.00
H256   H     0.14870   0.27530   0.40986   0.00000  Uiso   1.00
H257   H     0.93427   0.21549   0.52451   0.00000  Uiso   1.00
H258   H     0.08419   0.36266   0.97520   0.00000  Uiso   1.00
H259   H     0.24492   0.30190   0.22360   0.00000  Uiso   1.00
H260   H     0.79277   0.17577   0.46534   0.00000  Uiso   1.00
H261   H     0.93600   0.42154   0.44120   0.00000  Uiso   1.00
H262   H     0.95356   0.46487   0.63725   0.00000  Uiso   1.00
H263   H     0.02980   0.43606   0.28080   0.00000  Uiso   1.00
H264   H     0.81538   0.37624   0.39544   0.00000  Uiso   1.00
H265   H     0.98769   0.49313   0.87045   0.00000  Uiso   1.00
H266   H     0.14842   0.43238   0.11884   0.00000  Uiso   1.00
H267   H     0.69627   0.30624   0.36059   0.00000  Uiso   1.00
O268   O     0.04955   0.45365   0.05398   0.00000  Uiso   1.00
O269   O     0.26041   0.37394   0.06790   0.00000  Uiso   1.00
O270   O     0.66721   0.20845   0.38506   0.00000  Uiso   1.00
N271   N     0.05906   0.38742   0.92365   0.00000  Uiso   1.00
N272   N     0.20934   0.33062   0.22096   0.00000  Uiso   1.00
N273   N     0.78662   0.21269   0.44694   0.00000  Uiso   1.00
N274   N     0.00713   0.45762   0.86728   0.00000  Uiso   1.00
N275   N     0.15741   0.40082   0.16459   0.00000  Uiso   1.00
N276   N     0.73469   0.28290   0.39057   0.00000  Uiso   1.00
C277   C     0.02288   0.19594   0.96447   0.00000  Uiso   1.00
C278   C     0.02015   0.15581   0.87128   0.00000  Uiso   1.00
C279   C     0.04679   0.16118   0.76153   0.00000  Uiso   1.00
C280   C     0.03908   0.12006   0.68896   0.00000  Uiso   1.00
C281   C     0.03992   0.06457   0.53879   0.00000  Uiso   1.00
C282   C     0.06158   0.17146   0.06493   0.00000  Uiso   1.00
C283   C     0.12304   0.18999   0.11801   0.00000  Uiso   1.00
C284   C     0.15020   0.16205   0.20848   0.00000  Uiso   1.00
C285   C     0.21532   0.13087   0.35902   0.00000  Uiso   1.00
C286   C     0.94508   0.20396   0.00263   0.00000  Uiso   1.00
C287   C     0.90859   0.24982   0.00336   0.00000  Uiso   1.00
C288   C     0.83766   0.24924   0.04140   0.00000  Uiso   1.00
C289   C     0.72190   0.26852   0.09522   0.00000  Uiso   1.00
C290   C     0.96182   0.11338   0.03076   0.00000  Uiso   1.00
C291   C     0.98699   0.11097   0.90729   0.00000  Uiso   1.00
C292   C     0.97923   0.06983   0.83487   0.00000  Uiso   1.00
C293   C     0.00585   0.07514   0.72503   0.00000  Uiso   1.00
C294   C     0.02842   0.12662   0.10094   0.00000  Uiso   1.00
C295   C     0.05548   0.09864   0.19136   0.00000  Uiso   1.00
C296   C     0.11697   0.11712   0.24455   0.00000  Uiso   1.00
C297   C     0.91191   0.15912   0.03864   0.00000  Uiso   1.00
C298   C     0.84103   0.15847   0.07670   0.00000  Uiso   1.00
C299   C     0.80444   0.20432   0.07748   0.00000  Uiso   1.00
H300   H     0.04871   0.23085   0.93644   0.00000  Uiso   1.00
H301   H     0.07246   0.19589   0.73370   0.00000  Uiso   1.00
H302   H     0.14870   0.22470   0.09014   0.00000  Uiso   1.00
H303   H     0.93427   0.28451   0.97549   0.00000  Uiso   1.00
H304   H     0.08419   0.13734   0.52480   0.00000  Uiso   1.00
H305   H     0.24492   0.19810   0.27640   0.00000  Uiso   1.00
H306   H     0.79277   0.32423   0.03466   0.00000  Uiso   1.00
H307   H     0.93600   0.07846   0.05880   0.00000  Uiso   1.00
H308   H     0.95356   0.03513   0.86275   0.00000  Uiso   1.00
H309   H     0.02980   0.06394   0.21920   0.00000  Uiso   1.00
H310   H     0.81538   0.12376   0.10456   0.00000  Uiso   1.00
H311   H     0.98769   0.00687   0.62955   0.00000  Uiso   1.00
H312   H     0.14842   0.06762   0.38116   0.00000  Uiso   1.00
H313   H     0.69627   0.19376   0.13941   0.00000  Uiso   1.00
O314   O     0.04955   0.04635   0.44602   0.00000  Uiso   1.00
O315   O     0.26041   0.12606   0.43210   0.00000  Uiso   1.00
O316   O     0.66721   0.29155   0.11494   0.00000  Uiso   1.00
N317   N     0.05906   0.11258   0.57635   0.00000  Uiso   1.00
N318   N     0.20934   0.16938   0.27904   0.00000  Uiso   1.00
N319   N     0.78662   0.28731   0.05306   0.00000  Uiso   1.00
N320   N     0.00713   0.04238   0.63272   0.00000  Uiso   1.00
N321   N     0.15741   0.09918   0.33541   0.00000  Uiso   1.00
N322   N     0.73469   0.21710   0.10943   0.00000  Uiso   1.00
C323   C     0.47712   0.80406   0.96447   0.00000  Uiso   1.00
C324   C     0.47985   0.84419   0.87128   0.00000  Uiso   1.00
C325   C     0.45321   0.83882   0.76153   0.00000  Uiso   1.00
C326   C     0.46092   0.87994   0.68896   0.00000  Uiso   1.00
C327   C     0.46008   0.93543   0.53879   0.00000  Uiso   1.00
C328   C     0.43842   0.82854   0.06493   0.00000  Uiso   1.00
C329   C     0.37696   0.81001   0.11801   0.00000  Uiso   1.00
C330   C     0.34980   0.83795   0.20848   0.00000  Uiso   1.00
C331   C     0.28468   0.86913   0.35902   0.00000  Uiso   1.00
C332   C     0.55492   0.79604   0.00263   0.00000  Uiso   1.00
C333   C     0.59141   0.75018   0.00336   0.00000  Uiso   1.00
C334   C     0.66234   0.75076   0.04140   0.00000  Uiso   1.00
C335   C     0.77810   0.73148   0.09522   0.00000  Uiso   1.00
C336   C     0.53818   0.88662   0.03076   0.00000  Uiso   1.00
C337   C     0.51301   0.88903   0.90729   0.00000  Uiso   1.00
C338   C     0.52077   0.93017   0.83487   0.00000  Uiso   1.00
C339   C     0.49415   0.92486   0.72503   0.00000  Uiso   1.00
C340   C     0.47158   0.87338   0.10094   0.00000  Uiso   1.00
C341   C     0.44452   0.90136   0.19136   0.00000  Uiso   1.00
C342   C     0.38303   0.88288   0.24455   0.00000  Uiso   1.00
C343   C     0.58809   0.84088   0.03864   0.00000  Uiso   1.00
C344   C     0.65897   0.84153   0.07670   0.00000  Uiso   1.00
C345   C     0.69556   0.79568   0.07748   0.00000  Uiso   1.00
H346   H     0.45129   0.76915   0.93644   0.00000  Uiso   1.00
H347   H     0.42754   0.80411   0.73370   0.00000  Uiso   1.00
H348   H     0.35130   0.77530   0.09014   0.00000  Uiso   1.00
H349   H     0.56573   0.71549   0.97549   0.00000  Uiso   1.00
H350   H     0.41581   0.86266   0.52480   0.00000  Uiso   1.00
H351   H     0.25508   0.80190   0.27640   0.00000  Uiso   1.00
H352   H     0.70723   0.67577   0.03466   0.00000  Uiso   1.00
H353   H     0.56400   0.92154   0.05880   0.00000  Uiso   1.00
H354   H     0.54644   0.96487   0.86275   0.00000  Uiso   1.00
H355   H     0.47020   0.93606   0.21920   0.00000  Uiso   1.00
H356   H     0.68462   0.87624   0.10456   0.00000  Uiso   1.00
H357   H     0.51231   0.99313   0.62955   0.00000  Uiso   1.00
H358   H     0.35158   0.93238   0.38116   0.00000  Uiso   1.00
H359   H     0.80373   0.80624   0.13941   0.00000  Uiso   1.00
O360   O     0.45045   0.95365   0.44602   0.00000  Uiso   1.00
O361   O     0.23959   0.87394   0.43210   0.00000  Uiso   1.00
O362   O     0.83279   0.70845   0.11494   0.00000  Uiso   1.00
N363   N     0.44094   0.88742   0.57635   0.00000  Uiso   1.00
N364   N     0.29066   0.83062   0.27904   0.00000  Uiso   1.00
N365   N     0.71338   0.71269   0.05306   0.00000  Uiso   1.00
N366   N     0.49287   0.95762   0.63272   0.00000  Uiso   1.00
N367   N     0.34259   0.90082   0.33541   0.00000  Uiso   1.00
N368   N     0.76531   0.78290   0.10943   0.00000  Uiso   1.00
