data_job_00818
_audit_creation_date              2018-12-19
_audit_creation_method            'Materials Studio'
_symmetry_space_group_name_H-M    'P1'
_symmetry_Int_Tables_number       1
_symmetry_cell_setting            triclinic
loop_
_symmetry_equiv_pos_as_xyz
  x,y,z
_cell_length_a                    27.5116
_cell_length_b                    10.1405
_cell_length_c                    33.4382
_cell_angle_alpha                 90.0000
_cell_angle_beta                  150.7620
_cell_angle_gamma                 90.0000
loop_
_atom_site_label
_atom_site_type_symbol
_atom_site_fract_x
_atom_site_fract_y
_atom_site_fract_z
_atom_site_U_iso_or_equiv
_atom_site_adp_type
_atom_site_occupancy
C1     C     0.78271   0.59604   0.12844   0.00000  Uiso   1.00
C2     C     0.85362   0.57454   0.21435   0.00000  Uiso   1.00
C3     C     0.91199   0.46352   0.26247   0.00000  Uiso   1.00
C4     C     0.97191   0.46284   0.33932   0.00000  Uiso   1.00
C5     C     0.08177   0.41323   0.46850   0.00000  Uiso   1.00
C6     C     0.68101   0.62365   0.07385   0.00000  Uiso   1.00
C7     C     0.59425   0.55392   0.00383   0.00000  Uiso   1.00
C8     C     0.50886   0.59459   0.96239   0.00000  Uiso   1.00
C9     C     0.35072   0.62127   0.87340   0.00000  Uiso   1.00
C10    C     0.81528   0.72439   0.13200   0.00000  Uiso   1.00
C11    C     0.84139   0.73937   0.11084   0.00000  Uiso   1.00
C12    C     0.86903   0.86487   0.11835   0.00000  Uiso   1.00
C13    C     0.91937   0.04796   0.11964   0.00000  Uiso   1.00
C14    C     0.78533   0.79227   0.17935   0.00000  Uiso   1.00
C15    C     0.85504   0.68113   0.24200   0.00000  Uiso   1.00
C16    C     0.91490   0.68063   0.31880   0.00000  Uiso   1.00
C17    C     0.97335   0.56962   0.36702   0.00000  Uiso   1.00
C18    C     0.68243   0.73023   0.10150   0.00000  Uiso   1.00
C19    C     0.59715   0.77102   0.06015   0.00000  Uiso   1.00
C20    C     0.51029   0.70137   0.99009   0.00000  Uiso   1.00
C21    C     0.81671   0.83097   0.15965   0.00000  Uiso   1.00
C22    C     0.84431   0.95648   0.16717   0.00000  Uiso   1.00
C23    C     0.87046   0.97165   0.14604   0.00000  Uiso   1.00
H24    H     0.78159   0.51306   0.10691   0.00000  Uiso   1.00
H25    H     0.91085   0.38105   0.24105   0.00000  Uiso   1.00
H26    H     0.59316   0.47145   0.98244   0.00000  Uiso   1.00
H27    H     0.84028   0.65687   0.08945   0.00000  Uiso   1.00
H28    H     0.05477   0.28168   0.40195   0.00000  Uiso   1.00
H29    H     0.38490   0.47231   0.85665   0.00000  Uiso   1.00
H30    H     0.90598   0.86331   0.08229   0.00000  Uiso   1.00
H31    H     0.78644   0.87525   0.20087   0.00000  Uiso   1.00
H32    H     0.91599   0.76312   0.34018   0.00000  Uiso   1.00
H33    H     0.59829   0.85351   0.08156   0.00000  Uiso   1.00
H34    H     0.84540   0.03893   0.18857   0.00000  Uiso   1.00
H35    H     0.05893   0.59178   0.48240   0.00000  Uiso   1.00
H36    H     0.38905   0.78242   0.93710   0.00000  Uiso   1.00
H37    H     0.91014   0.17341   0.16275   0.00000  Uiso   1.00
O38    O     0.14196   0.35641   0.53211   0.00000  Uiso   1.00
O39    O     0.26310   0.60653   0.81668   0.00000  Uiso   1.00
O40    O     0.94676   0.11950   0.11273   0.00000  Uiso   1.00
N41    N     0.03799   0.37006   0.40177   0.00000  Uiso   1.00
N42    N     0.41170   0.54828   0.89195   0.00000  Uiso   1.00
N43    N     0.89884   0.91384   0.10289   0.00000  Uiso   1.00
N44    N     0.04023   0.53692   0.44507   0.00000  Uiso   1.00
N45    N     0.41393   0.71514   0.93525   0.00000  Uiso   1.00
N46    N     0.90108   0.08070   0.14618   0.00000  Uiso   1.00
C47    C     0.28271   0.09604   0.12844   0.00000  Uiso   1.00
C48    C     0.35362   0.07454   0.21435   0.00000  Uiso   1.00
C49    C     0.41199   0.96352   0.26247   0.00000  Uiso   1.00
C50    C     0.47191   0.96284   0.33932   0.00000  Uiso   1.00
C51    C     0.58177   0.91323   0.46850   0.00000  Uiso   1.00
C52    C     0.18101   0.12365   0.07385   0.00000  Uiso   1.00
C53    C     0.09425   0.05392   0.00383   0.00000  Uiso   1.00
C54    C     0.00886   0.09459   0.96239   0.00000  Uiso   1.00
C55    C     0.85072   0.12127   0.87340   0.00000  Uiso   1.00
C56    C     0.31528   0.22439   0.13200   0.00000  Uiso   1.00
C57    C     0.34139   0.23937   0.11084   0.00000  Uiso   1.00
C58    C     0.36903   0.36487   0.11835   0.00000  Uiso   1.00
C59    C     0.41937   0.54796   0.11964   0.00000  Uiso   1.00
C60    C     0.28533   0.29227   0.17935   0.00000  Uiso   1.00
C61    C     0.35504   0.18113   0.24200   0.00000  Uiso   1.00
C62    C     0.41490   0.18063   0.31880   0.00000  Uiso   1.00
C63    C     0.47335   0.06962   0.36702   0.00000  Uiso   1.00
C64    C     0.18243   0.23023   0.10150   0.00000  Uiso   1.00
C65    C     0.09715   0.27102   0.06015   0.00000  Uiso   1.00
C66    C     0.01029   0.20137   0.99009   0.00000  Uiso   1.00
C67    C     0.31671   0.33097   0.15965   0.00000  Uiso   1.00
C68    C     0.34431   0.45648   0.16717   0.00000  Uiso   1.00
C69    C     0.37046   0.47165   0.14604   0.00000  Uiso   1.00
H70    H     0.28159   0.01306   0.10691   0.00000  Uiso   1.00
H71    H     0.41085   0.88105   0.24105   0.00000  Uiso   1.00
H72    H     0.09316   0.97145   0.98244   0.00000  Uiso   1.00
H73    H     0.34028   0.15687   0.08945   0.00000  Uiso   1.00
H74    H     0.55477   0.78168   0.40195   0.00000  Uiso   1.00
H75    H     0.88490   0.97231   0.85665   0.00000  Uiso   1.00
H76    H     0.40598   0.36331   0.08229   0.00000  Uiso   1.00
H77    H     0.28644   0.37525   0.20087   0.00000  Uiso   1.00
H78    H     0.41599   0.26312   0.34018   0.00000  Uiso   1.00
H79    H     0.09829   0.35351   0.08156   0.00000  Uiso   1.00
H80    H     0.34540   0.53893   0.18857   0.00000  Uiso   1.00
H81    H     0.55893   0.09178   0.48240   0.00000  Uiso   1.00
H82    H     0.88905   0.28242   0.93710   0.00000  Uiso   1.00
H83    H     0.41014   0.67341   0.16275   0.00000  Uiso   1.00
O84    O     0.64196   0.85641   0.53211   0.00000  Uiso   1.00
O85    O     0.76310   0.10653   0.81668   0.00000  Uiso   1.00
O86    O     0.44676   0.61950   0.11273   0.00000  Uiso   1.00
N87    N     0.53799   0.87006   0.40177   0.00000  Uiso   1.00
N88    N     0.91170   0.04828   0.89195   0.00000  Uiso   1.00
N89    N     0.39884   0.41384   0.10289   0.00000  Uiso   1.00
N90    N     0.54023   0.03692   0.44507   0.00000  Uiso   1.00
N91    N     0.91393   0.21514   0.93525   0.00000  Uiso   1.00
N92    N     0.40108   0.58070   0.14618   0.00000  Uiso   1.00
C93    C     0.21729   0.59604   0.37156   0.00000  Uiso   1.00
C94    C     0.14638   0.57454   0.28565   0.00000  Uiso   1.00
C95    C     0.08801   0.46352   0.23753   0.00000  Uiso   1.00
C96    C     0.02809   0.46284   0.16068   0.00000  Uiso   1.00
C97    C     0.91823   0.41323   0.03150   0.00000  Uiso   1.00
C98    C     0.31899   0.62365   0.42615   0.00000  Uiso   1.00
C99    C     0.40575   0.55392   0.49617   0.00000  Uiso   1.00
C100   C     0.49114   0.59459   0.53761   0.00000  Uiso   1.00
C101   C     0.64928   0.62127   0.62660   0.00000  Uiso   1.00
C102   C     0.18472   0.72439   0.36800   0.00000  Uiso   1.00
C103   C     0.15861   0.73937   0.38916   0.00000  Uiso   1.00
C104   C     0.13097   0.86487   0.38165   0.00000  Uiso   1.00
C105   C     0.08063   0.04796   0.38036   0.00000  Uiso   1.00
C106   C     0.21467   0.79227   0.32065   0.00000  Uiso   1.00
C107   C     0.14496   0.68113   0.25800   0.00000  Uiso   1.00
C108   C     0.08510   0.68063   0.18120   0.00000  Uiso   1.00
C109   C     0.02665   0.56962   0.13298   0.00000  Uiso   1.00
C110   C     0.31757   0.73023   0.39850   0.00000  Uiso   1.00
C111   C     0.40285   0.77102   0.43985   0.00000  Uiso   1.00
C112   C     0.48971   0.70137   0.50991   0.00000  Uiso   1.00
C113   C     0.18329   0.83097   0.34035   0.00000  Uiso   1.00
C114   C     0.15569   0.95648   0.33283   0.00000  Uiso   1.00
C115   C     0.12954   0.97165   0.35396   0.00000  Uiso   1.00
H116   H     0.21841   0.51306   0.39309   0.00000  Uiso   1.00
H117   H     0.08915   0.38105   0.25895   0.00000  Uiso   1.00
H118   H     0.40684   0.47145   0.51756   0.00000  Uiso   1.00
H119   H     0.15972   0.65687   0.41055   0.00000  Uiso   1.00
H120   H     0.94523   0.28168   0.09805   0.00000  Uiso   1.00
H121   H     0.61510   0.47231   0.64335   0.00000  Uiso   1.00
H122   H     0.09402   0.86331   0.41771   0.00000  Uiso   1.00
H123   H     0.21356   0.87525   0.29913   0.00000  Uiso   1.00
H124   H     0.08401   0.76312   0.15982   0.00000  Uiso   1.00
H125   H     0.40171   0.85351   0.41844   0.00000  Uiso   1.00
H126   H     0.15460   0.03893   0.31143   0.00000  Uiso   1.00
H127   H     0.94107   0.59178   0.01760   0.00000  Uiso   1.00
H128   H     0.61095   0.78242   0.56290   0.00000  Uiso   1.00
H129   H     0.08986   0.17341   0.33725   0.00000  Uiso   1.00
O130   O     0.85804   0.35641   0.96789   0.00000  Uiso   1.00
O131   O     0.73690   0.60653   0.68332   0.00000  Uiso   1.00
O132   O     0.05324   0.11950   0.38727   0.00000  Uiso   1.00
N133   N     0.96201   0.37006   0.09823   0.00000  Uiso   1.00
N134   N     0.58830   0.54828   0.60805   0.00000  Uiso   1.00
N135   N     0.10116   0.91384   0.39711   0.00000  Uiso   1.00
N136   N     0.95977   0.53692   0.05493   0.00000  Uiso   1.00
N137   N     0.58607   0.71514   0.56475   0.00000  Uiso   1.00
N138   N     0.09892   0.08070   0.35382   0.00000  Uiso   1.00
C139   C     0.71729   0.09604   0.37156   0.00000  Uiso   1.00
C140   C     0.64638   0.07454   0.28565   0.00000  Uiso   1.00
C141   C     0.58801   0.96352   0.23753   0.00000  Uiso   1.00
C142   C     0.52809   0.96284   0.16068   0.00000  Uiso   1.00
C143   C     0.41823   0.91323   0.03150   0.00000  Uiso   1.00
C144   C     0.81899   0.12365   0.42615   0.00000  Uiso   1.00
C145   C     0.90575   0.05392   0.49617   0.00000  Uiso   1.00
C146   C     0.99114   0.09459   0.53761   0.00000  Uiso   1.00
C147   C     0.14928   0.12127   0.62660   0.00000  Uiso   1.00
C148   C     0.68472   0.22439   0.36800   0.00000  Uiso   1.00
C149   C     0.65861   0.23937   0.38916   0.00000  Uiso   1.00
C150   C     0.63097   0.36487   0.38165   0.00000  Uiso   1.00
C151   C     0.58063   0.54796   0.38036   0.00000  Uiso   1.00
C152   C     0.71467   0.29227   0.32065   0.00000  Uiso   1.00
C153   C     0.64496   0.18113   0.25800   0.00000  Uiso   1.00
C154   C     0.58510   0.18063   0.18120   0.00000  Uiso   1.00
C155   C     0.52665   0.06962   0.13298   0.00000  Uiso   1.00
C156   C     0.81757   0.23023   0.39850   0.00000  Uiso   1.00
C157   C     0.90285   0.27102   0.43985   0.00000  Uiso   1.00
C158   C     0.98971   0.20137   0.50991   0.00000  Uiso   1.00
C159   C     0.68329   0.33097   0.34035   0.00000  Uiso   1.00
C160   C     0.65569   0.45648   0.33283   0.00000  Uiso   1.00
C161   C     0.62954   0.47165   0.35396   0.00000  Uiso   1.00
H162   H     0.71841   0.01306   0.39309   0.00000  Uiso   1.00
H163   H     0.58915   0.88105   0.25895   0.00000  Uiso   1.00
H164   H     0.90684   0.97145   0.51756   0.00000  Uiso   1.00
H165   H     0.65972   0.15687   0.41055   0.00000  Uiso   1.00
H166   H     0.44523   0.78168   0.09805   0.00000  Uiso   1.00
H167   H     0.11510   0.97231   0.64335   0.00000  Uiso   1.00
H168   H     0.59402   0.36331   0.41771   0.00000  Uiso   1.00
H169   H     0.71356   0.37525   0.29913   0.00000  Uiso   1.00
H170   H     0.58401   0.26312   0.15982   0.00000  Uiso   1.00
H171   H     0.90171   0.35351   0.41844   0.00000  Uiso   1.00
H172   H     0.65460   0.53893   0.31143   0.00000  Uiso   1.00
H173   H     0.44107   0.09178   0.01760   0.00000  Uiso   1.00
H174   H     0.11095   0.28242   0.56290   0.00000  Uiso   1.00
H175   H     0.58986   0.67341   0.33725   0.00000  Uiso   1.00
O176   O     0.35804   0.85641   0.96789   0.00000  Uiso   1.00
O177   O     0.23690   0.10653   0.68332   0.00000  Uiso   1.00
O178   O     0.55324   0.61950   0.38727   0.00000  Uiso   1.00
N179   N     0.46201   0.87006   0.09823   0.00000  Uiso   1.00
N180   N     0.08830   0.04828   0.60805   0.00000  Uiso   1.00
N181   N     0.60116   0.41384   0.39711   0.00000  Uiso   1.00
N182   N     0.45977   0.03692   0.05493   0.00000  Uiso   1.00
N183   N     0.08607   0.21514   0.56475   0.00000  Uiso   1.00
N184   N     0.59892   0.58070   0.35382   0.00000  Uiso   1.00
C185   C     0.21729   0.40396   0.87156   0.00000  Uiso   1.00
C186   C     0.14638   0.42546   0.78565   0.00000  Uiso   1.00
C187   C     0.08801   0.53648   0.73753   0.00000  Uiso   1.00
C188   C     0.02809   0.53716   0.66068   0.00000  Uiso   1.00
C189   C     0.91823   0.58677   0.53150   0.00000  Uiso   1.00
C190   C     0.31899   0.37635   0.92615   0.00000  Uiso   1.00
C191   C     0.40575   0.44608   0.99617   0.00000  Uiso   1.00
C192   C     0.49114   0.40541   0.03761   0.00000  Uiso   1.00
C193   C     0.64928   0.37873   0.12660   0.00000  Uiso   1.00
C194   C     0.18472   0.27561   0.86800   0.00000  Uiso   1.00
C195   C     0.15861   0.26063   0.88916   0.00000  Uiso   1.00
C196   C     0.13097   0.13513   0.88165   0.00000  Uiso   1.00
C197   C     0.08063   0.95204   0.88036   0.00000  Uiso   1.00
C198   C     0.21467   0.20773   0.82065   0.00000  Uiso   1.00
C199   C     0.14496   0.31887   0.75800   0.00000  Uiso   1.00
C200   C     0.08510   0.31937   0.68120   0.00000  Uiso   1.00
C201   C     0.02665   0.43038   0.63298   0.00000  Uiso   1.00
C202   C     0.31757   0.26977   0.89850   0.00000  Uiso   1.00
C203   C     0.40285   0.22898   0.93985   0.00000  Uiso   1.00
C204   C     0.48971   0.29863   0.00991   0.00000  Uiso   1.00
C205   C     0.18329   0.16903   0.84035   0.00000  Uiso   1.00
C206   C     0.15569   0.04352   0.83283   0.00000  Uiso   1.00
C207   C     0.12954   0.02835   0.85396   0.00000  Uiso   1.00
H208   H     0.21841   0.48694   0.89309   0.00000  Uiso   1.00
H209   H     0.08915   0.61895   0.75895   0.00000  Uiso   1.00
H210   H     0.40684   0.52855   0.01756   0.00000  Uiso   1.00
H211   H     0.15972   0.34313   0.91055   0.00000  Uiso   1.00
H212   H     0.94523   0.71832   0.59805   0.00000  Uiso   1.00
H213   H     0.61510   0.52769   0.14335   0.00000  Uiso   1.00
H214   H     0.09402   0.13669   0.91771   0.00000  Uiso   1.00
H215   H     0.21356   0.12475   0.79913   0.00000  Uiso   1.00
H216   H     0.08401   0.23688   0.65982   0.00000  Uiso   1.00
H217   H     0.40171   0.14649   0.91844   0.00000  Uiso   1.00
H218   H     0.15460   0.96107   0.81143   0.00000  Uiso   1.00
H219   H     0.94107   0.40822   0.51760   0.00000  Uiso   1.00
H220   H     0.61095   0.21758   0.06290   0.00000  Uiso   1.00
H221   H     0.08986   0.82659   0.83725   0.00000  Uiso   1.00
O222   O     0.85804   0.64359   0.46789   0.00000  Uiso   1.00
O223   O     0.73690   0.39347   0.18332   0.00000  Uiso   1.00
O224   O     0.05324   0.88050   0.88727   0.00000  Uiso   1.00
N225   N     0.96201   0.62994   0.59823   0.00000  Uiso   1.00
N226   N     0.58830   0.45172   0.10805   0.00000  Uiso   1.00
N227   N     0.10116   0.08616   0.89711   0.00000  Uiso   1.00
N228   N     0.95977   0.46308   0.55493   0.00000  Uiso   1.00
N229   N     0.58607   0.28486   0.06475   0.00000  Uiso   1.00
N230   N     0.09892   0.91930   0.85382   0.00000  Uiso   1.00
C231   C     0.71729   0.90396   0.87156   0.00000  Uiso   1.00
C232   C     0.64638   0.92546   0.78565   0.00000  Uiso   1.00
C233   C     0.58801   0.03648   0.73753   0.00000  Uiso   1.00
C234   C     0.52809   0.03716   0.66068   0.00000  Uiso   1.00
C235   C     0.41823   0.08677   0.53150   0.00000  Uiso   1.00
C236   C     0.81899   0.87635   0.92615   0.00000  Uiso   1.00
C237   C     0.90575   0.94608   0.99617   0.00000  Uiso   1.00
C238   C     0.99114   0.90541   0.03761   0.00000  Uiso   1.00
C239   C     0.14928   0.87873   0.12660   0.00000  Uiso   1.00
C240   C     0.68472   0.77561   0.86800   0.00000  Uiso   1.00
C241   C     0.65861   0.76063   0.88916   0.00000  Uiso   1.00
C242   C     0.63097   0.63513   0.88165   0.00000  Uiso   1.00
C243   C     0.58063   0.45204   0.88036   0.00000  Uiso   1.00
C244   C     0.71467   0.70773   0.82065   0.00000  Uiso   1.00
C245   C     0.64496   0.81887   0.75800   0.00000  Uiso   1.00
C246   C     0.58510   0.81937   0.68120   0.00000  Uiso   1.00
C247   C     0.52665   0.93038   0.63298   0.00000  Uiso   1.00
C248   C     0.81757   0.76977   0.89850   0.00000  Uiso   1.00
C249   C     0.90285   0.72898   0.93985   0.00000  Uiso   1.00
C250   C     0.98971   0.79863   0.00991   0.00000  Uiso   1.00
C251   C     0.68329   0.66903   0.84035   0.00000  Uiso   1.00
C252   C     0.65569   0.54352   0.83283   0.00000  Uiso   1.00
C253   C     0.62954   0.52835   0.85396   0.00000  Uiso   1.00
H254   H     0.71841   0.98694   0.89309   0.00000  Uiso   1.00
H255   H     0.58915   0.11895   0.75895   0.00000  Uiso   1.00
H256   H     0.90684   0.02855   0.01756   0.00000  Uiso   1.00
H257   H     0.65972   0.84313   0.91055   0.00000  Uiso   1.00
H258   H     0.44523   0.21832   0.59805   0.00000  Uiso   1.00
H259   H     0.11510   0.02769   0.14335   0.00000  Uiso   1.00
H260   H     0.59402   0.63669   0.91771   0.00000  Uiso   1.00
H261   H     0.71356   0.62475   0.79913   0.00000  Uiso   1.00
H262   H     0.58401   0.73688   0.65982   0.00000  Uiso   1.00
H263   H     0.90171   0.64649   0.91844   0.00000  Uiso   1.00
H264   H     0.65460   0.46107   0.81143   0.00000  Uiso   1.00
H265   H     0.44107   0.90822   0.51760   0.00000  Uiso   1.00
H266   H     0.11095   0.71758   0.06290   0.00000  Uiso   1.00
H267   H     0.58986   0.32659   0.83725   0.00000  Uiso   1.00
O268   O     0.35804   0.14359   0.46789   0.00000  Uiso   1.00
O269   O     0.23690   0.89347   0.18332   0.00000  Uiso   1.00
O270   O     0.55324   0.38050   0.88727   0.00000  Uiso   1.00
N271   N     0.46201   0.12994   0.59823   0.00000  Uiso   1.00
N272   N     0.08830   0.95172   0.10805   0.00000  Uiso   1.00
N273   N     0.60116   0.58616   0.89711   0.00000  Uiso   1.00
N274   N     0.45977   0.96308   0.55493   0.00000  Uiso   1.00
N275   N     0.08607   0.78486   0.06475   0.00000  Uiso   1.00
N276   N     0.59892   0.41930   0.85382   0.00000  Uiso   1.00
C277   C     0.78271   0.40396   0.62844   0.00000  Uiso   1.00
C278   C     0.85362   0.42546   0.71435   0.00000  Uiso   1.00
C279   C     0.91199   0.53648   0.76247   0.00000  Uiso   1.00
C280   C     0.97191   0.53716   0.83932   0.00000  Uiso   1.00
C281   C     0.08177   0.58677   0.96850   0.00000  Uiso   1.00
C282   C     0.68101   0.37635   0.57385   0.00000  Uiso   1.00
C283   C     0.59425   0.44608   0.50383   0.00000  Uiso   1.00
C284   C     0.50886   0.40541   0.46239   0.00000  Uiso   1.00
C285   C     0.35072   0.37873   0.37340   0.00000  Uiso   1.00
C286   C     0.81528   0.27561   0.63200   0.00000  Uiso   1.00
C287   C     0.84139   0.26063   0.61084   0.00000  Uiso   1.00
C288   C     0.86903   0.13513   0.61835   0.00000  Uiso   1.00
C289   C     0.91937   0.95204   0.61964   0.00000  Uiso   1.00
C290   C     0.78533   0.20773   0.67935   0.00000  Uiso   1.00
C291   C     0.85504   0.31887   0.74200   0.00000  Uiso   1.00
C292   C     0.91490   0.31937   0.81880   0.00000  Uiso   1.00
C293   C     0.97335   0.43038   0.86702   0.00000  Uiso   1.00
C294   C     0.68243   0.26977   0.60150   0.00000  Uiso   1.00
C295   C     0.59715   0.22898   0.56015   0.00000  Uiso   1.00
C296   C     0.51029   0.29863   0.49009   0.00000  Uiso   1.00
C297   C     0.81671   0.16903   0.65965   0.00000  Uiso   1.00
C298   C     0.84431   0.04352   0.66717   0.00000  Uiso   1.00
C299   C     0.87046   0.02835   0.64604   0.00000  Uiso   1.00
H300   H     0.78159   0.48694   0.60691   0.00000  Uiso   1.00
H301   H     0.91085   0.61895   0.74105   0.00000  Uiso   1.00
H302   H     0.59316   0.52855   0.48244   0.00000  Uiso   1.00
H303   H     0.84028   0.34313   0.58945   0.00000  Uiso   1.00
H304   H     0.05477   0.71832   0.90195   0.00000  Uiso   1.00
H305   H     0.38490   0.52769   0.35665   0.00000  Uiso   1.00
H306   H     0.90598   0.13669   0.58229   0.00000  Uiso   1.00
H307   H     0.78644   0.12475   0.70087   0.00000  Uiso   1.00
H308   H     0.91599   0.23688   0.84018   0.00000  Uiso   1.00
H309   H     0.59829   0.14649   0.58156   0.00000  Uiso   1.00
H310   H     0.84540   0.96107   0.68857   0.00000  Uiso   1.00
H311   H     0.05893   0.40822   0.98240   0.00000  Uiso   1.00
H312   H     0.38905   0.21758   0.43710   0.00000  Uiso   1.00
H313   H     0.91014   0.82659   0.66275   0.00000  Uiso   1.00
O314   O     0.14196   0.64359   0.03211   0.00000  Uiso   1.00
O315   O     0.26310   0.39347   0.31668   0.00000  Uiso   1.00
O316   O     0.94676   0.88050   0.61273   0.00000  Uiso   1.00
N317   N     0.03799   0.62994   0.90177   0.00000  Uiso   1.00
N318   N     0.41170   0.45172   0.39195   0.00000  Uiso   1.00
N319   N     0.89884   0.08616   0.60289   0.00000  Uiso   1.00
N320   N     0.04023   0.46308   0.94507   0.00000  Uiso   1.00
N321   N     0.41393   0.28486   0.43525   0.00000  Uiso   1.00
N322   N     0.90108   0.91930   0.64618   0.00000  Uiso   1.00
C323   C     0.28271   0.90396   0.62844   0.00000  Uiso   1.00
C324   C     0.35362   0.92546   0.71435   0.00000  Uiso   1.00
C325   C     0.41199   0.03648   0.76247   0.00000  Uiso   1.00
C326   C     0.47191   0.03716   0.83932   0.00000  Uiso   1.00
C327   C     0.58177   0.08677   0.96850   0.00000  Uiso   1.00
C328   C     0.18101   0.87635   0.57385   0.00000  Uiso   1.00
C329   C     0.09425   0.94608   0.50383   0.00000  Uiso   1.00
C330   C     0.00886   0.90541   0.46239   0.00000  Uiso   1.00
C331   C     0.85072   0.87873   0.37340   0.00000  Uiso   1.00
C332   C     0.31528   0.77561   0.63200   0.00000  Uiso   1.00
C333   C     0.34139   0.76063   0.61084   0.00000  Uiso   1.00
C334   C     0.36903   0.63513   0.61835   0.00000  Uiso   1.00
C335   C     0.41937   0.45204   0.61964   0.00000  Uiso   1.00
C336   C     0.28533   0.70773   0.67935   0.00000  Uiso   1.00
C337   C     0.35504   0.81887   0.74200   0.00000  Uiso   1.00
C338   C     0.41490   0.81937   0.81880   0.00000  Uiso   1.00
C339   C     0.47335   0.93038   0.86702   0.00000  Uiso   1.00
C340   C     0.18243   0.76977   0.60150   0.00000  Uiso   1.00
C341   C     0.09715   0.72898   0.56015   0.00000  Uiso   1.00
C342   C     0.01029   0.79863   0.49009   0.00000  Uiso   1.00
C343   C     0.31671   0.66903   0.65965   0.00000  Uiso   1.00
C344   C     0.34431   0.54352   0.66717   0.00000  Uiso   1.00
C345   C     0.37046   0.52835   0.64604   0.00000  Uiso   1.00
H346   H     0.28159   0.98694   0.60691   0.00000  Uiso   1.00
H347   H     0.41085   0.11895   0.74105   0.00000  Uiso   1.00
H348   H     0.09316   0.02855   0.48244   0.00000  Uiso   1.00
H349   H     0.34028   0.84313   0.58945   0.00000  Uiso   1.00
H350   H     0.55477   0.21832   0.90195   0.00000  Uiso   1.00
H351   H     0.88490   0.02769   0.35665   0.00000  Uiso   1.00
H352   H     0.40598   0.63669   0.58229   0.00000  Uiso   1.00
H353   H     0.28644   0.62475   0.70087   0.00000  Uiso   1.00
H354   H     0.41599   0.73688   0.84018   0.00000  Uiso   1.00
H355   H     0.09829   0.64649   0.58156   0.00000  Uiso   1.00
H356   H     0.34540   0.46107   0.68857   0.00000  Uiso   1.00
H357   H     0.55893   0.90822   0.98240   0.00000  Uiso   1.00
H358   H     0.88905   0.71758   0.43710   0.00000  Uiso   1.00
H359   H     0.41014   0.32659   0.66275   0.00000  Uiso   1.00
O360   O     0.64196   0.14359   0.03211   0.00000  Uiso   1.00
O361   O     0.76310   0.89347   0.31668   0.00000  Uiso   1.00
O362   O     0.44676   0.38050   0.61273   0.00000  Uiso   1.00
N363   N     0.53799   0.12994   0.90177   0.00000  Uiso   1.00
N364   N     0.91170   0.95172   0.39195   0.00000  Uiso   1.00
N365   N     0.39884   0.58616   0.60289   0.00000  Uiso   1.00
N366   N     0.54023   0.96308   0.94507   0.00000  Uiso   1.00
N367   N     0.91393   0.78486   0.43525   0.00000  Uiso   1.00
N368   N     0.40108   0.41930   0.64618   0.00000  Uiso   1.00
