data_job_06362
_audit_creation_date              2018-12-19
_audit_creation_method            'Materials Studio'
_symmetry_space_group_name_H-M    'P1'
_symmetry_Int_Tables_number       1
_symmetry_cell_setting            triclinic
loop_
_symmetry_equiv_pos_as_xyz
  x,y,z
_cell_length_a                    16.1653
_cell_length_b                    16.1529
_cell_length_c                    16.1402
_cell_angle_alpha                 100.5100
_cell_angle_beta                  100.5040
_cell_angle_gamma                 100.4980
loop_
_atom_site_label
_atom_site_type_symbol
_atom_site_fract_x
_atom_site_fract_y
_atom_site_fract_z
_atom_site_U_iso_or_equiv
_atom_site_adp_type
_atom_site_occupancy
C1     C     0.61388   0.04435   0.47496   0.00000  Uiso   1.00
C2     C     0.69685   0.07075   0.44470   0.00000  Uiso   1.00
C3     C     0.71190   0.03815   0.36448   0.00000  Uiso   1.00
C4     C     0.79200   0.07064   0.34928   0.00000  Uiso   1.00
C5     C     0.91130   0.10204   0.29276   0.00000  Uiso   1.00
C6     C     0.64029   0.01418   0.55808   0.00000  Uiso   1.00
C7     C     0.60778   0.93402   0.57319   0.00000  Uiso   1.00
C8     C     0.64028   0.91889   0.65345   0.00000  Uiso   1.00
C9     C     0.67173   0.86248   0.77297   0.00000  Uiso   1.00
C10    C     0.58366   0.12738   0.50137   0.00000  Uiso   1.00
C11    C     0.50352   0.14240   0.46880   0.00000  Uiso   1.00
C12    C     0.48833   0.22258   0.50132   0.00000  Uiso   1.00
C13    C     0.43185   0.34194   0.53278   0.00000  Uiso   1.00
C14    C     0.72938   0.16001   0.59063   0.00000  Uiso   1.00
C15    C     0.75958   0.13357   0.50753   0.00000  Uiso   1.00
C16    C     0.83969   0.16612   0.49245   0.00000  Uiso   1.00
C17    C     0.85485   0.13358   0.41222   0.00000  Uiso   1.00
C18    C     0.70303   0.07700   0.62091   0.00000  Uiso   1.00
C19    C     0.73557   0.06198   0.70117   0.00000  Uiso   1.00
C20    C     0.70313   0.98182   0.71639   0.00000  Uiso   1.00
C21    C     0.64640   0.19021   0.56419   0.00000  Uiso   1.00
C22    C     0.63132   0.27037   0.59677   0.00000  Uiso   1.00
C23    C     0.55118   0.28551   0.56426   0.00000  Uiso   1.00
H24    H     0.56504   0.99544   0.42605   0.00000  Uiso   1.00
H25    H     0.66333   0.98953   0.31588   0.00000  Uiso   1.00
H26    H     0.55923   0.88542   0.52456   0.00000  Uiso   1.00
H27    H     0.45499   0.09377   0.42018   0.00000  Uiso   1.00
H28    H     0.79998   0.01066   0.22145   0.00000  Uiso   1.00
H29    H     0.58046   0.79114   0.66148   0.00000  Uiso   1.00
H30    H     0.36065   0.23050   0.44138   0.00000  Uiso   1.00
H31    H     0.77823   0.20893   0.63955   0.00000  Uiso   1.00
H32    H     0.88823   0.21473   0.54108   0.00000  Uiso   1.00
H33    H     0.78412   0.11061   0.74977   0.00000  Uiso   1.00
H34    H     0.67988   0.31897   0.64539   0.00000  Uiso   1.00
H35    H     0.98252   0.19344   0.40423   0.00000  Uiso   1.00
H36    H     0.76299   0.97392   0.84427   0.00000  Uiso   1.00
H37    H     0.54318   0.41328   0.62417   0.00000  Uiso   1.00
O38    O     0.95977   0.10200   0.24423   0.00000  Uiso   1.00
O39    O     0.67175   0.81400   0.82154   0.00000  Uiso   1.00
O40    O     0.38337   0.39043   0.53277   0.00000  Uiso   1.00
N41    N     0.82784   0.05289   0.27797   0.00000  Uiso   1.00
N42    N     0.62261   0.84765   0.68937   0.00000  Uiso   1.00
N43    N     0.41710   0.25841   0.48361   0.00000  Uiso   1.00
N44    N     0.92606   0.15125   0.37633   0.00000  Uiso   1.00
N45    N     0.72083   0.94600   0.78773   0.00000  Uiso   1.00
N46    N     0.51532   0.35676   0.58197   0.00000  Uiso   1.00
C47    C     0.47493   0.61371   0.04435   0.00000  Uiso   1.00
C48    C     0.44473   0.69675   0.07079   0.00000  Uiso   1.00
C49    C     0.36463   0.71183   0.03818   0.00000  Uiso   1.00
C50    C     0.34947   0.79201   0.07070   0.00000  Uiso   1.00
C51    C     0.29305   0.91141   0.10215   0.00000  Uiso   1.00
C52    C     0.55792   0.64013   0.01414   0.00000  Uiso   1.00
C53    C     0.57300   0.60758   0.93390   0.00000  Uiso   1.00
C54    C     0.65312   0.64008   0.91875   0.00000  Uiso   1.00
C55    C     0.77245   0.67153   0.86228   0.00000  Uiso   1.00
C56    C     0.50130   0.58347   0.12744   0.00000  Uiso   1.00
C57    C     0.46878   0.50328   0.14247   0.00000  Uiso   1.00
C58    C     0.50125   0.48808   0.22270   0.00000  Uiso   1.00
C59    C     0.53267   0.43156   0.34215   0.00000  Uiso   1.00
C60    C     0.59043   0.72930   0.16010   0.00000  Uiso   1.00
C61    C     0.50747   0.75954   0.13365   0.00000  Uiso   1.00
C62    C     0.49242   0.83971   0.16624   0.00000  Uiso   1.00
C63    C     0.41231   0.85490   0.13369   0.00000  Uiso   1.00
C64    C     0.62066   0.70291   0.07700   0.00000  Uiso   1.00
C65    C     0.70078   0.73547   0.06197   0.00000  Uiso   1.00
C66    C     0.71597   0.70298   0.98173   0.00000  Uiso   1.00
C67    C     0.56403   0.64626   0.19031   0.00000  Uiso   1.00
C68    C     0.59657   0.63117   0.27053   0.00000  Uiso   1.00
C69    C     0.56410   0.55098   0.28568   0.00000  Uiso   1.00
H70    H     0.42610   0.56483   0.99540   0.00000  Uiso   1.00
H71    H     0.31610   0.66323   0.98952   0.00000  Uiso   1.00
H72    H     0.52444   0.55899   0.88527   0.00000  Uiso   1.00
H73    H     0.42024   0.45471   0.09380   0.00000  Uiso   1.00
H74    H     0.22184   0.80001   0.01070   0.00000  Uiso   1.00
H75    H     0.66113   0.58020   0.79089   0.00000  Uiso   1.00
H76    H     0.44140   0.36031   0.23063   0.00000  Uiso   1.00
H77    H     0.63928   0.77818   0.20905   0.00000  Uiso   1.00
H78    H     0.54098   0.88829   0.21489   0.00000  Uiso   1.00
H79    H     0.74931   0.78405   0.11064   0.00000  Uiso   1.00
H80    H     0.64511   0.67977   0.31917   0.00000  Uiso   1.00
H81    H     0.40436   0.98268   0.19361   0.00000  Uiso   1.00
H82    H     0.84365   0.76286   0.97381   0.00000  Uiso   1.00
H83    H     0.62392   0.54298   0.41354   0.00000  Uiso   1.00
O84    O     0.24460   0.95993   0.10212   0.00000  Uiso   1.00
O85    O     0.82094   0.67153   0.81375   0.00000  Uiso   1.00
O86    O     0.53266   0.38305   0.39067   0.00000  Uiso   1.00
N87    N     0.27828   0.82789   0.05296   0.00000  Uiso   1.00
N88    N     0.68898   0.62238   0.84745   0.00000  Uiso   1.00
N89    N     0.48357   0.41680   0.25855   0.00000  Uiso   1.00
N90    N     0.37649   0.92618   0.15138   0.00000  Uiso   1.00
N91    N     0.78719   0.72068   0.94587   0.00000  Uiso   1.00
N92    N     0.58179   0.51509   0.35698   0.00000  Uiso   1.00
C93    C     0.04429   0.47491   0.61354   0.00000  Uiso   1.00
C94    C     0.07069   0.44469   0.69664   0.00000  Uiso   1.00
C95    C     0.03813   0.36454   0.71172   0.00000  Uiso   1.00
C96    C     0.07060   0.34936   0.79196   0.00000  Uiso   1.00
C97    C     0.10201   0.29290   0.91145   0.00000  Uiso   1.00
C98    C     0.01413   0.55797   0.63999   0.00000  Uiso   1.00
C99    C     0.93403   0.57307   0.60743   0.00000  Uiso   1.00
C100   C     0.91890   0.65327   0.63997   0.00000  Uiso   1.00
C101   C     0.86253   0.77271   0.67147   0.00000  Uiso   1.00
C102   C     0.12724   0.50128   0.58326   0.00000  Uiso   1.00
C103   C     0.14224   0.46872   0.50299   0.00000  Uiso   1.00
C104   C     0.22234   0.50120   0.48777   0.00000  Uiso   1.00
C105   C     0.34160   0.53261   0.43119   0.00000  Uiso   1.00
C106   C     0.15987   0.59049   0.72921   0.00000  Uiso   1.00
C107   C     0.13346   0.50747   0.75947   0.00000  Uiso   1.00
C108   C     0.16600   0.49241   0.83970   0.00000  Uiso   1.00
C109   C     0.13349   0.41225   0.85490   0.00000  Uiso   1.00
C110   C     0.07690   0.62075   0.70282   0.00000  Uiso   1.00
C111   C     0.06190   0.70095   0.73541   0.00000  Uiso   1.00
C112   C     0.98179   0.71616   0.70291   0.00000  Uiso   1.00
C113   C     0.19002   0.56406   0.64609   0.00000  Uiso   1.00
C114   C     0.27011   0.59660   0.63098   0.00000  Uiso   1.00
C115   C     0.28523   0.56410   0.55071   0.00000  Uiso   1.00
H116   H     0.99541   0.42604   0.56462   0.00000  Uiso   1.00
H117   H     0.98954   0.31597   0.66308   0.00000  Uiso   1.00
H118   H     0.88546   0.52448   0.55880   0.00000  Uiso   1.00
H119   H     0.09365   0.42014   0.45439   0.00000  Uiso   1.00
H120   H     0.01069   0.22164   0.79996   0.00000  Uiso   1.00
H121   H     0.79125   0.66130   0.58006   0.00000  Uiso   1.00
H122   H     0.23024   0.44129   0.35988   0.00000  Uiso   1.00
H123   H     0.20874   0.63937   0.77813   0.00000  Uiso   1.00
H124   H     0.21458   0.54101   0.88831   0.00000  Uiso   1.00
H125   H     0.11050   0.74952   0.78403   0.00000  Uiso   1.00
H126   H     0.31868   0.64518   0.67962   0.00000  Uiso   1.00
H127   H     0.19333   0.40429   0.98277   0.00000  Uiso   1.00
H128   H     0.97389   0.84395   0.76286   0.00000  Uiso   1.00
H129   H     0.41289   0.62394   0.54269   0.00000  Uiso   1.00
O130   O     0.10198   0.24442   0.96000   0.00000  Uiso   1.00
O131   O     0.81409   0.82124   0.67149   0.00000  Uiso   1.00
O132   O     0.39004   0.53259   0.38262   0.00000  Uiso   1.00
N133   N     0.05289   0.27812   0.82786   0.00000  Uiso   1.00
N134   N     0.84772   0.68917   0.62227   0.00000  Uiso   1.00
N135   N     0.25813   0.48349   0.41642   0.00000  Uiso   1.00
N136   N     0.15117   0.37640   0.92623   0.00000  Uiso   1.00
N137   N     0.94600   0.78745   0.72064   0.00000  Uiso   1.00
N138   N     0.35641   0.58178   0.51479   0.00000  Uiso   1.00
C139   C     0.11388   0.97496   0.54437   0.00000  Uiso   1.00
C140   C     0.19685   0.94473   0.57080   0.00000  Uiso   1.00
C141   C     0.21191   0.86456   0.53818   0.00000  Uiso   1.00
C142   C     0.29202   0.84938   0.57069   0.00000  Uiso   1.00
C143   C     0.41133   0.79290   0.60213   0.00000  Uiso   1.00
C144   C     0.14028   0.05801   0.51417   0.00000  Uiso   1.00
C145   C     0.10776   0.07310   0.43394   0.00000  Uiso   1.00
C146   C     0.14025   0.15329   0.41879   0.00000  Uiso   1.00
C147   C     0.17168   0.27271   0.36232   0.00000  Uiso   1.00
C148   C     0.08367   0.00135   0.62747   0.00000  Uiso   1.00
C149   C     0.00354   0.96882   0.64250   0.00000  Uiso   1.00
C150   C     0.98835   0.00131   0.72274   0.00000  Uiso   1.00
C151   C     0.93188   0.03276   0.84220   0.00000  Uiso   1.00
C152   C     0.22939   0.09054   0.66012   0.00000  Uiso   1.00
C153   C     0.25959   0.00751   0.63367   0.00000  Uiso   1.00
C154   C     0.33970   0.99244   0.66624   0.00000  Uiso   1.00
C155   C     0.35487   0.91227   0.63368   0.00000  Uiso   1.00
C156   C     0.20302   0.12079   0.57703   0.00000  Uiso   1.00
C157   C     0.23555   0.20098   0.56200   0.00000  Uiso   1.00
C158   C     0.20310   0.21618   0.48177   0.00000  Uiso   1.00
C159   C     0.14641   0.06413   0.69034   0.00000  Uiso   1.00
C160   C     0.13133   0.09669   0.77057   0.00000  Uiso   1.00
C161   C     0.05120   0.06421   0.78572   0.00000  Uiso   1.00
H162   H     0.06504   0.92609   0.49542   0.00000  Uiso   1.00
H163   H     0.16334   0.81600   0.48952   0.00000  Uiso   1.00
H164   H     0.05921   0.02451   0.38530   0.00000  Uiso   1.00
H165   H     0.95500   0.92023   0.59384   0.00000  Uiso   1.00
H166   H     0.30001   0.72165   0.51068   0.00000  Uiso   1.00
H167   H     0.08041   0.16130   0.29094   0.00000  Uiso   1.00
H168   H     0.86067   0.94143   0.73067   0.00000  Uiso   1.00
H169   H     0.27823   0.13942   0.70907   0.00000  Uiso   1.00
H170   H     0.38824   0.04104   0.71489   0.00000  Uiso   1.00
H171   H     0.28410   0.24955   0.61067   0.00000  Uiso   1.00
H172   H     0.17990   0.14527   0.81920   0.00000  Uiso   1.00
H173   H     0.48255   0.90430   0.69359   0.00000  Uiso   1.00
H174   H     0.26294   0.34396   0.47385   0.00000  Uiso   1.00
H175   H     0.04321   0.12408   0.91359   0.00000  Uiso   1.00
O176   O     0.45981   0.74441   0.60209   0.00000  Uiso   1.00
O177   O     0.17169   0.32123   0.31380   0.00000  Uiso   1.00
O178   O     0.88340   0.03275   0.89072   0.00000  Uiso   1.00
N179   N     0.32787   0.77813   0.55294   0.00000  Uiso   1.00
N180   N     0.12257   0.18918   0.34749   0.00000  Uiso   1.00
N181   N     0.91712   0.98363   0.75860   0.00000  Uiso   1.00
N182   N     0.42609   0.87641   0.65137   0.00000  Uiso   1.00
N183   N     0.22079   0.28746   0.44592   0.00000  Uiso   1.00
N184   N     0.01534   0.08191   0.85702   0.00000  Uiso   1.00
C185   C     0.97491   0.54431   0.11354   0.00000  Uiso   1.00
C186   C     0.94471   0.57073   0.19664   0.00000  Uiso   1.00
C187   C     0.86462   0.53815   0.21173   0.00000  Uiso   1.00
C188   C     0.84946   0.57065   0.29197   0.00000  Uiso   1.00
C189   C     0.79305   0.60209   0.41147   0.00000  Uiso   1.00
C190   C     0.05790   0.51412   0.13998   0.00000  Uiso   1.00
C191   C     0.07298   0.43395   0.10741   0.00000  Uiso   1.00
C192   C     0.15311   0.41881   0.13994   0.00000  Uiso   1.00
C193   C     0.27245   0.36238   0.17142   0.00000  Uiso   1.00
C194   C     0.00126   0.62733   0.08327   0.00000  Uiso   1.00
C195   C     0.96874   0.64234   0.00300   0.00000  Uiso   1.00
C196   C     0.00119   0.72250   0.98779   0.00000  Uiso   1.00
C197   C     0.03259   0.84185   0.93121   0.00000  Uiso   1.00
C198   C     0.09041   0.65997   0.22921   0.00000  Uiso   1.00
C199   C     0.00745   0.63355   0.25947   0.00000  Uiso   1.00
C200   C     0.99240   0.66612   0.33971   0.00000  Uiso   1.00
C201   C     0.91230   0.63359   0.35491   0.00000  Uiso   1.00
C202   C     0.12064   0.57694   0.20281   0.00000  Uiso   1.00
C203   C     0.20077   0.56192   0.23539   0.00000  Uiso   1.00
C204   C     0.21596   0.48174   0.20289   0.00000  Uiso   1.00
C205   C     0.06400   0.69015   0.14610   0.00000  Uiso   1.00
C206   C     0.09652   0.77030   0.13099   0.00000  Uiso   1.00
C207   C     0.06404   0.78544   0.05073   0.00000  Uiso   1.00
H208   H     0.92607   0.49540   0.06462   0.00000  Uiso   1.00
H209   H     0.81609   0.48953   0.16309   0.00000  Uiso   1.00
H210   H     0.02442   0.38535   0.05878   0.00000  Uiso   1.00
H211   H     0.92019   0.59371   0.95440   0.00000  Uiso   1.00
H212   H     0.72183   0.51070   0.29999   0.00000  Uiso   1.00
H213   H     0.16113   0.29105   0.08002   0.00000  Uiso   1.00
H214   H     0.94133   0.73041   0.85991   0.00000  Uiso   1.00
H215   H     0.13925   0.70888   0.27813   0.00000  Uiso   1.00
H216   H     0.04097   0.71473   0.38832   0.00000  Uiso   1.00
H217   H     0.24930   0.61055   0.28401   0.00000  Uiso   1.00
H218   H     0.14506   0.81890   0.17963   0.00000  Uiso   1.00
H219   H     0.90435   0.69348   0.48279   0.00000  Uiso   1.00
H220   H     0.34365   0.47383   0.26282   0.00000  Uiso   1.00
H221   H     0.12385   0.91319   0.04271   0.00000  Uiso   1.00
O222   O     0.74460   0.60207   0.46003   0.00000  Uiso   1.00
O223   O     0.32094   0.31390   0.17143   0.00000  Uiso   1.00
O224   O     0.03257   0.89033   0.88266   0.00000  Uiso   1.00
N225   N     0.77827   0.55293   0.32788   0.00000  Uiso   1.00
N226   N     0.18898   0.34756   0.12224   0.00000  Uiso   1.00
N227   N     0.98350   0.75832   0.91644   0.00000  Uiso   1.00
N228   N     0.87648   0.65128   0.42625   0.00000  Uiso   1.00
N229   N     0.28719   0.44592   0.22060   0.00000  Uiso   1.00
N230   N     0.08172   0.85667   0.01481   0.00000  Uiso   1.00
C231   C     0.54431   0.11371   0.97494   0.00000  Uiso   1.00
C232   C     0.57070   0.19674   0.94468   0.00000  Uiso   1.00
C233   C     0.53813   0.21180   0.86446   0.00000  Uiso   1.00
C234   C     0.57059   0.29197   0.84927   0.00000  Uiso   1.00
C235   C     0.60198   0.41136   0.79276   0.00000  Uiso   1.00
C236   C     0.51416   0.14015   0.05807   0.00000  Uiso   1.00
C237   C     0.43406   0.10762   0.07318   0.00000  Uiso   1.00
C238   C     0.41894   0.14014   0.15344   0.00000  Uiso   1.00
C239   C     0.36258   0.17162   0.27297   0.00000  Uiso   1.00
C240   C     0.62727   0.08346   0.00133   0.00000  Uiso   1.00
C241   C     0.64228   0.00326   0.96876   0.00000  Uiso   1.00
C242   C     0.72238   0.98805   0.00126   0.00000  Uiso   1.00
C243   C     0.84165   0.93151   0.03271   0.00000  Uiso   1.00
C244   C     0.65989   0.22930   0.09061   0.00000  Uiso   1.00
C245   C     0.63347   0.25952   0.00751   0.00000  Uiso   1.00
C246   C     0.66600   0.33969   0.99244   0.00000  Uiso   1.00
C247   C     0.63348   0.35487   0.91221   0.00000  Uiso   1.00
C248   C     0.57693   0.20293   0.12089   0.00000  Uiso   1.00
C249   C     0.56193   0.23550   0.20115   0.00000  Uiso   1.00
C250   C     0.48183   0.20304   0.21638   0.00000  Uiso   1.00
C251   C     0.69005   0.14624   0.06416   0.00000  Uiso   1.00
C252   C     0.77015   0.13115   0.09673   0.00000  Uiso   1.00
C253   C     0.78527   0.05094   0.06421   0.00000  Uiso   1.00
H254   H     0.49544   0.06483   0.92603   0.00000  Uiso   1.00
H255   H     0.48954   0.16320   0.81586   0.00000  Uiso   1.00
H256   H     0.38550   0.05903   0.02455   0.00000  Uiso   1.00
H257   H     0.59368   0.95469   0.92014   0.00000  Uiso   1.00
H258   H     0.51067   0.29996   0.72144   0.00000  Uiso   1.00
H259   H     0.29130   0.08029   0.16148   0.00000  Uiso   1.00
H260   H     0.73029   0.86026   0.94131   0.00000  Uiso   1.00
H261   H     0.70876   0.27818   0.13952   0.00000  Uiso   1.00
H262   H     0.71458   0.38826   0.04107   0.00000  Uiso   1.00
H263   H     0.61053   0.28409   0.24976   0.00000  Uiso   1.00
H264   H     0.81871   0.17975   0.14535   0.00000  Uiso   1.00
H265   H     0.69331   0.48263   0.90423   0.00000  Uiso   1.00
H266   H     0.47394   0.26295   0.34427   0.00000  Uiso   1.00
H267   H     0.91294   0.04293   0.12410   0.00000  Uiso   1.00
O268   O     0.60194   0.45987   0.74423   0.00000  Uiso   1.00
O269   O     0.31415   0.17165   0.32154   0.00000  Uiso   1.00
O270   O     0.89009   0.88299   0.03269   0.00000  Uiso   1.00
N271   N     0.55287   0.32784   0.77797   0.00000  Uiso   1.00
N272   N     0.34776   0.12246   0.18937   0.00000  Uiso   1.00
N273   N     0.75818   0.91675   0.98355   0.00000  Uiso   1.00
N274   N     0.65115   0.42613   0.87632   0.00000  Uiso   1.00
N275   N     0.44604   0.22076   0.28773   0.00000  Uiso   1.00
N276   N     0.85646   0.01504   0.08191   0.00000  Uiso   1.00
