data_job_04854
_audit_creation_date              2018-12-19
_audit_creation_method            'Materials Studio'
_symmetry_space_group_name_H-M    'P1'
_symmetry_Int_Tables_number       1
_symmetry_cell_setting            triclinic
loop_
_symmetry_equiv_pos_as_xyz
  x,y,z
_cell_length_a                    10.3701
_cell_length_b                    15.3674
_cell_length_c                    16.0060
_cell_angle_alpha                 90.0000
_cell_angle_beta                  114.8312
_cell_angle_gamma                 90.0000
loop_
_atom_site_label
_atom_site_type_symbol
_atom_site_fract_x
_atom_site_fract_y
_atom_site_fract_z
_atom_site_U_iso_or_equiv
_atom_site_adp_type
_atom_site_occupancy
C1     C     0.11133   0.31933   0.79461   0.00000  Uiso   1.00
C2     C     0.00583   0.36587   0.70906   0.00000  Uiso   1.00
C3     C     0.87345   0.33455   0.64949   0.00000  Uiso   1.00
C4     C     0.79282   0.38693   0.57513   0.00000  Uiso   1.00
C5     C     0.62141   0.44688   0.44442   0.00000  Uiso   1.00
C6     C     0.24897   0.31196   0.78229   0.00000  Uiso   1.00
C7     C     0.32103   0.23532   0.78431   0.00000  Uiso   1.00
C8     C     0.44510   0.24233   0.77161   0.00000  Uiso   1.00
C9     C     0.65122   0.21861   0.75466   0.00000  Uiso   1.00
C10    C     0.14241   0.38206   0.87458   0.00000  Uiso   1.00
C11    C     0.12490   0.36436   0.95422   0.00000  Uiso   1.00
C12    C     0.15928   0.43037   0.01924   0.00000  Uiso   1.00
C13    C     0.19995   0.51548   0.14559   0.00000  Uiso   1.00
C14    C     0.20356   0.46803   0.76849   0.00000  Uiso   1.00
C15    C     0.05593   0.44664   0.69487   0.00000  Uiso   1.00
C16    C     0.97548   0.49908   0.62058   0.00000  Uiso   1.00
C17    C     0.84300   0.46785   0.56092   0.00000  Uiso   1.00
C18    C     0.29907   0.39273   0.76810   0.00000  Uiso   1.00
C19    C     0.42306   0.39985   0.75541   0.00000  Uiso   1.00
C20    C     0.49528   0.32325   0.75740   0.00000  Uiso   1.00
C21    C     0.19250   0.46283   0.86040   0.00000  Uiso   1.00
C22    C     0.22692   0.52889   0.92531   0.00000  Uiso   1.00
C23    C     0.20946   0.51129   0.00503   0.00000  Uiso   1.00
H24    H     0.07235   0.25644   0.80566   0.00000  Uiso   1.00
H25    H     0.83473   0.27203   0.66049   0.00000  Uiso   1.00
H26    H     0.28225   0.17283   0.79530   0.00000  Uiso   1.00
H27    H     0.08614   0.30184   0.96518   0.00000  Uiso   1.00
H28    H     0.59340   0.32493   0.49326   0.00000  Uiso   1.00
H29    H     0.53704   0.11575   0.77755   0.00000  Uiso   1.00
H30    H     0.12351   0.38780   0.13577   0.00000  Uiso   1.00
H31    H     0.24256   0.53092   0.75744   0.00000  Uiso   1.00
H32    H     0.01427   0.56158   0.60962   0.00000  Uiso   1.00
H33    H     0.46179   0.46237   0.74443   0.00000  Uiso   1.00
H34    H     0.26568   0.59138   0.91431   0.00000  Uiso   1.00
H35    H     0.73912   0.55993   0.45197   0.00000  Uiso   1.00
H36    H     0.68277   0.35075   0.73627   0.00000  Uiso   1.00
H37    H     0.26924   0.62280   0.09449   0.00000  Uiso   1.00
O38    O     0.51304   0.45763   0.37623   0.00000  Uiso   1.00
O39    O     0.75107   0.18320   0.74922   0.00000  Uiso   1.00
O40    O     0.20852   0.54012   0.21920   0.00000  Uiso   1.00
N41    N     0.65901   0.37604   0.50384   0.00000  Uiso   1.00
N42    N     0.54125   0.18047   0.76962   0.00000  Uiso   1.00
N43    N     0.15467   0.43480   0.10454   0.00000  Uiso   1.00
N44    N     0.73742   0.50249   0.48162   0.00000  Uiso   1.00
N45    N     0.61966   0.30692   0.74740   0.00000  Uiso   1.00
N46    N     0.23308   0.56125   0.08232   0.00000  Uiso   1.00
C47    C     0.88867   0.81933   0.70539   0.00000  Uiso   1.00
C48    C     0.99417   0.86587   0.79094   0.00000  Uiso   1.00
C49    C     0.12655   0.83455   0.85051   0.00000  Uiso   1.00
C50    C     0.20718   0.88693   0.92487   0.00000  Uiso   1.00
C51    C     0.37859   0.94688   0.05558   0.00000  Uiso   1.00
C52    C     0.75103   0.81196   0.71771   0.00000  Uiso   1.00
C53    C     0.67897   0.73532   0.71569   0.00000  Uiso   1.00
C54    C     0.55490   0.74233   0.72839   0.00000  Uiso   1.00
C55    C     0.34878   0.71861   0.74534   0.00000  Uiso   1.00
C56    C     0.85759   0.88206   0.62542   0.00000  Uiso   1.00
C57    C     0.87510   0.86436   0.54578   0.00000  Uiso   1.00
C58    C     0.84072   0.93037   0.48076   0.00000  Uiso   1.00
C59    C     0.80005   0.01548   0.35441   0.00000  Uiso   1.00
C60    C     0.79644   0.96803   0.73151   0.00000  Uiso   1.00
C61    C     0.94407   0.94664   0.80513   0.00000  Uiso   1.00
C62    C     0.02452   0.99908   0.87942   0.00000  Uiso   1.00
C63    C     0.15700   0.96785   0.93908   0.00000  Uiso   1.00
C64    C     0.70093   0.89273   0.73190   0.00000  Uiso   1.00
C65    C     0.57694   0.89985   0.74459   0.00000  Uiso   1.00
C66    C     0.50472   0.82325   0.74260   0.00000  Uiso   1.00
C67    C     0.80750   0.96283   0.63960   0.00000  Uiso   1.00
C68    C     0.77308   0.02889   0.57469   0.00000  Uiso   1.00
C69    C     0.79054   0.01129   0.49497   0.00000  Uiso   1.00
H70    H     0.92765   0.75644   0.69434   0.00000  Uiso   1.00
H71    H     0.16527   0.77203   0.83951   0.00000  Uiso   1.00
H72    H     0.71775   0.67283   0.70470   0.00000  Uiso   1.00
H73    H     0.91386   0.80184   0.53482   0.00000  Uiso   1.00
H74    H     0.40660   0.82493   0.00674   0.00000  Uiso   1.00
H75    H     0.46296   0.61575   0.72245   0.00000  Uiso   1.00
H76    H     0.87649   0.88780   0.36423   0.00000  Uiso   1.00
H77    H     0.75744   0.03092   0.74256   0.00000  Uiso   1.00
H78    H     0.98573   0.06158   0.89038   0.00000  Uiso   1.00
H79    H     0.53821   0.96237   0.75557   0.00000  Uiso   1.00
H80    H     0.73432   0.09138   0.58569   0.00000  Uiso   1.00
H81    H     0.26088   0.05993   0.04803   0.00000  Uiso   1.00
H82    H     0.31723   0.85075   0.76373   0.00000  Uiso   1.00
H83    H     0.73076   0.12280   0.40551   0.00000  Uiso   1.00
O84    O     0.48696   0.95763   0.12377   0.00000  Uiso   1.00
O85    O     0.24893   0.68320   0.75078   0.00000  Uiso   1.00
O86    O     0.79148   0.04012   0.28080   0.00000  Uiso   1.00
N87    N     0.34099   0.87604   0.99616   0.00000  Uiso   1.00
N88    N     0.45875   0.68047   0.73038   0.00000  Uiso   1.00
N89    N     0.84533   0.93480   0.39546   0.00000  Uiso   1.00
N90    N     0.26258   0.00249   0.01838   0.00000  Uiso   1.00
N91    N     0.38034   0.80692   0.75260   0.00000  Uiso   1.00
N92    N     0.76692   0.06125   0.41768   0.00000  Uiso   1.00
C93    C     0.88867   0.68067   0.20539   0.00000  Uiso   1.00
C94    C     0.99417   0.63413   0.29094   0.00000  Uiso   1.00
C95    C     0.12655   0.66545   0.35051   0.00000  Uiso   1.00
C96    C     0.20718   0.61307   0.42487   0.00000  Uiso   1.00
C97    C     0.37859   0.55312   0.55558   0.00000  Uiso   1.00
C98    C     0.75103   0.68804   0.21771   0.00000  Uiso   1.00
C99    C     0.67897   0.76468   0.21569   0.00000  Uiso   1.00
C100   C     0.55490   0.75767   0.22839   0.00000  Uiso   1.00
C101   C     0.34878   0.78139   0.24534   0.00000  Uiso   1.00
C102   C     0.85759   0.61794   0.12542   0.00000  Uiso   1.00
C103   C     0.87510   0.63564   0.04578   0.00000  Uiso   1.00
C104   C     0.84072   0.56963   0.98076   0.00000  Uiso   1.00
C105   C     0.80005   0.48452   0.85441   0.00000  Uiso   1.00
C106   C     0.79644   0.53197   0.23151   0.00000  Uiso   1.00
C107   C     0.94407   0.55336   0.30513   0.00000  Uiso   1.00
C108   C     0.02452   0.50092   0.37942   0.00000  Uiso   1.00
C109   C     0.15700   0.53215   0.43908   0.00000  Uiso   1.00
C110   C     0.70093   0.60727   0.23190   0.00000  Uiso   1.00
C111   C     0.57694   0.60015   0.24459   0.00000  Uiso   1.00
C112   C     0.50472   0.67675   0.24260   0.00000  Uiso   1.00
C113   C     0.80750   0.53717   0.13960   0.00000  Uiso   1.00
C114   C     0.77308   0.47111   0.07469   0.00000  Uiso   1.00
C115   C     0.79054   0.48871   0.99497   0.00000  Uiso   1.00
H116   H     0.92765   0.74356   0.19434   0.00000  Uiso   1.00
H117   H     0.16527   0.72797   0.33951   0.00000  Uiso   1.00
H118   H     0.71775   0.82717   0.20470   0.00000  Uiso   1.00
H119   H     0.91386   0.69816   0.03482   0.00000  Uiso   1.00
H120   H     0.40660   0.67507   0.50674   0.00000  Uiso   1.00
H121   H     0.46296   0.88425   0.22245   0.00000  Uiso   1.00
H122   H     0.87649   0.61220   0.86423   0.00000  Uiso   1.00
H123   H     0.75744   0.46908   0.24256   0.00000  Uiso   1.00
H124   H     0.98573   0.43842   0.39038   0.00000  Uiso   1.00
H125   H     0.53821   0.53763   0.25557   0.00000  Uiso   1.00
H126   H     0.73432   0.40862   0.08569   0.00000  Uiso   1.00
H127   H     0.26088   0.44007   0.54803   0.00000  Uiso   1.00
H128   H     0.31723   0.64925   0.26373   0.00000  Uiso   1.00
H129   H     0.73076   0.37720   0.90551   0.00000  Uiso   1.00
O130   O     0.48696   0.54237   0.62377   0.00000  Uiso   1.00
O131   O     0.24893   0.81680   0.25078   0.00000  Uiso   1.00
O132   O     0.79148   0.45988   0.78080   0.00000  Uiso   1.00
N133   N     0.34099   0.62396   0.49616   0.00000  Uiso   1.00
N134   N     0.45875   0.81953   0.23038   0.00000  Uiso   1.00
N135   N     0.84533   0.56520   0.89546   0.00000  Uiso   1.00
N136   N     0.26258   0.49751   0.51838   0.00000  Uiso   1.00
N137   N     0.38034   0.69308   0.25260   0.00000  Uiso   1.00
N138   N     0.76692   0.43875   0.91768   0.00000  Uiso   1.00
C139   C     0.11133   0.18067   0.29461   0.00000  Uiso   1.00
C140   C     0.00583   0.13413   0.20906   0.00000  Uiso   1.00
C141   C     0.87345   0.16545   0.14949   0.00000  Uiso   1.00
C142   C     0.79282   0.11307   0.07513   0.00000  Uiso   1.00
C143   C     0.62141   0.05312   0.94442   0.00000  Uiso   1.00
C144   C     0.24897   0.18804   0.28229   0.00000  Uiso   1.00
C145   C     0.32103   0.26468   0.28431   0.00000  Uiso   1.00
C146   C     0.44510   0.25767   0.27161   0.00000  Uiso   1.00
C147   C     0.65122   0.28139   0.25466   0.00000  Uiso   1.00
C148   C     0.14241   0.11794   0.37458   0.00000  Uiso   1.00
C149   C     0.12490   0.13564   0.45422   0.00000  Uiso   1.00
C150   C     0.15928   0.06963   0.51924   0.00000  Uiso   1.00
C151   C     0.19995   0.98452   0.64559   0.00000  Uiso   1.00
C152   C     0.20356   0.03197   0.26849   0.00000  Uiso   1.00
C153   C     0.05593   0.05336   0.19487   0.00000  Uiso   1.00
C154   C     0.97548   0.00092   0.12058   0.00000  Uiso   1.00
C155   C     0.84300   0.03215   0.06092   0.00000  Uiso   1.00
C156   C     0.29907   0.10727   0.26810   0.00000  Uiso   1.00
C157   C     0.42306   0.10015   0.25541   0.00000  Uiso   1.00
C158   C     0.49528   0.17675   0.25740   0.00000  Uiso   1.00
C159   C     0.19250   0.03717   0.36040   0.00000  Uiso   1.00
C160   C     0.22692   0.97111   0.42531   0.00000  Uiso   1.00
C161   C     0.20946   0.98871   0.50503   0.00000  Uiso   1.00
H162   H     0.07235   0.24356   0.30566   0.00000  Uiso   1.00
H163   H     0.83473   0.22797   0.16049   0.00000  Uiso   1.00
H164   H     0.28225   0.32717   0.29530   0.00000  Uiso   1.00
H165   H     0.08614   0.19816   0.46518   0.00000  Uiso   1.00
H166   H     0.59340   0.17507   0.99326   0.00000  Uiso   1.00
H167   H     0.53704   0.38425   0.27755   0.00000  Uiso   1.00
H168   H     0.12351   0.11220   0.63577   0.00000  Uiso   1.00
H169   H     0.24256   0.96908   0.25744   0.00000  Uiso   1.00
H170   H     0.01427   0.93842   0.10962   0.00000  Uiso   1.00
H171   H     0.46179   0.03763   0.24443   0.00000  Uiso   1.00
H172   H     0.26568   0.90862   0.41431   0.00000  Uiso   1.00
H173   H     0.73912   0.94007   0.95197   0.00000  Uiso   1.00
H174   H     0.68277   0.14925   0.23627   0.00000  Uiso   1.00
H175   H     0.26924   0.87720   0.59449   0.00000  Uiso   1.00
O176   O     0.51304   0.04237   0.87623   0.00000  Uiso   1.00
O177   O     0.75107   0.31680   0.24922   0.00000  Uiso   1.00
O178   O     0.20852   0.95988   0.71920   0.00000  Uiso   1.00
N179   N     0.65901   0.12396   0.00384   0.00000  Uiso   1.00
N180   N     0.54125   0.31953   0.26962   0.00000  Uiso   1.00
N181   N     0.15467   0.06520   0.60454   0.00000  Uiso   1.00
N182   N     0.73742   0.99751   0.98162   0.00000  Uiso   1.00
N183   N     0.61966   0.19308   0.24740   0.00000  Uiso   1.00
N184   N     0.23308   0.93875   0.58232   0.00000  Uiso   1.00
