data_job_06979
_audit_creation_date              2018-12-19
_audit_creation_method            'Materials Studio'
_symmetry_space_group_name_H-M    'P1'
_symmetry_Int_Tables_number       1
_symmetry_cell_setting            triclinic
loop_
_symmetry_equiv_pos_as_xyz
  x,y,z
_cell_length_a                    19.7024
_cell_length_b                    21.2498
_cell_length_c                    23.3614
_cell_angle_alpha                 66.1211
_cell_angle_beta                  83.6069
_cell_angle_gamma                 70.0007
loop_
_atom_site_label
_atom_site_type_symbol
_atom_site_fract_x
_atom_site_fract_y
_atom_site_fract_z
_atom_site_U_iso_or_equiv
_atom_site_adp_type
_atom_site_occupancy
C1     C     0.61262   0.62648   0.96541   0.00000  Uiso   1.00
C2     C     0.66972   0.61833   0.00927   0.00000  Uiso   1.00
C3     C     0.71601   0.65905   0.99412   0.00000  Uiso   1.00
C4     C     0.76441   0.64327   0.04080   0.00000  Uiso   1.00
C5     C     0.85280   0.63889   0.09981   0.00000  Uiso   1.00
C6     C     0.62954   0.55160   0.96387   0.00000  Uiso   1.00
C7     C     0.64204   0.53622   0.91053   0.00000  Uiso   1.00
C8     C     0.65662   0.46425   0.91898   0.00000  Uiso   1.00
C9     C     0.68258   0.35628   0.90750   0.00000  Uiso   1.00
C10    C     0.54109   0.64066   0.99837   0.00000  Uiso   1.00
C11    C     0.47921   0.70016   0.97405   0.00000  Uiso   1.00
C12    C     0.41931   0.70317   0.01154   0.00000  Uiso   1.00
C13    C     0.30794   0.73349   0.05364   0.00000  Uiso   1.00
C14    C     0.61626   0.52602   0.07525   0.00000  Uiso   1.00
C15    C     0.67170   0.56376   0.06893   0.00000  Uiso   1.00
C16    C     0.72005   0.54791   0.11565   0.00000  Uiso   1.00
C17    C     0.76640   0.58861   0.10056   0.00000  Uiso   1.00
C18    C     0.63153   0.49703   0.02352   0.00000  Uiso   1.00
C19    C     0.64608   0.42508   0.03205   0.00000  Uiso   1.00
C20    C     0.65861   0.40959   0.97875   0.00000  Uiso   1.00
C21    C     0.54307   0.58610   0.05803   0.00000  Uiso   1.00
C22    C     0.48325   0.58902   0.09557   0.00000  Uiso   1.00
C23    C     0.42130   0.64851   0.07131   0.00000  Uiso   1.00
H24    H     0.61107   0.66895   0.91896   0.00000  Uiso   1.00
H25    H     0.71446   0.70127   0.94794   0.00000  Uiso   1.00
H26    H     0.64050   0.57845   0.86437   0.00000  Uiso   1.00
H27    H     0.47770   0.74237   0.92788   0.00000  Uiso   1.00
H28    H     0.82998   0.71302   0.00638   0.00000  Uiso   1.00
H29    H     0.67400   0.45406   0.83015   0.00000  Uiso   1.00
H30    H     0.33070   0.79971   0.96407   0.00000  Uiso   1.00
H31    H     0.61781   0.48354   0.12170   0.00000  Uiso   1.00
H32    H     0.72157   0.50569   0.16181   0.00000  Uiso   1.00
H33    H     0.64761   0.38287   0.07823   0.00000  Uiso   1.00
H34    H     0.48480   0.54679   0.14174   0.00000  Uiso   1.00
H35    H     0.83575   0.55427   0.17996   0.00000  Uiso   1.00
H36    H     0.67977   0.29531   0.00373   0.00000  Uiso   1.00
H37    H     0.33647   0.64096   0.13765   0.00000  Uiso   1.00
O38    O     0.90102   0.65154   0.11588   0.00000  Uiso   1.00
O39    O     0.69637   0.31180   0.88468   0.00000  Uiso   1.00
O40    O     0.24596   0.76529   0.06038   0.00000  Uiso   1.00
N41    N     0.81709   0.67263   0.04173   0.00000  Uiso   1.00
N42    N     0.67127   0.43051   0.87697   0.00000  Uiso   1.00
N43    N     0.35030   0.75366   0.00216   0.00000  Uiso   1.00
N44    N     0.82019   0.58721   0.13513   0.00000  Uiso   1.00
N45    N     0.67438   0.34509   0.97037   0.00000  Uiso   1.00
N46    N     0.35341   0.66824   0.09556   0.00000  Uiso   1.00
C47    C     0.79048   0.58529   0.75390   0.00000  Uiso   1.00
C48    C     0.84795   0.59881   0.70531   0.00000  Uiso   1.00
C49    C     0.84916   0.66639   0.66211   0.00000  Uiso   1.00
C50    C     0.90636   0.66724   0.62163   0.00000  Uiso   1.00
C51    C     0.98736   0.69803   0.54575   0.00000  Uiso   1.00
C52    C     0.76090   0.53361   0.74252   0.00000  Uiso   1.00
C53    C     0.68891   0.54636   0.73063   0.00000  Uiso   1.00
C54    C     0.67284   0.49231   0.72148   0.00000  Uiso   1.00
C55    C     0.61868   0.42185   0.70342   0.00000  Uiso   1.00
C56    C     0.83075   0.54213   0.81724   0.00000  Uiso   1.00
C57    C     0.81748   0.56204   0.86818   0.00000  Uiso   1.00
C58    C     0.86020   0.51515   0.92196   0.00000  Uiso   1.00
C59    C     0.91449   0.45792   0.01992   0.00000  Uiso   1.00
C60    C     0.88993   0.46661   0.75883   0.00000  Uiso   1.00
C61    C     0.90197   0.53435   0.70798   0.00000  Uiso   1.00
C62    C     0.95919   0.53509   0.66756   0.00000  Uiso   1.00
C63    C     0.96048   0.60266   0.62431   0.00000  Uiso   1.00
C64    C     0.81491   0.46915   0.74520   0.00000  Uiso   1.00
C65    C     0.79894   0.41506   0.73607   0.00000  Uiso   1.00
C66    C     0.72695   0.42773   0.72416   0.00000  Uiso   1.00
C67    C     0.88477   0.47767   0.81992   0.00000  Uiso   1.00
C68    C     0.92751   0.43073   0.87363   0.00000  Uiso   1.00
C69    C     0.91431   0.45057   0.92464   0.00000  Uiso   1.00
H70    H     0.74843   0.63548   0.75182   0.00000  Uiso   1.00
H71    H     0.80734   0.71627   0.66005   0.00000  Uiso   1.00
H72    H     0.64712   0.59625   0.72856   0.00000  Uiso   1.00
H73    H     0.77567   0.61192   0.86610   0.00000  Uiso   1.00
H74    H     0.89646   0.77741   0.55948   0.00000  Uiso   1.00
H75    H     0.55863   0.52434   0.70396   0.00000  Uiso   1.00
H76    H     0.82970   0.55739   0.99398   0.00000  Uiso   1.00
H77    H     0.93199   0.41643   0.76091   0.00000  Uiso   1.00
H78    H     0.00098   0.48520   0.66964   0.00000  Uiso   1.00
H79    H     0.84076   0.36518   0.73815   0.00000  Uiso   1.00
H80    H     0.96931   0.38086   0.87568   0.00000  Uiso   1.00
H81    H     0.05363   0.58986   0.56726   0.00000  Uiso   1.00
H82    H     0.71579   0.33679   0.71174   0.00000  Uiso   1.00
H83    H     0.98686   0.36984   0.00176   0.00000  Uiso   1.00
O84    O     0.01710   0.73282   0.50315   0.00000  Uiso   1.00
O85    O     0.57388   0.40080   0.69272   0.00000  Uiso   1.00
O86    O     0.92952   0.44417   0.07321   0.00000  Uiso   1.00
N87    N     0.92399   0.72383   0.57384   0.00000  Uiso   1.00
N88    N     0.60814   0.48723   0.70891   0.00000  Uiso   1.00
N89    N     0.86156   0.51812   0.98006   0.00000  Uiso   1.00
N90    N     0.00856   0.62291   0.57803   0.00000  Uiso   1.00
N91    N     0.69271   0.38632   0.71310   0.00000  Uiso   1.00
N92    N     0.94612   0.41720   0.98425   0.00000  Uiso   1.00
C93    C     0.43094   0.65018   0.84620   0.00000  Uiso   1.00
C94    C     0.35300   0.69412   0.82256   0.00000  Uiso   1.00
C95    C     0.30063   0.73296   0.85171   0.00000  Uiso   1.00
C96    C     0.23254   0.76959   0.82263   0.00000  Uiso   1.00
C97    C     0.11381   0.83813   0.79449   0.00000  Uiso   1.00
C98    C     0.44257   0.57310   0.85194   0.00000  Uiso   1.00
C99    C     0.46552   0.51019   0.90580   0.00000  Uiso   1.00
C100   C     0.47284   0.44494   0.90145   0.00000  Uiso   1.00
C101   C     0.49322   0.32558   0.91892   0.00000  Uiso   1.00
C102   C     0.47820   0.68055   0.79317   0.00000  Uiso   1.00
C103   C     0.53112   0.70797   0.79761   0.00000  Uiso   1.00
C104   C     0.56845   0.73317   0.74377   0.00000  Uiso   1.00
C105   C     0.64415   0.78064   0.66999   0.00000  Uiso   1.00
C106   C     0.40315   0.64616   0.74270   0.00000  Uiso   1.00
C107   C     0.33791   0.69193   0.76634   0.00000  Uiso   1.00
C108   C     0.26988   0.72852   0.73720   0.00000  Uiso   1.00
C109   C     0.21742   0.76741   0.76631   0.00000  Uiso   1.00
C110   C     0.42747   0.57091   0.79573   0.00000  Uiso   1.00
C111   C     0.43477   0.50574   0.79129   0.00000  Uiso   1.00
C112   C     0.45772   0.44275   0.84513   0.00000  Uiso   1.00
C113   C     0.46310   0.67837   0.73695   0.00000  Uiso   1.00
C114   C     0.50037   0.70352   0.68310   0.00000  Uiso   1.00
C115   C     0.55333   0.73098   0.68745   0.00000  Uiso   1.00
H116   H     0.44269   0.65187   0.88997   0.00000  Uiso   1.00
H117   H     0.31233   0.73464   0.89522   0.00000  Uiso   1.00
H118   H     0.47720   0.51189   0.94930   0.00000  Uiso   1.00
H119   H     0.54278   0.70965   0.84112   0.00000  Uiso   1.00
H120   H     0.16114   0.82541   0.87627   0.00000  Uiso   1.00
H121   H     0.50880   0.35574   0.99029   0.00000  Uiso   1.00
H122   H     0.64710   0.77274   0.76218   0.00000  Uiso   1.00
H123   H     0.39140   0.64445   0.69893   0.00000  Uiso   1.00
H124   H     0.25822   0.72682   0.69370   0.00000  Uiso   1.00
H125   H     0.42309   0.50407   0.74778   0.00000  Uiso   1.00
H126   H     0.48868   0.70182   0.63960   0.00000  Uiso   1.00
H127   H     0.11722   0.81906   0.71270   0.00000  Uiso   1.00
H128   H     0.46488   0.34939   0.82672   0.00000  Uiso   1.00
H129   H     0.60319   0.76639   0.59861   0.00000  Uiso   1.00
O130   O     0.05249   0.87653   0.79450   0.00000  Uiso   1.00
O131   O     0.50862   0.26034   0.94409   0.00000  Uiso   1.00
O132   O     0.69007   0.80744   0.64481   0.00000  Uiso   1.00
N133   N     0.16908   0.81263   0.83848   0.00000  Uiso   1.00
N134   N     0.49411   0.37351   0.94509   0.00000  Uiso   1.00
N135   N     0.62343   0.76336   0.73183   0.00000  Uiso   1.00
N136   N     0.14545   0.80921   0.75047   0.00000  Uiso   1.00
N137   N     0.47048   0.37010   0.85708   0.00000  Uiso   1.00
N138   N     0.59980   0.75994   0.64382   0.00000  Uiso   1.00
C139   C     0.23020   0.16480   0.34807   0.00000  Uiso   1.00
C140   C     0.30490   0.13029   0.32746   0.00000  Uiso   1.00
C141   C     0.35902   0.16181   0.30825   0.00000  Uiso   1.00
C142   C     0.42354   0.12140   0.29127   0.00000  Uiso   1.00
C143   C     0.53803   0.07836   0.25898   0.00000  Uiso   1.00
C144   C     0.22214   0.11120   0.41363   0.00000  Uiso   1.00
C145   C     0.20668   0.12669   0.46687   0.00000  Uiso   1.00
C146   C     0.20153   0.07021   0.52242   0.00000  Uiso   1.00
C147   C     0.18749   0.99756   0.62390   0.00000  Uiso   1.00
C148   C     0.17612   0.16531   0.30586   0.00000  Uiso   1.00
C149   C     0.12194   0.22628   0.26849   0.00000  Uiso   1.00
C150   C     0.07803   0.21535   0.23331   0.00000  Uiso   1.00
C151   C     0.99253   0.22670   0.16745   0.00000  Uiso   1.00
C152   C     0.24854   0.03698   0.35207   0.00000  Uiso   1.00
C153   C     0.31486   0.06086   0.32964   0.00000  Uiso   1.00
C154   C     0.37932   0.02039   0.31268   0.00000  Uiso   1.00
C155   C     0.43353   0.05185   0.29345   0.00000  Uiso   1.00
C156   C     0.23211   0.04178   0.41581   0.00000  Uiso   1.00
C157   C     0.22698   0.98527   0.47129   0.00000  Uiso   1.00
C158   C     0.21151   0.00066   0.52460   0.00000  Uiso   1.00
C159   C     0.18608   0.09588   0.30803   0.00000  Uiso   1.00
C160   C     0.14224   0.08485   0.27291   0.00000  Uiso   1.00
C161   C     0.08801   0.14580   0.23549   0.00000  Uiso   1.00
H162   H     0.22244   0.21885   0.34638   0.00000  Uiso   1.00
H163   H     0.35129   0.21554   0.30659   0.00000  Uiso   1.00
H164   H     0.19896   0.18042   0.46517   0.00000  Uiso   1.00
H165   H     0.11424   0.27999   0.26682   0.00000  Uiso   1.00
H166   H     0.49855   0.18124   0.26344   0.00000  Uiso   1.00
H167   H     0.17734   0.10720   0.59783   0.00000  Uiso   1.00
H168   H     0.99869   0.31717   0.17956   0.00000  Uiso   1.00
H169   H     0.25630   0.98292   0.35376   0.00000  Uiso   1.00
H170   H     0.38701   0.96667   0.31436   0.00000  Uiso   1.00
H171   H     0.23469   0.93155   0.47295   0.00000  Uiso   1.00
H172   H     0.14997   0.03112   0.27460   0.00000  Uiso   1.00
H173   H     0.52755   0.97925   0.26976   0.00000  Uiso   1.00
H174   H     0.20633   0.90520   0.60415   0.00000  Uiso   1.00
H175   H     0.02768   0.11517   0.18588   0.00000  Uiso   1.00
O176   O     0.59843   0.07380   0.24057   0.00000  Uiso   1.00
O177   O     0.17701   0.97666   0.67927   0.00000  Uiso   1.00
O178   O     0.94262   0.25214   0.13051   0.00000  Uiso   1.00
N179   N     0.48743   0.13594   0.27032   0.00000  Uiso   1.00
N180   N     0.18713   0.06671   0.58296   0.00000  Uiso   1.00
N181   N     0.02009   0.26301   0.19192   0.00000  Uiso   1.00
N182   N     0.50303   0.02725   0.27372   0.00000  Uiso   1.00
N183   N     0.20273   0.95802   0.58636   0.00000  Uiso   1.00
N184   N     0.03570   0.15432   0.19532   0.00000  Uiso   1.00
C185   C     0.96050   0.25182   0.48134   0.00000  Uiso   1.00
C186   C     0.89463   0.29809   0.50397   0.00000  Uiso   1.00
C187   C     0.83033   0.34263   0.47001   0.00000  Uiso   1.00
C188   C     0.77655   0.38051   0.49899   0.00000  Uiso   1.00
C189   C     0.67270   0.45331   0.52489   0.00000  Uiso   1.00
C190   C     0.97617   0.17392   0.52969   0.00000  Uiso   1.00
C191   C     0.98044   0.11407   0.51735   0.00000  Uiso   1.00
C192   C     0.99531   0.04743   0.56800   0.00000  Uiso   1.00
C193   C     0.01811   0.92745   0.63382   0.00000  Uiso   1.00
C194   C     0.02359   0.27527   0.48704   0.00000  Uiso   1.00
C195   C     0.06774   0.30061   0.43884   0.00000  Uiso   1.00
C196   C     0.12254   0.31928   0.45357   0.00000  Uiso   1.00
C197   C     0.21896   0.35666   0.45317   0.00000  Uiso   1.00
C198   C     0.97932   0.23990   0.59322   0.00000  Uiso   1.00
C199   C     0.90485   0.29161   0.56474   0.00000  Uiso   1.00
C200   C     0.85115   0.32944   0.59378   0.00000  Uiso   1.00
C201   C     0.78679   0.37403   0.55986   0.00000  Uiso   1.00
C202   C     0.98639   0.16744   0.59046   0.00000  Uiso   1.00
C203   C     0.00126   0.10088   0.64113   0.00000  Uiso   1.00
C204   C     0.00555   0.04094   0.62887   0.00000  Uiso   1.00
C205   C     0.03381   0.26880   0.54780   0.00000  Uiso   1.00
C206   C     0.08856   0.28742   0.56261   0.00000  Uiso   1.00
C207   C     0.13278   0.31279   0.51444   0.00000  Uiso   1.00
H208   H     0.95254   0.25685   0.43404   0.00000  Uiso   1.00
H209   H     0.82244   0.34762   0.42298   0.00000  Uiso   1.00
H210   H     0.97254   0.11909   0.47032   0.00000  Uiso   1.00
H211   H     0.05982   0.30561   0.39182   0.00000  Uiso   1.00
H212   H     0.68270   0.44537   0.43753   0.00000  Uiso   1.00
H213   H     0.99920   0.96351   0.53735   0.00000  Uiso   1.00
H214   H     0.18325   0.35682   0.37181   0.00000  Uiso   1.00
H215   H     0.98728   0.23485   0.64053   0.00000  Uiso   1.00
H216   H     0.85908   0.32442   0.64080   0.00000  Uiso   1.00
H217   H     0.00917   0.09589   0.68814   0.00000  Uiso   1.00
H218   H     0.09645   0.28241   0.60964   0.00000  Uiso   1.00
H219   H     0.71243   0.42653   0.61433   0.00000  Uiso   1.00
H220   H     0.02894   0.94467   0.71414   0.00000  Uiso   1.00
H221   H     0.21299   0.33798   0.54860   0.00000  Uiso   1.00
O222   O     0.61260   0.49525   0.52239   0.00000  Uiso   1.00
O223   O     0.02785   0.86307   0.65335   0.00000  Uiso   1.00
O224   O     0.26932   0.37908   0.43616   0.00000  Uiso   1.00
N225   N     0.70730   0.42866   0.47910   0.00000  Uiso   1.00
N226   N     0.00319   0.97815   0.57242   0.00000  Uiso   1.00
N227   N     0.17528   0.34584   0.41766   0.00000  Uiso   1.00
N228   N     0.72329   0.41852   0.57423   0.00000  Uiso   1.00
N229   N     0.01919   0.96802   0.66755   0.00000  Uiso   1.00
N230   N     0.19128   0.33571   0.51279   0.00000  Uiso   1.00
C231   C     0.86080   0.14874   0.35323   0.00000  Uiso   1.00
C232   C     0.81664   0.15093   0.30243   0.00000  Uiso   1.00
C233   C     0.80783   0.20021   0.24048   0.00000  Uiso   1.00
C234   C     0.76536   0.19315   0.20131   0.00000  Uiso   1.00
C235   C     0.70176   0.20479   0.11906   0.00000  Uiso   1.00
C236   C     0.91568   0.07223   0.37913   0.00000  Uiso   1.00
C237   C     0.99013   0.05535   0.38168   0.00000  Uiso   1.00
C238   C     0.03103   0.98204   0.40709   0.00000  Uiso   1.00
C239   C     0.12119   0.87151   0.44396   0.00000  Uiso   1.00
C240   C     0.80914   0.15442   0.40597   0.00000  Uiso   1.00
C241   C     0.79402   0.20662   0.43109   0.00000  Uiso   1.00
C242   C     0.74522   0.20249   0.47910   0.00000  Uiso   1.00
C243   C     0.66995   0.21956   0.55764   0.00000  Uiso   1.00
C244   C     0.80105   0.04857   0.39384   0.00000  Uiso   1.00
C245   C     0.78419   0.09651   0.32449   0.00000  Uiso   1.00
C246   C     0.74172   0.08937   0.28540   0.00000  Uiso   1.00
C247   C     0.73284   0.13864   0.22340   0.00000  Uiso   1.00
C248   C     0.88323   0.01782   0.40119   0.00000  Uiso   1.00
C249   C     0.92403   0.94452   0.42660   0.00000  Uiso   1.00
C250   C     0.99852   0.92753   0.42918   0.00000  Uiso   1.00
C251   C     0.77668   0.10000   0.42802   0.00000  Uiso   1.00
C252   C     0.72791   0.09579   0.47601   0.00000  Uiso   1.00
C253   C     0.71271   0.14798   0.50120   0.00000  Uiso   1.00
H254   H     0.88607   0.19110   0.33607   0.00000  Uiso   1.00
H255   H     0.83296   0.24231   0.22343   0.00000  Uiso   1.00
H256   H     0.01523   0.09747   0.36461   0.00000  Uiso   1.00
H257   H     0.81914   0.24872   0.41401   0.00000  Uiso   1.00
H258   H     0.75978   0.27506   0.10827   0.00000  Uiso   1.00
H259   H     0.14411   0.96967   0.40598   0.00000  Uiso   1.00
H260   H     0.73062   0.28861   0.51016   0.00000  Uiso   1.00
H261   H     0.77579   0.00620   0.41101   0.00000  Uiso   1.00
H262   H     0.71662   0.04726   0.30248   0.00000  Uiso   1.00
H263   H     0.89890   0.90242   0.44366   0.00000  Uiso   1.00
H264   H     0.70281   0.05367   0.49306   0.00000  Uiso   1.00
H265   H     0.66536   0.11675   0.17243   0.00000  Uiso   1.00
H266   H     0.04970   0.81136   0.47015   0.00000  Uiso   1.00
H267   H     0.63620   0.13030   0.57432   0.00000  Uiso   1.00
O268   O     0.67566   0.22624   0.06760   0.00000  Uiso   1.00
O269   O     0.17989   0.82558   0.45820   0.00000  Uiso   1.00
O270   O     0.63739   0.24402   0.59487   0.00000  Uiso   1.00
N271   N     0.74567   0.23218   0.13826   0.00000  Uiso   1.00
N272   N     0.10500   0.94666   0.41660   0.00000  Uiso   1.00
N273   N     0.71843   0.24482   0.51401   0.00000  Uiso   1.00
N274   N     0.69486   0.14700   0.17279   0.00000  Uiso   1.00
N275   N     0.05419   0.86147   0.45113   0.00000  Uiso   1.00
N276   N     0.66762   0.15964   0.54853   0.00000  Uiso   1.00
C277   C     0.23083   0.36763   0.17670   0.00000  Uiso   1.00
C278   C     0.28421   0.31793   0.14805   0.00000  Uiso   1.00
C279   C     0.29356   0.24491   0.16458   0.00000  Uiso   1.00
C280   C     0.34516   0.20893   0.13284   0.00000  Uiso   1.00
C281   C     0.42183   0.12632   0.09542   0.00000  Uiso   1.00
C282   C     0.18411   0.43192   0.12224   0.00000  Uiso   1.00
C283   C     0.10929   0.45475   0.11708   0.00000  Uiso   1.00
C284   C     0.07663   0.51473   0.06362   0.00000  Uiso   1.00
C285   C     0.99789   0.60913   0.98616   0.00000  Uiso   1.00
C286   C     0.27556   0.39823   0.20102   0.00000  Uiso   1.00
C287   C     0.27762   0.39275   0.26209   0.00000  Uiso   1.00
C288   C     0.32194   0.42438   0.27495   0.00000  Uiso   1.00
C289   C     0.38518   0.46647   0.31980   0.00000  Uiso   1.00
C290   C     0.30586   0.43357   0.09093   0.00000  Uiso   1.00
C291   C     0.32497   0.35375   0.10146   0.00000  Uiso   1.00
C292   C     0.37657   0.31786   0.06969   0.00000  Uiso   1.00
C293   C     0.38599   0.24480   0.08617   0.00000  Uiso   1.00
C294   C     0.22486   0.46774   0.07566   0.00000  Uiso   1.00
C295   C     0.19230   0.52770   0.02219   0.00000  Uiso   1.00
C296   C     0.11745   0.55061   0.01695   0.00000  Uiso   1.00
C297   C     0.31632   0.43405   0.15443   0.00000  Uiso   1.00
C298   C     0.36063   0.46570   0.16720   0.00000  Uiso   1.00
C299   C     0.36276   0.46027   0.22828   0.00000  Uiso   1.00
H300   H     0.19909   0.33975   0.21296   0.00000  Uiso   1.00
H301   H     0.26200   0.21722   0.20063   0.00000  Uiso   1.00
H302   H     0.07777   0.42703   0.15315   0.00000  Uiso   1.00
H303   H     0.24607   0.36503   0.29813   0.00000  Uiso   1.00
H304   H     0.34970   0.09716   0.16640   0.00000  Uiso   1.00
H305   H     0.96123   0.53958   0.06628   0.00000  Uiso   1.00
H306   H     0.31613   0.40885   0.37201   0.00000  Uiso   1.00
H307   H     0.33758   0.46146   0.05466   0.00000  Uiso   1.00
H308   H     0.40810   0.34560   0.03364   0.00000  Uiso   1.00
H309   H     0.22386   0.55541   0.98615   0.00000  Uiso   1.00
H310   H     0.39216   0.49341   0.13114   0.00000  Uiso   1.00
H311   H     0.46827   0.20136   0.03085   0.00000  Uiso   1.00
H312   H     0.07980   0.64378   0.93074   0.00000  Uiso   1.00
H313   H     0.43471   0.51305   0.23647   0.00000  Uiso   1.00
O314   O     0.45286   0.07086   0.08764   0.00000  Uiso   1.00
O315   O     0.94320   0.65129   0.95630   0.00000  Uiso   1.00
O316   O     0.40882   0.47978   0.35741   0.00000  Uiso   1.00
N317   N     0.36794   0.13758   0.13739   0.00000  Uiso   1.00
N318   N     0.00474   0.55121   0.04378   0.00000  Uiso   1.00
N319   N     0.33653   0.42901   0.32961   0.00000  Uiso   1.00
N320   N     0.43175   0.19365   0.06446   0.00000  Uiso   1.00
N321   N     0.06855   0.60727   0.97085   0.00000  Uiso   1.00
N322   N     0.40034   0.48507   0.25668   0.00000  Uiso   1.00
C323   C     0.70799   0.59727   0.29511   0.00000  Uiso   1.00
C324   C     0.67663   0.65433   0.23086   0.00000  Uiso   1.00
C325   C     0.62643   0.65160   0.19545   0.00000  Uiso   1.00
C326   C     0.60448   0.70915   0.13788   0.00000  Uiso   1.00
C327   C     0.55161   0.78891   0.04138   0.00000  Uiso   1.00
C328   C     0.69200   0.63776   0.33865   0.00000  Uiso   1.00
C329   C     0.65473   0.62108   0.39388   0.00000  Uiso   1.00
C330   C     0.64573   0.66467   0.42704   0.00000  Uiso   1.00
C331   C     0.61676   0.71867   0.49791   0.00000  Uiso   1.00
C332   C     0.78980   0.57310   0.28890   0.00000  Uiso   1.00
C333   C     0.83478   0.50206   0.30231   0.00000  Uiso   1.00
C334   C     0.90813   0.49121   0.29360   0.00000  Uiso   1.00
C335   C     0.03102   0.44482   0.28722   0.00000  Uiso   1.00
C336   C     0.75829   0.70432   0.25582   0.00000  Uiso   1.00
C337   C     0.70395   0.71247   0.20952   0.00000  Uiso   1.00
C338   C     0.68208   0.77003   0.15198   0.00000  Uiso   1.00
C339   C     0.63186   0.76739   0.11650   0.00000  Uiso   1.00
C340   C     0.71932   0.69590   0.31731   0.00000  Uiso   1.00
C341   C     0.71038   0.73952   0.35040   0.00000  Uiso   1.00
C342   C     0.67310   0.72292   0.40566   0.00000  Uiso   1.00
C343   C     0.81713   0.63124   0.26756   0.00000  Uiso   1.00
C344   C     0.89043   0.62049   0.25883   0.00000  Uiso   1.00
C345   C     0.93550   0.54945   0.27222   0.00000  Uiso   1.00
H346   H     0.68672   0.55201   0.31173   0.00000  Uiso   1.00
H347   H     0.60529   0.60660   0.21199   0.00000  Uiso   1.00
H348   H     0.63360   0.57608   0.41038   0.00000  Uiso   1.00
H349   H     0.81362   0.45708   0.31882   0.00000  Uiso   1.00
H350   H     0.52705   0.69278   0.09201   0.00000  Uiso   1.00
H351   H     0.58675   0.62842   0.51034   0.00000  Uiso   1.00
H352   H     0.96636   0.37747   0.31728   0.00000  Uiso   1.00
H353   H     0.77956   0.74959   0.23920   0.00000  Uiso   1.00
H354   H     0.70323   0.81502   0.13548   0.00000  Uiso   1.00
H355   H     0.73153   0.78450   0.33387   0.00000  Uiso   1.00
H356   H     0.91155   0.66550   0.24232   0.00000  Uiso   1.00
H357   H     0.60653   0.86194   0.02991   0.00000  Uiso   1.00
H358   H     0.66623   0.79758   0.44825   0.00000  Uiso   1.00
H359   H     0.04584   0.54663   0.25518   0.00000  Uiso   1.00
O360   O     0.51489   0.81685   0.99405   0.00000  Uiso   1.00
O361   O     0.59322   0.73240   0.54289   0.00000  Uiso   1.00
O362   O     0.09126   0.40317   0.28959   0.00000  Uiso   1.00
N363   N     0.55624   0.72360   0.09162   0.00000  Uiso   1.00
N364   N     0.61205   0.66344   0.48273   0.00000  Uiso   1.00
N365   N     0.96695   0.42882   0.30225   0.00000  Uiso   1.00
N366   N     0.59901   0.81463   0.05821   0.00000  Uiso   1.00
N367   N     0.65482   0.75446   0.44932   0.00000  Uiso   1.00
N368   N     0.00972   0.51985   0.26884   0.00000  Uiso   1.00
C369   C     0.13640   0.55987   0.35199   0.00000  Uiso   1.00
C370   C     0.17260   0.59398   0.38045   0.00000  Uiso   1.00
C371   C     0.23660   0.55853   0.41606   0.00000  Uiso   1.00
C372   C     0.26079   0.59927   0.43782   0.00000  Uiso   1.00
C373   C     0.32286   0.64105   0.48403   0.00000  Uiso   1.00
C374   C     0.12802   0.60654   0.28190   0.00000  Uiso   1.00
C375   C     0.15453   0.58165   0.23465   0.00000  Uiso   1.00
C376   C     0.14118   0.63297   0.17346   0.00000  Uiso   1.00
C377   C     0.13401   0.69425   0.06666   0.00000  Uiso   1.00
C378   C     0.06004   0.57187   0.37670   0.00000  Uiso   1.00
C379   C     0.02938   0.51783   0.40915   0.00000  Uiso   1.00
C380   C     0.95878   0.53996   0.42776   0.00000  Uiso   1.00
C381   C     0.84606   0.54741   0.46815   0.00000  Uiso   1.00
C382   C     0.06556   0.69526   0.32732   0.00000  Uiso   1.00
C383   C     0.13412   0.66752   0.36705   0.00000  Uiso   1.00
C384   C     0.15822   0.70832   0.38876   0.00000  Uiso   1.00
C385   C     0.22224   0.67294   0.42440   0.00000  Uiso   1.00
C386   C     0.08954   0.68008   0.26850   0.00000  Uiso   1.00
C387   C     0.07615   0.73145   0.20735   0.00000  Uiso   1.00
C388   C     0.10263   0.70664   0.16003   0.00000  Uiso   1.00
C389   C     0.02156   0.64541   0.36330   0.00000  Uiso   1.00
C390   C     0.95100   0.66763   0.38185   0.00000  Uiso   1.00
C391   C     0.92024   0.61363   0.41433   0.00000  Uiso   1.00
H392   H     0.16636   0.50261   0.36242   0.00000  Uiso   1.00
H393   H     0.26636   0.50162   0.42642   0.00000  Uiso   1.00
H394   H     0.18430   0.52474   0.24504   0.00000  Uiso   1.00
H395   H     0.05917   0.46093   0.41952   0.00000  Uiso   1.00
H396   H     0.36028   0.53295   0.49145   0.00000  Uiso   1.00
H397   H     0.18722   0.58170   0.10900   0.00000  Uiso   1.00
H398   H     0.92336   0.44714   0.47691   0.00000  Uiso   1.00
H399   H     0.03560   0.75252   0.31688   0.00000  Uiso   1.00
H400   H     0.12843   0.76523   0.37838   0.00000  Uiso   1.00
H401   H     0.04637   0.78835   0.19700   0.00000  Uiso   1.00
H402   H     0.92124   0.72454   0.37147   0.00000  Uiso   1.00
H403   H     0.24833   0.74691   0.45245   0.00000  Uiso   1.00
H404   H     0.07527   0.79565   0.07000   0.00000  Uiso   1.00
H405   H     0.81141   0.66110   0.43791   0.00000  Uiso   1.00
O406   O     0.36774   0.64379   0.51321   0.00000  Uiso   1.00
O407   O     0.14069   0.70774   0.01145   0.00000  Uiso   1.00
O408   O     0.79451   0.53120   0.49415   0.00000  Uiso   1.00
N409   N     0.32118   0.58155   0.47384   0.00000  Uiso   1.00
N410   N     0.15940   0.62713   0.11627   0.00000  Uiso   1.00
N411   N     0.91270   0.50133   0.46022   0.00000  Uiso   1.00
N412   N     0.26094   0.69669   0.45286   0.00000  Uiso   1.00
N413   N     0.09916   0.74226   0.09529   0.00000  Uiso   1.00
N414   N     0.85246   0.61646   0.43924   0.00000  Uiso   1.00
C415   C     0.35025   0.05746   0.89996   0.00000  Uiso   1.00
C416   C     0.30017   0.06823   0.95232   0.00000  Uiso   1.00
C417   C     0.25571   0.02737   0.98409   0.00000  Uiso   1.00
C418   C     0.21398   0.04581   0.03046   0.00000  Uiso   1.00
C419   C     0.13578   0.05385   0.10960   0.00000  Uiso   1.00
C420   C     0.32839   0.13046   0.84407   0.00000  Uiso   1.00
C421   C     0.30767   0.14193   0.78483   0.00000  Uiso   1.00
C422   C     0.28971   0.21275   0.74007   0.00000  Uiso   1.00
C423   C     0.25538   0.31741   0.65114   0.00000  Uiso   1.00
C424   C     0.42557   0.04591   0.92120   0.00000  Uiso   1.00
C425   C     0.48657   0.98629   0.92679   0.00000  Uiso   1.00
C426   C     0.55044   0.98593   0.94696   0.00000  Uiso   1.00
C427   C     0.66700   0.95930   0.97778   0.00000  Uiso   1.00
C428   C     0.35520   0.16286   0.92580   0.00000  Uiso   1.00
C429   C     0.30286   0.12548   0.96635   0.00000  Uiso   1.00
C430   C     0.26119   0.14398   0.01268   0.00000  Uiso   1.00
C431   C     0.21667   0.10316   0.04452   0.00000  Uiso   1.00
C432   C     0.33108   0.18771   0.85810   0.00000  Uiso   1.00
C433   C     0.31315   0.25854   0.81342   0.00000  Uiso   1.00
C434   C     0.29240   0.27011   0.75413   0.00000  Uiso   1.00
C435   C     0.42827   0.10316   0.93523   0.00000  Uiso   1.00
C436   C     0.49205   0.10290   0.95539   0.00000  Uiso   1.00
C437   C     0.55313   0.04329   0.96102   0.00000  Uiso   1.00
H438   H     0.34815   0.01289   0.88903   0.00000  Uiso   1.00
H439   H     0.25363   0.98307   0.97321   0.00000  Uiso   1.00
H440   H     0.30560   0.09761   0.77398   0.00000  Uiso   1.00
H441   H     0.48447   0.94200   0.91593   0.00000  Uiso   1.00
H442   H     0.15001   0.97528   0.07272   0.00000  Uiso   1.00
H443   H     0.25960   0.21679   0.65262   0.00000  Uiso   1.00
H444   H     0.63679   0.88864   0.95194   0.00000  Uiso   1.00
H445   H     0.35730   0.20743   0.93673   0.00000  Uiso   1.00
H446   H     0.26328   0.18829   0.02353   0.00000  Uiso   1.00
H447   H     0.31524   0.30283   0.82430   0.00000  Uiso   1.00
H448   H     0.49411   0.14721   0.96624   0.00000  Uiso   1.00
H449   H     0.15784   0.14185   0.11356   0.00000  Uiso   1.00
H450   H     0.26743   0.38335   0.69346   0.00000  Uiso   1.00
H451   H     0.64462   0.05520   0.99278   0.00000  Uiso   1.00
O452   O     0.09190   0.04248   0.14937   0.00000  Uiso   1.00
O453   O     0.23569   0.35932   0.59821   0.00000  Uiso   1.00
O454   O     0.73054   0.92880   0.99092   0.00000  Uiso   1.00
N455   N     0.16477   0.01710   0.07043   0.00000  Uiso   1.00
N456   N     0.26722   0.24289   0.67766   0.00000  Uiso   1.00
N457   N     0.61986   0.93611   0.95749   0.00000  Uiso   1.00
N458   N     0.16898   0.10673   0.09240   0.00000  Uiso   1.00
N459   N     0.27143   0.33252   0.69964   0.00000  Uiso   1.00
N460   N     0.62407   0.02574   0.97946   0.00000  Uiso   1.00
C461   C     0.52121   0.04454   0.65077   0.00000  Uiso   1.00
C462   C     0.53732   0.01720   0.59799   0.00000  Uiso   1.00
C463   C     0.60480   0.97753   0.58479   0.00000  Uiso   1.00
C464   C     0.60825   0.95765   0.53450   0.00000  Uiso   1.00
C465   C     0.64267   0.91233   0.45796   0.00000  Uiso   1.00
C466   C     0.48455   0.12670   0.61968   0.00000  Uiso   1.00
C467   C     0.50766   0.17910   0.62474   0.00000  Uiso   1.00
C468   C     0.46667   0.25141   0.59272   0.00000  Uiso   1.00
C469   C     0.41914   0.37609   0.54991   0.00000  Uiso   1.00
C470   C     0.46374   0.01387   0.68951   0.00000  Uiso   1.00
C471   C     0.46934   0.97140   0.75328   0.00000  Uiso   1.00
C472   C     0.41083   0.94872   0.78006   0.00000  Uiso   1.00
C473   C     0.33098   0.89821   0.84566   0.00000  Uiso   1.00
C474   C     0.40734   0.07979   0.58492   0.00000  Uiso   1.00
C475   C     0.47546   0.03635   0.56222   0.00000  Uiso   1.00
C476   C     0.47881   0.01653   0.51194   0.00000  Uiso   1.00
C477   C     0.54629   0.97683   0.49867   0.00000  Uiso   1.00
C478   C     0.42270   0.14585   0.58392   0.00000  Uiso   1.00
C479   C     0.38166   0.21810   0.55189   0.00000  Uiso   1.00
C480   C     0.40471   0.27059   0.55689   0.00000  Uiso   1.00
C481   C     0.40188   0.03301   0.65375   0.00000  Uiso   1.00
C482   C     0.34335   0.01040   0.68043   0.00000  Uiso   1.00
C483   C     0.34886   0.96791   0.74423   0.00000  Uiso   1.00
H484   H     0.56937   0.02963   0.67861   0.00000  Uiso   1.00
H485   H     0.65266   0.96273   0.61248   0.00000  Uiso   1.00
H486   H     0.55552   0.16427   0.65243   0.00000  Uiso   1.00
H487   H     0.51721   0.95660   0.78095   0.00000  Uiso   1.00
H488   H     0.71773   0.89702   0.52336   0.00000  Uiso   1.00
H489   H     0.51290   0.32197   0.60762   0.00000  Uiso   1.00
H490   H     0.43211   0.88406   0.87863   0.00000  Uiso   1.00
H491   H     0.35918   0.09469   0.55708   0.00000  Uiso   1.00
H492   H     0.43093   0.03135   0.48427   0.00000  Uiso   1.00
H493   H     0.33380   0.23289   0.52422   0.00000  Uiso   1.00
H494   H     0.29549   0.02523   0.65273   0.00000  Uiso   1.00
H495   H     0.53777   0.95272   0.41930   0.00000  Uiso   1.00
H496   H     0.33294   0.37767   0.50356   0.00000  Uiso   1.00
H497   H     0.25215   0.93977   0.77456   0.00000  Uiso   1.00
O498   O     0.67875   0.88205   0.42561   0.00000  Uiso   1.00
O499   O     0.41001   0.43957   0.53617   0.00000  Uiso   1.00
O500   O     0.30403   0.86504   0.89172   0.00000  Uiso   1.00
N501   N     0.66552   0.91880   0.50887   0.00000  Uiso   1.00
N502   N     0.47403   0.31611   0.58764   0.00000  Uiso   1.00
N503   N     0.39849   0.90672   0.84101   0.00000  Uiso   1.00
N504   N     0.56869   0.94878   0.45288   0.00000  Uiso   1.00
N505   N     0.37719   0.34608   0.53165   0.00000  Uiso   1.00
N506   N     0.30166   0.93670   0.78502   0.00000  Uiso   1.00
C507   C     0.74701   0.97494   0.80664   0.00000  Uiso   1.00
C508   C     0.81452   0.96906   0.83733   0.00000  Uiso   1.00
C509   C     0.84315   0.91908   0.89637   0.00000  Uiso   1.00
C510   C     0.90526   0.92259   0.91598   0.00000  Uiso   1.00
C511   C     0.00516   0.90564   0.96945   0.00000  Uiso   1.00
C512   C     0.69668   0.05300   0.79006   0.00000  Uiso   1.00
C513   C     0.62622   0.07359   0.80935   0.00000  Uiso   1.00
C514   C     0.58912   0.14776   0.78916   0.00000  Uiso   1.00
C515   C     0.50605   0.26113   0.76920   0.00000  Uiso   1.00
C516   C     0.77051   0.96793   0.74446   0.00000  Uiso   1.00
C517   C     0.76213   0.91700   0.72539   0.00000  Uiso   1.00
C518   C     0.78718   0.91955   0.66679   0.00000  Uiso   1.00
C519   C     0.81876   0.90081   0.57603   0.00000  Uiso   1.00
C520   C     0.80639   0.07004   0.73649   0.00000  Uiso   1.00
C521   C     0.84677   0.02072   0.79923   0.00000  Uiso   1.00
C522   C     0.90885   0.02431   0.81876   0.00000  Uiso   1.00
C523   C     0.93757   0.97434   0.87781   0.00000  Uiso   1.00
C524   C     0.72893   0.10466   0.75196   0.00000  Uiso   1.00
C525   C     0.69192   0.17882   0.73174   0.00000  Uiso   1.00
C526   C     0.62143   0.19952   0.75099   0.00000  Uiso   1.00
C527   C     0.80277   0.01958   0.70635   0.00000  Uiso   1.00
C528   C     0.82783   0.02222   0.64778   0.00000  Uiso   1.00
C529   C     0.81949   0.97130   0.62862   0.00000  Uiso   1.00
H530   H     0.72189   0.93472   0.83630   0.00000  Uiso   1.00
H531   H     0.81817   0.87912   0.92584   0.00000  Uiso   1.00
H532   H     0.60128   0.03361   0.83883   0.00000  Uiso   1.00
H533   H     0.73717   0.87703   0.75488   0.00000  Uiso   1.00
H534   H     0.93912   0.84027   0.00832   0.00000  Uiso   1.00
H535   H     0.48178   0.16601   0.82483   0.00000  Uiso   1.00
H536   H     0.76833   0.83584   0.64781   0.00000  Uiso   1.00
H537   H     0.83150   0.11026   0.70682   0.00000  Uiso   1.00
H538   H     0.93380   0.06429   0.78926   0.00000  Uiso   1.00
H539   H     0.71689   0.21878   0.70225   0.00000  Uiso   1.00
H540   H     0.85279   0.06220   0.61830   0.00000  Uiso   1.00
H541   H     0.03297   0.99056   0.89747   0.00000  Uiso   1.00
H542   H     0.57561   0.31631   0.71397   0.00000  Uiso   1.00
H543   H     0.86217   0.98614   0.53696   0.00000  Uiso   1.00
O544   O     0.05135   0.88202   0.00947   0.00000  Uiso   1.00
O545   O     0.45132   0.30938   0.76872   0.00000  Uiso   1.00
O546   O     0.82727   0.87620   0.53649   0.00000  Uiso   1.00
N547   N     0.94718   0.88194   0.97092   0.00000  Uiso   1.00
N548   N     0.51959   0.18649   0.79937   0.00000  Uiso   1.00
N549   N     0.78747   0.87782   0.63387   0.00000  Uiso   1.00
N550   N     0.99768   0.96281   0.91127   0.00000  Uiso   1.00
N551   N     0.57009   0.26736   0.73972   0.00000  Uiso   1.00
N552   N     0.83797   0.95869   0.57422   0.00000  Uiso   1.00
