data_job_00229
_audit_creation_date              2018-12-19
_audit_creation_method            'Materials Studio'
_symmetry_space_group_name_H-M    'P1'
_symmetry_Int_Tables_number       1
_symmetry_cell_setting            triclinic
loop_
_symmetry_equiv_pos_as_xyz
  x,y,z
_cell_length_a                    12.7299
_cell_length_b                    12.2868
_cell_length_c                    18.4996
_cell_angle_alpha                 90.0000
_cell_angle_beta                  128.6443
_cell_angle_gamma                 90.0000
loop_
_atom_site_label
_atom_site_type_symbol
_atom_site_fract_x
_atom_site_fract_y
_atom_site_fract_z
_atom_site_U_iso_or_equiv
_atom_site_adp_type
_atom_site_occupancy
C1     C     0.64387   0.29999   0.00596   0.00000  Uiso   1.00
C2     C     0.68676   0.37698   0.96399   0.00000  Uiso   1.00
C3     C     0.61841   0.46998   0.91310   0.00000  Uiso   1.00
C4     C     0.67407   0.52949   0.88067   0.00000  Uiso   1.00
C5     C     0.72242   0.65394   0.81274   0.00000  Uiso   1.00
C6     C     0.63372   0.18743   0.96730   0.00000  Uiso   1.00
C7     C     0.52079   0.12105   0.91921   0.00000  Uiso   1.00
C8     C     0.53182   0.02099   0.88959   0.00000  Uiso   1.00
C9     C     0.49786   0.85113   0.82686   0.00000  Uiso   1.00
C10    C     0.76217   0.29464   0.10914   0.00000  Uiso   1.00
C11    C     0.75722   0.31838   0.18031   0.00000  Uiso   1.00
C12    C     0.87639   0.30856   0.27010   0.00000  Uiso   1.00
C13    C     0.04185   0.30517   0.42759   0.00000  Uiso   1.00
C14    C     0.86428   0.24030   0.03887   0.00000  Uiso   1.00
C15    C     0.80648   0.34456   0.98186   0.00000  Uiso   1.00
C16    C     0.86227   0.40395   0.94951   0.00000  Uiso   1.00
C17    C     0.79401   0.49702   0.89858   0.00000  Uiso   1.00
C18    C     0.75344   0.15501   0.98518   0.00000  Uiso   1.00
C19    C     0.76465   0.05502   0.95562   0.00000  Uiso   1.00
C20    C     0.65175   0.98851   0.90749   0.00000  Uiso   1.00
C21    C     0.88189   0.26223   0.12701   0.00000  Uiso   1.00
C22    C     0.00108   0.25236   0.21671   0.00000  Uiso   1.00
C23    C     0.99632   0.27608   0.28801   0.00000  Uiso   1.00
H24    H     0.55066   0.32522   0.99205   0.00000  Uiso   1.00
H25    H     0.52575   0.49503   0.89928   0.00000  Uiso   1.00
H26    H     0.42816   0.14616   0.90540   0.00000  Uiso   1.00
H27    H     0.66456   0.34347   0.16645   0.00000  Uiso   1.00
H28    H     0.55091   0.66898   0.80428   0.00000  Uiso   1.00
H29    H     0.34514   0.93335   0.81722   0.00000  Uiso   1.00
H30    H     0.84363   0.34941   0.36769   0.00000  Uiso   1.00
H31    H     0.95749   0.21506   0.05279   0.00000  Uiso   1.00
H32    H     0.95491   0.37884   0.96335   0.00000  Uiso   1.00
H33    H     0.85731   0.02996   0.96947   0.00000  Uiso   1.00
H34    H     0.09371   0.22727   0.23052   0.00000  Uiso   1.00
H35    H     0.89922   0.57468   0.85628   0.00000  Uiso   1.00
H36    H     0.69345   0.83903   0.86922   0.00000  Uiso   1.00
H37    H     0.19194   0.25510   0.41970   0.00000  Uiso   1.00
O38    O     0.71600   0.73153   0.77032   0.00000  Uiso   1.00
O39    O     0.44605   0.76640   0.78731   0.00000  Uiso   1.00
O40    O     0.10006   0.31226   0.50952   0.00000  Uiso   1.00
N41    N     0.63325   0.62433   0.82881   0.00000  Uiso   1.00
N42    N     0.44086   0.93655   0.84089   0.00000  Uiso   1.00
N43    N     0.90690   0.32551   0.35554   0.00000  Uiso   1.00
N44    N     0.82068   0.57358   0.85679   0.00000  Uiso   1.00
N45    N     0.62829   0.88581   0.86887   0.00000  Uiso   1.00
N46    N     0.09433   0.27476   0.38352   0.00000  Uiso   1.00
C47    C     0.35613   0.79999   0.49404   0.00000  Uiso   1.00
C48    C     0.31324   0.87698   0.53601   0.00000  Uiso   1.00
C49    C     0.38159   0.96998   0.58690   0.00000  Uiso   1.00
C50    C     0.32593   0.02949   0.61933   0.00000  Uiso   1.00
C51    C     0.27758   0.15394   0.68726   0.00000  Uiso   1.00
C52    C     0.36628   0.68743   0.53270   0.00000  Uiso   1.00
C53    C     0.47921   0.62105   0.58079   0.00000  Uiso   1.00
C54    C     0.46818   0.52099   0.61041   0.00000  Uiso   1.00
C55    C     0.50214   0.35113   0.67314   0.00000  Uiso   1.00
C56    C     0.23783   0.79464   0.39086   0.00000  Uiso   1.00
C57    C     0.24278   0.81838   0.31969   0.00000  Uiso   1.00
C58    C     0.12361   0.80856   0.22990   0.00000  Uiso   1.00
C59    C     0.95815   0.80517   0.07241   0.00000  Uiso   1.00
C60    C     0.13572   0.74030   0.46113   0.00000  Uiso   1.00
C61    C     0.19352   0.84456   0.51814   0.00000  Uiso   1.00
C62    C     0.13773   0.90395   0.55049   0.00000  Uiso   1.00
C63    C     0.20599   0.99702   0.60142   0.00000  Uiso   1.00
C64    C     0.24656   0.65501   0.51482   0.00000  Uiso   1.00
C65    C     0.23535   0.55502   0.54438   0.00000  Uiso   1.00
C66    C     0.34825   0.48851   0.59251   0.00000  Uiso   1.00
C67    C     0.11811   0.76223   0.37299   0.00000  Uiso   1.00
C68    C     0.99892   0.75236   0.28329   0.00000  Uiso   1.00
C69    C     0.00368   0.77608   0.21199   0.00000  Uiso   1.00
H70    H     0.44934   0.82522   0.50795   0.00000  Uiso   1.00
H71    H     0.47425   0.99503   0.60072   0.00000  Uiso   1.00
H72    H     0.57184   0.64616   0.59460   0.00000  Uiso   1.00
H73    H     0.33544   0.84347   0.33355   0.00000  Uiso   1.00
H74    H     0.44909   0.16898   0.69572   0.00000  Uiso   1.00
H75    H     0.65486   0.43335   0.68278   0.00000  Uiso   1.00
H76    H     0.15637   0.84941   0.13231   0.00000  Uiso   1.00
H77    H     0.04251   0.71506   0.44721   0.00000  Uiso   1.00
H78    H     0.04509   0.87884   0.53665   0.00000  Uiso   1.00
H79    H     0.14269   0.52996   0.53053   0.00000  Uiso   1.00
H80    H     0.90629   0.72727   0.26948   0.00000  Uiso   1.00
H81    H     0.10078   0.07468   0.64372   0.00000  Uiso   1.00
H82    H     0.30655   0.33903   0.63078   0.00000  Uiso   1.00
H83    H     0.80806   0.75510   0.08030   0.00000  Uiso   1.00
O84    O     0.28400   0.23153   0.72968   0.00000  Uiso   1.00
O85    O     0.55395   0.26640   0.71269   0.00000  Uiso   1.00
O86    O     0.89994   0.81226   0.99048   0.00000  Uiso   1.00
N87    N     0.36675   0.12433   0.67119   0.00000  Uiso   1.00
N88    N     0.55914   0.43655   0.65911   0.00000  Uiso   1.00
N89    N     0.09310   0.82551   0.14446   0.00000  Uiso   1.00
N90    N     0.17932   0.07358   0.64321   0.00000  Uiso   1.00
N91    N     0.37171   0.38581   0.63113   0.00000  Uiso   1.00
N92    N     0.90567   0.77476   0.11648   0.00000  Uiso   1.00
C93    C     0.35613   0.70001   0.99404   0.00000  Uiso   1.00
C94    C     0.31324   0.62302   0.03601   0.00000  Uiso   1.00
C95    C     0.38159   0.53002   0.08690   0.00000  Uiso   1.00
C96    C     0.32593   0.47051   0.11933   0.00000  Uiso   1.00
C97    C     0.27758   0.34606   0.18726   0.00000  Uiso   1.00
C98    C     0.36628   0.81257   0.03270   0.00000  Uiso   1.00
C99    C     0.47921   0.87895   0.08079   0.00000  Uiso   1.00
C100   C     0.46818   0.97901   0.11041   0.00000  Uiso   1.00
C101   C     0.50214   0.14887   0.17314   0.00000  Uiso   1.00
C102   C     0.23783   0.70536   0.89086   0.00000  Uiso   1.00
C103   C     0.24278   0.68162   0.81969   0.00000  Uiso   1.00
C104   C     0.12361   0.69144   0.72990   0.00000  Uiso   1.00
C105   C     0.95815   0.69483   0.57241   0.00000  Uiso   1.00
C106   C     0.13572   0.75970   0.96113   0.00000  Uiso   1.00
C107   C     0.19352   0.65544   0.01814   0.00000  Uiso   1.00
C108   C     0.13773   0.59605   0.05049   0.00000  Uiso   1.00
C109   C     0.20599   0.50298   0.10142   0.00000  Uiso   1.00
C110   C     0.24656   0.84499   0.01482   0.00000  Uiso   1.00
C111   C     0.23535   0.94498   0.04438   0.00000  Uiso   1.00
C112   C     0.34825   0.01149   0.09251   0.00000  Uiso   1.00
C113   C     0.11811   0.73777   0.87299   0.00000  Uiso   1.00
C114   C     0.99892   0.74764   0.78329   0.00000  Uiso   1.00
C115   C     0.00368   0.72392   0.71199   0.00000  Uiso   1.00
H116   H     0.44934   0.67478   0.00795   0.00000  Uiso   1.00
H117   H     0.47425   0.50497   0.10072   0.00000  Uiso   1.00
H118   H     0.57184   0.85384   0.09460   0.00000  Uiso   1.00
H119   H     0.33544   0.65653   0.83355   0.00000  Uiso   1.00
H120   H     0.44909   0.33102   0.19572   0.00000  Uiso   1.00
H121   H     0.65486   0.06665   0.18278   0.00000  Uiso   1.00
H122   H     0.15637   0.65059   0.63231   0.00000  Uiso   1.00
H123   H     0.04251   0.78494   0.94721   0.00000  Uiso   1.00
H124   H     0.04509   0.62116   0.03665   0.00000  Uiso   1.00
H125   H     0.14269   0.97004   0.03053   0.00000  Uiso   1.00
H126   H     0.90629   0.77273   0.76948   0.00000  Uiso   1.00
H127   H     0.10078   0.42532   0.14372   0.00000  Uiso   1.00
H128   H     0.30655   0.16097   0.13078   0.00000  Uiso   1.00
H129   H     0.80806   0.74490   0.58030   0.00000  Uiso   1.00
O130   O     0.28400   0.26847   0.22968   0.00000  Uiso   1.00
O131   O     0.55395   0.23360   0.21269   0.00000  Uiso   1.00
O132   O     0.89994   0.68774   0.49048   0.00000  Uiso   1.00
N133   N     0.36675   0.37567   0.17119   0.00000  Uiso   1.00
N134   N     0.55914   0.06345   0.15911   0.00000  Uiso   1.00
N135   N     0.09310   0.67449   0.64446   0.00000  Uiso   1.00
N136   N     0.17932   0.42642   0.14321   0.00000  Uiso   1.00
N137   N     0.37171   0.11419   0.13113   0.00000  Uiso   1.00
N138   N     0.90567   0.72524   0.61648   0.00000  Uiso   1.00
C139   C     0.64387   0.20001   0.50596   0.00000  Uiso   1.00
C140   C     0.68676   0.12302   0.46399   0.00000  Uiso   1.00
C141   C     0.61841   0.03002   0.41310   0.00000  Uiso   1.00
C142   C     0.67407   0.97051   0.38067   0.00000  Uiso   1.00
C143   C     0.72242   0.84606   0.31274   0.00000  Uiso   1.00
C144   C     0.63372   0.31257   0.46730   0.00000  Uiso   1.00
C145   C     0.52079   0.37895   0.41921   0.00000  Uiso   1.00
C146   C     0.53182   0.47901   0.38959   0.00000  Uiso   1.00
C147   C     0.49786   0.64887   0.32686   0.00000  Uiso   1.00
C148   C     0.76217   0.20536   0.60914   0.00000  Uiso   1.00
C149   C     0.75722   0.18162   0.68031   0.00000  Uiso   1.00
C150   C     0.87639   0.19144   0.77010   0.00000  Uiso   1.00
C151   C     0.04185   0.19483   0.92759   0.00000  Uiso   1.00
C152   C     0.86428   0.25970   0.53887   0.00000  Uiso   1.00
C153   C     0.80648   0.15544   0.48186   0.00000  Uiso   1.00
C154   C     0.86227   0.09605   0.44951   0.00000  Uiso   1.00
C155   C     0.79401   0.00298   0.39858   0.00000  Uiso   1.00
C156   C     0.75344   0.34499   0.48518   0.00000  Uiso   1.00
C157   C     0.76465   0.44498   0.45562   0.00000  Uiso   1.00
C158   C     0.65175   0.51149   0.40749   0.00000  Uiso   1.00
C159   C     0.88189   0.23777   0.62701   0.00000  Uiso   1.00
C160   C     0.00108   0.24764   0.71671   0.00000  Uiso   1.00
C161   C     0.99632   0.22392   0.78801   0.00000  Uiso   1.00
H162   H     0.55066   0.17478   0.49205   0.00000  Uiso   1.00
H163   H     0.52575   0.00497   0.39928   0.00000  Uiso   1.00
H164   H     0.42816   0.35384   0.40540   0.00000  Uiso   1.00
H165   H     0.66456   0.15653   0.66645   0.00000  Uiso   1.00
H166   H     0.55091   0.83102   0.30428   0.00000  Uiso   1.00
H167   H     0.34514   0.56665   0.31722   0.00000  Uiso   1.00
H168   H     0.84363   0.15059   0.86769   0.00000  Uiso   1.00
H169   H     0.95749   0.28494   0.55279   0.00000  Uiso   1.00
H170   H     0.95491   0.12116   0.46335   0.00000  Uiso   1.00
H171   H     0.85731   0.47004   0.46947   0.00000  Uiso   1.00
H172   H     0.09371   0.27273   0.73052   0.00000  Uiso   1.00
H173   H     0.89922   0.92532   0.35628   0.00000  Uiso   1.00
H174   H     0.69345   0.66097   0.36922   0.00000  Uiso   1.00
H175   H     0.19194   0.24490   0.91970   0.00000  Uiso   1.00
O176   O     0.71600   0.76847   0.27032   0.00000  Uiso   1.00
O177   O     0.44605   0.73360   0.28731   0.00000  Uiso   1.00
O178   O     0.10006   0.18774   0.00952   0.00000  Uiso   1.00
N179   N     0.63325   0.87567   0.32881   0.00000  Uiso   1.00
N180   N     0.44086   0.56345   0.34089   0.00000  Uiso   1.00
N181   N     0.90690   0.17449   0.85554   0.00000  Uiso   1.00
N182   N     0.82068   0.92642   0.35679   0.00000  Uiso   1.00
N183   N     0.62829   0.61419   0.36887   0.00000  Uiso   1.00
N184   N     0.09433   0.22524   0.88352   0.00000  Uiso   1.00
