data_job_05494
_audit_creation_date              2018-12-19
_audit_creation_method            'Materials Studio'
_symmetry_space_group_name_H-M    'P1'
_symmetry_Int_Tables_number       1
_symmetry_cell_setting            triclinic
loop_
_symmetry_equiv_pos_as_xyz
  x,y,z
_cell_length_a                    15.4823
_cell_length_b                    15.4823
_cell_length_c                    13.2977
_cell_angle_alpha                 90.0000
_cell_angle_beta                  90.0000
_cell_angle_gamma                 90.0000
loop_
_atom_site_label
_atom_site_type_symbol
_atom_site_fract_x
_atom_site_fract_y
_atom_site_fract_z
_atom_site_U_iso_or_equiv
_atom_site_adp_type
_atom_site_occupancy
C1     C     0.22472   0.43249   0.33418   0.00000  Uiso   1.00
C2     C     0.19239   0.50383   0.26465   0.00000  Uiso   1.00
C3     C     0.12594   0.49607   0.19521   0.00000  Uiso   1.00
C4     C     0.10609   0.56883   0.13872   0.00000  Uiso   1.00
C5     C     0.04908   0.66778   0.02881   0.00000  Uiso   1.00
C6     C     0.32110   0.42342   0.31306   0.00000  Uiso   1.00
C7     C     0.36286   0.34803   0.28433   0.00000  Uiso   1.00
C8     C     0.45137   0.35310   0.26860   0.00000  Uiso   1.00
C9     C     0.59419   0.32719   0.23391   0.00000  Uiso   1.00
C10    C     0.21751   0.46823   0.44070   0.00000  Uiso   1.00
C11    C     0.17218   0.43051   0.51931   0.00000  Uiso   1.00
C12    C     0.17349   0.47330   0.61106   0.00000  Uiso   1.00
C13    C     0.15545   0.51697   0.77457   0.00000  Uiso   1.00
C14    C     0.30766   0.57552   0.35735   0.00000  Uiso   1.00
C15    C     0.23745   0.58152   0.27724   0.00000  Uiso   1.00
C16    C     0.21770   0.65431   0.22085   0.00000  Uiso   1.00
C17    C     0.15122   0.64666   0.15133   0.00000  Uiso   1.00
C18    C     0.36615   0.50110   0.32564   0.00000  Uiso   1.00
C19    C     0.45462   0.50628   0.30996   0.00000  Uiso   1.00
C20    C     0.49651   0.43093   0.28121   0.00000  Uiso   1.00
C21    C     0.26255   0.54592   0.45329   0.00000  Uiso   1.00
C22    C     0.26394   0.58877   0.54494   0.00000  Uiso   1.00
C23    C     0.21862   0.55113   0.62367   0.00000  Uiso   1.00
H24    H     0.18965   0.37200   0.32438   0.00000  Uiso   1.00
H25    H     0.09109   0.43593   0.18548   0.00000  Uiso   1.00
H26    H     0.32799   0.28792   0.27460   0.00000  Uiso   1.00
H27    H     0.13733   0.37040   0.50954   0.00000  Uiso   1.00
H28    H     0.00171   0.54106   0.03701   0.00000  Uiso   1.00
H29    H     0.50121   0.22897   0.22495   0.00000  Uiso   1.00
H30    H     0.09918   0.40287   0.72038   0.00000  Uiso   1.00
H31    H     0.34273   0.63601   0.36715   0.00000  Uiso   1.00
H32    H     0.25257   0.71442   0.23060   0.00000  Uiso   1.00
H33    H     0.48946   0.56641   0.31972   0.00000  Uiso   1.00
H34    H     0.29881   0.64888   0.55466   0.00000  Uiso   1.00
H35    H     0.13277   0.76709   0.07363   0.00000  Uiso   1.00
H36    H     0.63228   0.45500   0.26157   0.00000  Uiso   1.00
H37    H     0.23024   0.62891   0.75700   0.00000  Uiso   1.00
O38    O     0.00519   0.70089   0.96470   0.00000  Uiso   1.00
O39    O     0.66052   0.29143   0.21129   0.00000  Uiso   1.00
O40    O     0.13305   0.51960   0.86127   0.00000  Uiso   1.00
N41    N     0.04492   0.58350   0.06438   0.00000  Uiso   1.00
N42    N     0.51192   0.29172   0.24008   0.00000  Uiso   1.00
N43    N     0.13607   0.45429   0.70327   0.00000  Uiso   1.00
N44    N     0.11544   0.70513   0.08409   0.00000  Uiso   1.00
N45    N     0.58244   0.41334   0.25979   0.00000  Uiso   1.00
N46    N     0.20660   0.57592   0.72298   0.00000  Uiso   1.00
C47    C     0.77528   0.56751   0.83418   0.00000  Uiso   1.00
C48    C     0.80761   0.49617   0.76465   0.00000  Uiso   1.00
C49    C     0.87406   0.50393   0.69521   0.00000  Uiso   1.00
C50    C     0.89391   0.43117   0.63872   0.00000  Uiso   1.00
C51    C     0.95092   0.33222   0.52881   0.00000  Uiso   1.00
C52    C     0.67890   0.57658   0.81306   0.00000  Uiso   1.00
C53    C     0.63714   0.65197   0.78433   0.00000  Uiso   1.00
C54    C     0.54863   0.64690   0.76860   0.00000  Uiso   1.00
C55    C     0.40581   0.67281   0.73391   0.00000  Uiso   1.00
C56    C     0.78249   0.53177   0.94070   0.00000  Uiso   1.00
C57    C     0.82782   0.56949   0.01931   0.00000  Uiso   1.00
C58    C     0.82651   0.52670   0.11106   0.00000  Uiso   1.00
C59    C     0.84455   0.48303   0.27457   0.00000  Uiso   1.00
C60    C     0.69234   0.42448   0.85735   0.00000  Uiso   1.00
C61    C     0.76255   0.41848   0.77724   0.00000  Uiso   1.00
C62    C     0.78230   0.34569   0.72085   0.00000  Uiso   1.00
C63    C     0.84878   0.35334   0.65133   0.00000  Uiso   1.00
C64    C     0.63385   0.49890   0.82564   0.00000  Uiso   1.00
C65    C     0.54538   0.49372   0.80996   0.00000  Uiso   1.00
C66    C     0.50349   0.56907   0.78121   0.00000  Uiso   1.00
C67    C     0.73745   0.45408   0.95329   0.00000  Uiso   1.00
C68    C     0.73606   0.41123   0.04494   0.00000  Uiso   1.00
C69    C     0.78138   0.44887   0.12367   0.00000  Uiso   1.00
H70    H     0.81035   0.62800   0.82438   0.00000  Uiso   1.00
H71    H     0.90891   0.56407   0.68548   0.00000  Uiso   1.00
H72    H     0.67201   0.71208   0.77460   0.00000  Uiso   1.00
H73    H     0.86267   0.62960   0.00954   0.00000  Uiso   1.00
H74    H     0.99829   0.45894   0.53701   0.00000  Uiso   1.00
H75    H     0.49879   0.77103   0.72495   0.00000  Uiso   1.00
H76    H     0.90082   0.59713   0.22038   0.00000  Uiso   1.00
H77    H     0.65727   0.36399   0.86715   0.00000  Uiso   1.00
H78    H     0.74743   0.28558   0.73060   0.00000  Uiso   1.00
H79    H     0.51054   0.43359   0.81972   0.00000  Uiso   1.00
H80    H     0.70119   0.35112   0.05466   0.00000  Uiso   1.00
H81    H     0.86723   0.23291   0.57363   0.00000  Uiso   1.00
H82    H     0.36772   0.54500   0.76157   0.00000  Uiso   1.00
H83    H     0.76976   0.37109   0.25700   0.00000  Uiso   1.00
O84    O     0.99481   0.29911   0.46470   0.00000  Uiso   1.00
O85    O     0.33948   0.70857   0.71129   0.00000  Uiso   1.00
O86    O     0.86695   0.48040   0.36127   0.00000  Uiso   1.00
N87    N     0.95508   0.41650   0.56438   0.00000  Uiso   1.00
N88    N     0.48808   0.70828   0.74008   0.00000  Uiso   1.00
N89    N     0.86393   0.54571   0.20327   0.00000  Uiso   1.00
N90    N     0.88456   0.29487   0.58409   0.00000  Uiso   1.00
N91    N     0.41756   0.58666   0.75979   0.00000  Uiso   1.00
N92    N     0.79340   0.42408   0.22298   0.00000  Uiso   1.00
C93    C     0.56751   0.22472   0.58418   0.00000  Uiso   1.00
C94    C     0.49617   0.19239   0.51465   0.00000  Uiso   1.00
C95    C     0.50393   0.12594   0.44521   0.00000  Uiso   1.00
C96    C     0.43117   0.10609   0.38872   0.00000  Uiso   1.00
C97    C     0.33222   0.04908   0.27881   0.00000  Uiso   1.00
C98    C     0.57658   0.32110   0.56306   0.00000  Uiso   1.00
C99    C     0.65197   0.36286   0.53433   0.00000  Uiso   1.00
C100   C     0.64690   0.45137   0.51860   0.00000  Uiso   1.00
C101   C     0.67281   0.59419   0.48391   0.00000  Uiso   1.00
C102   C     0.53177   0.21751   0.69070   0.00000  Uiso   1.00
C103   C     0.56949   0.17218   0.76931   0.00000  Uiso   1.00
C104   C     0.52670   0.17349   0.86106   0.00000  Uiso   1.00
C105   C     0.48303   0.15545   0.02457   0.00000  Uiso   1.00
C106   C     0.42448   0.30766   0.60735   0.00000  Uiso   1.00
C107   C     0.41848   0.23745   0.52724   0.00000  Uiso   1.00
C108   C     0.34569   0.21770   0.47085   0.00000  Uiso   1.00
C109   C     0.35334   0.15122   0.40133   0.00000  Uiso   1.00
C110   C     0.49890   0.36615   0.57564   0.00000  Uiso   1.00
C111   C     0.49372   0.45462   0.55996   0.00000  Uiso   1.00
C112   C     0.56907   0.49651   0.53121   0.00000  Uiso   1.00
C113   C     0.45408   0.26255   0.70329   0.00000  Uiso   1.00
C114   C     0.41123   0.26394   0.79494   0.00000  Uiso   1.00
C115   C     0.44887   0.21862   0.87367   0.00000  Uiso   1.00
H116   H     0.62800   0.18965   0.57438   0.00000  Uiso   1.00
H117   H     0.56407   0.09109   0.43548   0.00000  Uiso   1.00
H118   H     0.71208   0.32799   0.52460   0.00000  Uiso   1.00
H119   H     0.62960   0.13733   0.75954   0.00000  Uiso   1.00
H120   H     0.45894   0.00171   0.28701   0.00000  Uiso   1.00
H121   H     0.77103   0.50121   0.47495   0.00000  Uiso   1.00
H122   H     0.59713   0.09918   0.97038   0.00000  Uiso   1.00
H123   H     0.36399   0.34273   0.61715   0.00000  Uiso   1.00
H124   H     0.28558   0.25257   0.48060   0.00000  Uiso   1.00
H125   H     0.43359   0.48946   0.56972   0.00000  Uiso   1.00
H126   H     0.35112   0.29881   0.80466   0.00000  Uiso   1.00
H127   H     0.23291   0.13277   0.32363   0.00000  Uiso   1.00
H128   H     0.54500   0.63228   0.51157   0.00000  Uiso   1.00
H129   H     0.37109   0.23024   0.00700   0.00000  Uiso   1.00
O130   O     0.29911   0.00519   0.21470   0.00000  Uiso   1.00
O131   O     0.70857   0.66052   0.46129   0.00000  Uiso   1.00
O132   O     0.48040   0.13305   0.11127   0.00000  Uiso   1.00
N133   N     0.41650   0.04492   0.31438   0.00000  Uiso   1.00
N134   N     0.70828   0.51192   0.49008   0.00000  Uiso   1.00
N135   N     0.54571   0.13607   0.95327   0.00000  Uiso   1.00
N136   N     0.29487   0.11544   0.33409   0.00000  Uiso   1.00
N137   N     0.58666   0.58244   0.50979   0.00000  Uiso   1.00
N138   N     0.42408   0.20660   0.97298   0.00000  Uiso   1.00
C139   C     0.43249   0.77528   0.08418   0.00000  Uiso   1.00
C140   C     0.50383   0.80761   0.01465   0.00000  Uiso   1.00
C141   C     0.49607   0.87406   0.94521   0.00000  Uiso   1.00
C142   C     0.56883   0.89391   0.88872   0.00000  Uiso   1.00
C143   C     0.66778   0.95092   0.77881   0.00000  Uiso   1.00
C144   C     0.42342   0.67890   0.06306   0.00000  Uiso   1.00
C145   C     0.34803   0.63714   0.03433   0.00000  Uiso   1.00
C146   C     0.35310   0.54863   0.01860   0.00000  Uiso   1.00
C147   C     0.32719   0.40581   0.98391   0.00000  Uiso   1.00
C148   C     0.46823   0.78249   0.19070   0.00000  Uiso   1.00
C149   C     0.43051   0.82782   0.26931   0.00000  Uiso   1.00
C150   C     0.47330   0.82651   0.36106   0.00000  Uiso   1.00
C151   C     0.51697   0.84455   0.52457   0.00000  Uiso   1.00
C152   C     0.57552   0.69234   0.10735   0.00000  Uiso   1.00
C153   C     0.58152   0.76255   0.02724   0.00000  Uiso   1.00
C154   C     0.65431   0.78230   0.97085   0.00000  Uiso   1.00
C155   C     0.64666   0.84878   0.90133   0.00000  Uiso   1.00
C156   C     0.50110   0.63385   0.07564   0.00000  Uiso   1.00
C157   C     0.50628   0.54538   0.05996   0.00000  Uiso   1.00
C158   C     0.43093   0.50349   0.03121   0.00000  Uiso   1.00
C159   C     0.54592   0.73745   0.20329   0.00000  Uiso   1.00
C160   C     0.58877   0.73606   0.29494   0.00000  Uiso   1.00
C161   C     0.55113   0.78138   0.37367   0.00000  Uiso   1.00
H162   H     0.37200   0.81035   0.07438   0.00000  Uiso   1.00
H163   H     0.43593   0.90891   0.93548   0.00000  Uiso   1.00
H164   H     0.28792   0.67201   0.02460   0.00000  Uiso   1.00
H165   H     0.37040   0.86267   0.25954   0.00000  Uiso   1.00
H166   H     0.54106   0.99829   0.78701   0.00000  Uiso   1.00
H167   H     0.22897   0.49879   0.97495   0.00000  Uiso   1.00
H168   H     0.40287   0.90082   0.47038   0.00000  Uiso   1.00
H169   H     0.63601   0.65727   0.11715   0.00000  Uiso   1.00
H170   H     0.71442   0.74743   0.98060   0.00000  Uiso   1.00
H171   H     0.56641   0.51054   0.06972   0.00000  Uiso   1.00
H172   H     0.64888   0.70119   0.30466   0.00000  Uiso   1.00
H173   H     0.76709   0.86723   0.82363   0.00000  Uiso   1.00
H174   H     0.45500   0.36772   0.01157   0.00000  Uiso   1.00
H175   H     0.62891   0.76976   0.50700   0.00000  Uiso   1.00
O176   O     0.70089   0.99481   0.71470   0.00000  Uiso   1.00
O177   O     0.29143   0.33948   0.96129   0.00000  Uiso   1.00
O178   O     0.51960   0.86695   0.61127   0.00000  Uiso   1.00
N179   N     0.58350   0.95508   0.81438   0.00000  Uiso   1.00
N180   N     0.29172   0.48808   0.99008   0.00000  Uiso   1.00
N181   N     0.45429   0.86393   0.45327   0.00000  Uiso   1.00
N182   N     0.70513   0.88456   0.83409   0.00000  Uiso   1.00
N183   N     0.41334   0.41756   0.00979   0.00000  Uiso   1.00
N184   N     0.57592   0.79340   0.47298   0.00000  Uiso   1.00
