data_job_03764
_audit_creation_date              2018-12-19
_audit_creation_method            'Materials Studio'
_symmetry_space_group_name_H-M    'P1'
_symmetry_Int_Tables_number       1
_symmetry_cell_setting            triclinic
loop_
_symmetry_equiv_pos_as_xyz
  x,y,z
_cell_length_a                    8.6718
_cell_length_b                    39.4694
_cell_length_c                    19.4706
_cell_angle_alpha                 90.0000
_cell_angle_beta                  90.0000
_cell_angle_gamma                 90.0000
loop_
_atom_site_label
_atom_site_type_symbol
_atom_site_fract_x
_atom_site_fract_y
_atom_site_fract_z
_atom_site_U_iso_or_equiv
_atom_site_adp_type
_atom_site_occupancy
C1     C     0.81415   0.13282   0.67370   0.00000  Uiso   1.00
C2     C     0.80609   0.16793   0.64118   0.00000  Uiso   1.00
C3     C     0.68357   0.18061   0.60322   0.00000  Uiso   1.00
C4     C     0.69849   0.21331   0.57782   0.00000  Uiso   1.00
C5     C     0.66581   0.26488   0.52544   0.00000  Uiso   1.00
C6     C     0.95973   0.11629   0.64530   0.00000  Uiso   1.00
C7     C     0.96638   0.08555   0.61080   0.00000  Uiso   1.00
C8     C     0.11064   0.07479   0.58887   0.00000  Uiso   1.00
C9     C     0.31650   0.04617   0.54293   0.00000  Uiso   1.00
C10    C     0.84411   0.13860   0.74998   0.00000  Uiso   1.00
C11    C     0.75358   0.12662   0.80350   0.00000  Uiso   1.00
C12    C     0.80053   0.13463   0.86972   0.00000  Uiso   1.00
C13    C     0.82688   0.14066   0.98631   0.00000  Uiso   1.00
C14    C     0.05852   0.16835   0.69611   0.00000  Uiso   1.00
C15    C     0.93883   0.18722   0.65335   0.00000  Uiso   1.00
C16    C     0.95394   0.21992   0.62801   0.00000  Uiso   1.00
C17    C     0.83146   0.23265   0.59002   0.00000  Uiso   1.00
C18    C     0.09246   0.13558   0.65747   0.00000  Uiso   1.00
C19    C     0.23674   0.12486   0.63559   0.00000  Uiso   1.00
C20    C     0.24361   0.09412   0.60107   0.00000  Uiso   1.00
C21    C     0.97685   0.15790   0.76215   0.00000  Uiso   1.00
C22    C     0.02395   0.16593   0.82830   0.00000  Uiso   1.00
C23    C     0.93350   0.15396   0.88191   0.00000  Uiso   1.00
H24    H     0.71082   0.11780   0.66422   0.00000  Uiso   1.00
H25    H     0.58088   0.16567   0.59380   0.00000  Uiso   1.00
H26    H     0.86365   0.07062   0.60139   0.00000  Uiso   1.00
H27    H     0.65088   0.11169   0.79406   0.00000  Uiso   1.00
H28    H     0.49536   0.22724   0.52107   0.00000  Uiso   1.00
H29    H     0.09161   0.02683   0.53710   0.00000  Uiso   1.00
H30    H     0.64295   0.11342   0.94338   0.00000  Uiso   1.00
H31    H     0.16187   0.18338   0.70559   0.00000  Uiso   1.00
H32    H     0.05667   0.23485   0.63744   0.00000  Uiso   1.00
H33    H     0.33944   0.13980   0.64503   0.00000  Uiso   1.00
H34    H     0.12667   0.18086   0.83770   0.00000  Uiso   1.00
H35    H     0.88153   0.28339   0.55649   0.00000  Uiso   1.00
H36    H     0.47778   0.08298   0.57251   0.00000  Uiso   1.00
H37    H     0.02912   0.16957   0.97880   0.00000  Uiso   1.00
O38    O     0.61113   0.28799   0.49318   0.00000  Uiso   1.00
O39    O     0.39337   0.02506   0.51422   0.00000  Uiso   1.00
O40    O     0.80474   0.13866   0.04725   0.00000  Uiso   1.00
N41    N     0.60067   0.23340   0.53877   0.00000  Uiso   1.00
N42    N     0.15812   0.04603   0.55374   0.00000  Uiso   1.00
N43    N     0.73868   0.12697   0.93359   0.00000  Uiso   1.00
N44    N     0.80847   0.26361   0.55783   0.00000  Uiso   1.00
N45    N     0.36592   0.07624   0.57280   0.00000  Uiso   1.00
N46    N     0.94648   0.15719   0.95265   0.00000  Uiso   1.00
C47    C     0.68585   0.86718   0.67370   0.00000  Uiso   1.00
C48    C     0.69391   0.83207   0.64118   0.00000  Uiso   1.00
C49    C     0.81643   0.81939   0.60322   0.00000  Uiso   1.00
C50    C     0.80151   0.78669   0.57782   0.00000  Uiso   1.00
C51    C     0.83419   0.73512   0.52544   0.00000  Uiso   1.00
C52    C     0.54027   0.88371   0.64530   0.00000  Uiso   1.00
C53    C     0.53362   0.91445   0.61080   0.00000  Uiso   1.00
C54    C     0.38936   0.92521   0.58887   0.00000  Uiso   1.00
C55    C     0.18350   0.95383   0.54293   0.00000  Uiso   1.00
C56    C     0.65589   0.86140   0.74998   0.00000  Uiso   1.00
C57    C     0.74642   0.87338   0.80350   0.00000  Uiso   1.00
C58    C     0.69947   0.86537   0.86972   0.00000  Uiso   1.00
C59    C     0.67312   0.85934   0.98631   0.00000  Uiso   1.00
C60    C     0.44148   0.83165   0.69611   0.00000  Uiso   1.00
C61    C     0.56117   0.81278   0.65335   0.00000  Uiso   1.00
C62    C     0.54606   0.78008   0.62801   0.00000  Uiso   1.00
C63    C     0.66854   0.76735   0.59002   0.00000  Uiso   1.00
C64    C     0.40754   0.86442   0.65747   0.00000  Uiso   1.00
C65    C     0.26326   0.87514   0.63559   0.00000  Uiso   1.00
C66    C     0.25639   0.90588   0.60107   0.00000  Uiso   1.00
C67    C     0.52315   0.84210   0.76215   0.00000  Uiso   1.00
C68    C     0.47605   0.83407   0.82830   0.00000  Uiso   1.00
C69    C     0.56650   0.84604   0.88191   0.00000  Uiso   1.00
H70    H     0.78918   0.88220   0.66422   0.00000  Uiso   1.00
H71    H     0.91912   0.83433   0.59380   0.00000  Uiso   1.00
H72    H     0.63635   0.92938   0.60139   0.00000  Uiso   1.00
H73    H     0.84912   0.88831   0.79406   0.00000  Uiso   1.00
H74    H     0.00464   0.77276   0.52107   0.00000  Uiso   1.00
H75    H     0.40839   0.97317   0.53710   0.00000  Uiso   1.00
H76    H     0.85705   0.88658   0.94338   0.00000  Uiso   1.00
H77    H     0.33813   0.81662   0.70559   0.00000  Uiso   1.00
H78    H     0.44333   0.76515   0.63744   0.00000  Uiso   1.00
H79    H     0.16056   0.86020   0.64503   0.00000  Uiso   1.00
H80    H     0.37333   0.81914   0.83770   0.00000  Uiso   1.00
H81    H     0.61847   0.71661   0.55649   0.00000  Uiso   1.00
H82    H     0.02222   0.91702   0.57251   0.00000  Uiso   1.00
H83    H     0.47088   0.83043   0.97880   0.00000  Uiso   1.00
O84    O     0.88887   0.71201   0.49318   0.00000  Uiso   1.00
O85    O     0.10663   0.97494   0.51422   0.00000  Uiso   1.00
O86    O     0.69526   0.86134   0.04725   0.00000  Uiso   1.00
N87    N     0.89933   0.76660   0.53877   0.00000  Uiso   1.00
N88    N     0.34188   0.95397   0.55374   0.00000  Uiso   1.00
N89    N     0.76132   0.87303   0.93359   0.00000  Uiso   1.00
N90    N     0.69153   0.73639   0.55783   0.00000  Uiso   1.00
N91    N     0.13408   0.92376   0.57280   0.00000  Uiso   1.00
N92    N     0.55352   0.84281   0.95265   0.00000  Uiso   1.00
C93    C     0.68585   0.63282   0.82630   0.00000  Uiso   1.00
C94    C     0.69391   0.66793   0.85882   0.00000  Uiso   1.00
C95    C     0.81643   0.68061   0.89678   0.00000  Uiso   1.00
C96    C     0.80151   0.71331   0.92218   0.00000  Uiso   1.00
C97    C     0.83419   0.76488   0.97456   0.00000  Uiso   1.00
C98    C     0.54027   0.61629   0.85470   0.00000  Uiso   1.00
C99    C     0.53362   0.58555   0.88920   0.00000  Uiso   1.00
C100   C     0.38936   0.57479   0.91113   0.00000  Uiso   1.00
C101   C     0.18350   0.54617   0.95707   0.00000  Uiso   1.00
C102   C     0.65589   0.63860   0.75002   0.00000  Uiso   1.00
C103   C     0.74642   0.62662   0.69650   0.00000  Uiso   1.00
C104   C     0.69947   0.63463   0.63028   0.00000  Uiso   1.00
C105   C     0.67312   0.64066   0.51369   0.00000  Uiso   1.00
C106   C     0.44148   0.66835   0.80389   0.00000  Uiso   1.00
C107   C     0.56117   0.68722   0.84665   0.00000  Uiso   1.00
C108   C     0.54606   0.71992   0.87199   0.00000  Uiso   1.00
C109   C     0.66854   0.73265   0.90998   0.00000  Uiso   1.00
C110   C     0.40754   0.63558   0.84253   0.00000  Uiso   1.00
C111   C     0.26326   0.62486   0.86441   0.00000  Uiso   1.00
C112   C     0.25639   0.59412   0.89893   0.00000  Uiso   1.00
C113   C     0.52315   0.65790   0.73785   0.00000  Uiso   1.00
C114   C     0.47605   0.66593   0.67170   0.00000  Uiso   1.00
C115   C     0.56650   0.65396   0.61809   0.00000  Uiso   1.00
H116   H     0.78918   0.61780   0.83578   0.00000  Uiso   1.00
H117   H     0.91912   0.66567   0.90620   0.00000  Uiso   1.00
H118   H     0.63635   0.57062   0.89861   0.00000  Uiso   1.00
H119   H     0.84912   0.61169   0.70594   0.00000  Uiso   1.00
H120   H     0.00464   0.72724   0.97893   0.00000  Uiso   1.00
H121   H     0.40839   0.52683   0.96290   0.00000  Uiso   1.00
H122   H     0.85705   0.61342   0.55662   0.00000  Uiso   1.00
H123   H     0.33813   0.68338   0.79441   0.00000  Uiso   1.00
H124   H     0.44333   0.73485   0.86256   0.00000  Uiso   1.00
H125   H     0.16056   0.63980   0.85497   0.00000  Uiso   1.00
H126   H     0.37333   0.68086   0.66230   0.00000  Uiso   1.00
H127   H     0.61847   0.78339   0.94351   0.00000  Uiso   1.00
H128   H     0.02222   0.58298   0.92749   0.00000  Uiso   1.00
H129   H     0.47088   0.66957   0.52120   0.00000  Uiso   1.00
O130   O     0.88887   0.78799   0.00682   0.00000  Uiso   1.00
O131   O     0.10663   0.52506   0.98578   0.00000  Uiso   1.00
O132   O     0.69526   0.63866   0.45275   0.00000  Uiso   1.00
N133   N     0.89933   0.73340   0.96123   0.00000  Uiso   1.00
N134   N     0.34188   0.54603   0.94626   0.00000  Uiso   1.00
N135   N     0.76132   0.62697   0.56641   0.00000  Uiso   1.00
N136   N     0.69153   0.76361   0.94217   0.00000  Uiso   1.00
N137   N     0.13408   0.57624   0.92720   0.00000  Uiso   1.00
N138   N     0.55352   0.65719   0.54735   0.00000  Uiso   1.00
C139   C     0.81415   0.36718   0.82630   0.00000  Uiso   1.00
C140   C     0.80609   0.33207   0.85882   0.00000  Uiso   1.00
C141   C     0.68357   0.31939   0.89678   0.00000  Uiso   1.00
C142   C     0.69849   0.28669   0.92218   0.00000  Uiso   1.00
C143   C     0.66581   0.23512   0.97456   0.00000  Uiso   1.00
C144   C     0.95973   0.38371   0.85470   0.00000  Uiso   1.00
C145   C     0.96638   0.41445   0.88920   0.00000  Uiso   1.00
C146   C     0.11064   0.42521   0.91113   0.00000  Uiso   1.00
C147   C     0.31650   0.45383   0.95707   0.00000  Uiso   1.00
C148   C     0.84411   0.36140   0.75002   0.00000  Uiso   1.00
C149   C     0.75358   0.37338   0.69650   0.00000  Uiso   1.00
C150   C     0.80053   0.36537   0.63028   0.00000  Uiso   1.00
C151   C     0.82688   0.35934   0.51369   0.00000  Uiso   1.00
C152   C     0.05852   0.33165   0.80389   0.00000  Uiso   1.00
C153   C     0.93883   0.31278   0.84665   0.00000  Uiso   1.00
C154   C     0.95394   0.28008   0.87199   0.00000  Uiso   1.00
C155   C     0.83146   0.26735   0.90998   0.00000  Uiso   1.00
C156   C     0.09246   0.36442   0.84253   0.00000  Uiso   1.00
C157   C     0.23674   0.37514   0.86441   0.00000  Uiso   1.00
C158   C     0.24361   0.40588   0.89893   0.00000  Uiso   1.00
C159   C     0.97685   0.34210   0.73785   0.00000  Uiso   1.00
C160   C     0.02395   0.33407   0.67170   0.00000  Uiso   1.00
C161   C     0.93350   0.34604   0.61809   0.00000  Uiso   1.00
H162   H     0.71082   0.38220   0.83578   0.00000  Uiso   1.00
H163   H     0.58088   0.33433   0.90620   0.00000  Uiso   1.00
H164   H     0.86365   0.42938   0.89861   0.00000  Uiso   1.00
H165   H     0.65088   0.38831   0.70594   0.00000  Uiso   1.00
H166   H     0.49536   0.27276   0.97893   0.00000  Uiso   1.00
H167   H     0.09161   0.47317   0.96290   0.00000  Uiso   1.00
H168   H     0.64295   0.38658   0.55662   0.00000  Uiso   1.00
H169   H     0.16187   0.31662   0.79441   0.00000  Uiso   1.00
H170   H     0.05667   0.26515   0.86256   0.00000  Uiso   1.00
H171   H     0.33944   0.36020   0.85497   0.00000  Uiso   1.00
H172   H     0.12667   0.31914   0.66230   0.00000  Uiso   1.00
H173   H     0.88153   0.21661   0.94351   0.00000  Uiso   1.00
H174   H     0.47778   0.41702   0.92749   0.00000  Uiso   1.00
H175   H     0.02912   0.33043   0.52120   0.00000  Uiso   1.00
O176   O     0.61113   0.21201   0.00682   0.00000  Uiso   1.00
O177   O     0.39337   0.47494   0.98578   0.00000  Uiso   1.00
O178   O     0.80474   0.36134   0.45275   0.00000  Uiso   1.00
N179   N     0.60067   0.26660   0.96123   0.00000  Uiso   1.00
N180   N     0.15812   0.45397   0.94626   0.00000  Uiso   1.00
N181   N     0.73868   0.37303   0.56641   0.00000  Uiso   1.00
N182   N     0.80847   0.23639   0.94217   0.00000  Uiso   1.00
N183   N     0.36592   0.42376   0.92720   0.00000  Uiso   1.00
N184   N     0.94648   0.34281   0.54735   0.00000  Uiso   1.00
C185   C     0.18585   0.86718   0.32630   0.00000  Uiso   1.00
C186   C     0.19391   0.83207   0.35882   0.00000  Uiso   1.00
C187   C     0.31643   0.81939   0.39678   0.00000  Uiso   1.00
C188   C     0.30151   0.78669   0.42218   0.00000  Uiso   1.00
C189   C     0.33419   0.73512   0.47456   0.00000  Uiso   1.00
C190   C     0.04027   0.88371   0.35470   0.00000  Uiso   1.00
C191   C     0.03362   0.91445   0.38920   0.00000  Uiso   1.00
C192   C     0.88936   0.92521   0.41113   0.00000  Uiso   1.00
C193   C     0.68350   0.95383   0.45707   0.00000  Uiso   1.00
C194   C     0.15589   0.86140   0.25002   0.00000  Uiso   1.00
C195   C     0.24642   0.87338   0.19650   0.00000  Uiso   1.00
C196   C     0.19947   0.86537   0.13028   0.00000  Uiso   1.00
C197   C     0.17312   0.85934   0.01369   0.00000  Uiso   1.00
C198   C     0.94148   0.83165   0.30389   0.00000  Uiso   1.00
C199   C     0.06117   0.81278   0.34665   0.00000  Uiso   1.00
C200   C     0.04606   0.78008   0.37199   0.00000  Uiso   1.00
C201   C     0.16854   0.76735   0.40998   0.00000  Uiso   1.00
C202   C     0.90754   0.86442   0.34253   0.00000  Uiso   1.00
C203   C     0.76326   0.87514   0.36441   0.00000  Uiso   1.00
C204   C     0.75639   0.90588   0.39893   0.00000  Uiso   1.00
C205   C     0.02315   0.84210   0.23785   0.00000  Uiso   1.00
C206   C     0.97605   0.83407   0.17170   0.00000  Uiso   1.00
C207   C     0.06650   0.84604   0.11809   0.00000  Uiso   1.00
H208   H     0.28918   0.88220   0.33578   0.00000  Uiso   1.00
H209   H     0.41912   0.83433   0.40620   0.00000  Uiso   1.00
H210   H     0.13635   0.92938   0.39861   0.00000  Uiso   1.00
H211   H     0.34912   0.88831   0.20594   0.00000  Uiso   1.00
H212   H     0.50464   0.77276   0.47893   0.00000  Uiso   1.00
H213   H     0.90839   0.97317   0.46290   0.00000  Uiso   1.00
H214   H     0.35705   0.88658   0.05662   0.00000  Uiso   1.00
H215   H     0.83813   0.81662   0.29441   0.00000  Uiso   1.00
H216   H     0.94333   0.76515   0.36256   0.00000  Uiso   1.00
H217   H     0.66056   0.86020   0.35497   0.00000  Uiso   1.00
H218   H     0.87333   0.81914   0.16230   0.00000  Uiso   1.00
H219   H     0.11847   0.71661   0.44351   0.00000  Uiso   1.00
H220   H     0.52222   0.91702   0.42749   0.00000  Uiso   1.00
H221   H     0.97088   0.83043   0.02120   0.00000  Uiso   1.00
O222   O     0.38887   0.71201   0.50682   0.00000  Uiso   1.00
O223   O     0.60663   0.97494   0.48578   0.00000  Uiso   1.00
O224   O     0.19526   0.86134   0.95275   0.00000  Uiso   1.00
N225   N     0.39933   0.76660   0.46123   0.00000  Uiso   1.00
N226   N     0.84188   0.95397   0.44626   0.00000  Uiso   1.00
N227   N     0.26132   0.87303   0.06641   0.00000  Uiso   1.00
N228   N     0.19153   0.73639   0.44217   0.00000  Uiso   1.00
N229   N     0.63408   0.92376   0.42720   0.00000  Uiso   1.00
N230   N     0.05352   0.84281   0.04735   0.00000  Uiso   1.00
C231   C     0.31415   0.13282   0.32630   0.00000  Uiso   1.00
C232   C     0.30609   0.16793   0.35882   0.00000  Uiso   1.00
C233   C     0.18357   0.18061   0.39678   0.00000  Uiso   1.00
C234   C     0.19849   0.21331   0.42218   0.00000  Uiso   1.00
C235   C     0.16581   0.26488   0.47456   0.00000  Uiso   1.00
C236   C     0.45973   0.11629   0.35470   0.00000  Uiso   1.00
C237   C     0.46638   0.08555   0.38920   0.00000  Uiso   1.00
C238   C     0.61064   0.07479   0.41113   0.00000  Uiso   1.00
C239   C     0.81650   0.04617   0.45707   0.00000  Uiso   1.00
C240   C     0.34411   0.13860   0.25002   0.00000  Uiso   1.00
C241   C     0.25358   0.12662   0.19650   0.00000  Uiso   1.00
C242   C     0.30053   0.13463   0.13028   0.00000  Uiso   1.00
C243   C     0.32688   0.14066   0.01369   0.00000  Uiso   1.00
C244   C     0.55852   0.16835   0.30389   0.00000  Uiso   1.00
C245   C     0.43883   0.18722   0.34665   0.00000  Uiso   1.00
C246   C     0.45394   0.21992   0.37199   0.00000  Uiso   1.00
C247   C     0.33146   0.23265   0.40998   0.00000  Uiso   1.00
C248   C     0.59246   0.13558   0.34253   0.00000  Uiso   1.00
C249   C     0.73674   0.12486   0.36441   0.00000  Uiso   1.00
C250   C     0.74361   0.09412   0.39893   0.00000  Uiso   1.00
C251   C     0.47685   0.15790   0.23785   0.00000  Uiso   1.00
C252   C     0.52395   0.16593   0.17170   0.00000  Uiso   1.00
C253   C     0.43350   0.15396   0.11809   0.00000  Uiso   1.00
H254   H     0.21082   0.11780   0.33578   0.00000  Uiso   1.00
H255   H     0.08088   0.16567   0.40620   0.00000  Uiso   1.00
H256   H     0.36365   0.07062   0.39861   0.00000  Uiso   1.00
H257   H     0.15088   0.11169   0.20594   0.00000  Uiso   1.00
H258   H     0.99536   0.22724   0.47893   0.00000  Uiso   1.00
H259   H     0.59161   0.02683   0.46290   0.00000  Uiso   1.00
H260   H     0.14295   0.11342   0.05662   0.00000  Uiso   1.00
H261   H     0.66187   0.18338   0.29441   0.00000  Uiso   1.00
H262   H     0.55667   0.23485   0.36256   0.00000  Uiso   1.00
H263   H     0.83944   0.13980   0.35497   0.00000  Uiso   1.00
H264   H     0.62667   0.18086   0.16230   0.00000  Uiso   1.00
H265   H     0.38153   0.28339   0.44351   0.00000  Uiso   1.00
H266   H     0.97778   0.08298   0.42749   0.00000  Uiso   1.00
H267   H     0.52912   0.16957   0.02120   0.00000  Uiso   1.00
O268   O     0.11113   0.28799   0.50682   0.00000  Uiso   1.00
O269   O     0.89337   0.02506   0.48578   0.00000  Uiso   1.00
O270   O     0.30474   0.13866   0.95275   0.00000  Uiso   1.00
N271   N     0.10067   0.23340   0.46123   0.00000  Uiso   1.00
N272   N     0.65812   0.04603   0.44626   0.00000  Uiso   1.00
N273   N     0.23868   0.12697   0.06641   0.00000  Uiso   1.00
N274   N     0.30847   0.26361   0.44217   0.00000  Uiso   1.00
N275   N     0.86592   0.07624   0.42720   0.00000  Uiso   1.00
N276   N     0.44648   0.15719   0.04735   0.00000  Uiso   1.00
C277   C     0.31415   0.36718   0.17370   0.00000  Uiso   1.00
C278   C     0.30609   0.33207   0.14118   0.00000  Uiso   1.00
C279   C     0.18357   0.31939   0.10322   0.00000  Uiso   1.00
C280   C     0.19849   0.28669   0.07782   0.00000  Uiso   1.00
C281   C     0.16581   0.23512   0.02544   0.00000  Uiso   1.00
C282   C     0.45973   0.38371   0.14530   0.00000  Uiso   1.00
C283   C     0.46638   0.41445   0.11080   0.00000  Uiso   1.00
C284   C     0.61064   0.42521   0.08887   0.00000  Uiso   1.00
C285   C     0.81650   0.45383   0.04293   0.00000  Uiso   1.00
C286   C     0.34411   0.36140   0.24998   0.00000  Uiso   1.00
C287   C     0.25358   0.37338   0.30350   0.00000  Uiso   1.00
C288   C     0.30053   0.36537   0.36972   0.00000  Uiso   1.00
C289   C     0.32688   0.35934   0.48631   0.00000  Uiso   1.00
C290   C     0.55852   0.33165   0.19611   0.00000  Uiso   1.00
C291   C     0.43883   0.31278   0.15335   0.00000  Uiso   1.00
C292   C     0.45394   0.28008   0.12801   0.00000  Uiso   1.00
C293   C     0.33146   0.26735   0.09002   0.00000  Uiso   1.00
C294   C     0.59246   0.36442   0.15747   0.00000  Uiso   1.00
C295   C     0.73674   0.37514   0.13559   0.00000  Uiso   1.00
C296   C     0.74361   0.40588   0.10107   0.00000  Uiso   1.00
C297   C     0.47685   0.34210   0.26215   0.00000  Uiso   1.00
C298   C     0.52395   0.33407   0.32830   0.00000  Uiso   1.00
C299   C     0.43350   0.34604   0.38191   0.00000  Uiso   1.00
H300   H     0.21082   0.38220   0.16422   0.00000  Uiso   1.00
H301   H     0.08088   0.33433   0.09380   0.00000  Uiso   1.00
H302   H     0.36365   0.42938   0.10139   0.00000  Uiso   1.00
H303   H     0.15088   0.38831   0.29406   0.00000  Uiso   1.00
H304   H     0.99536   0.27276   0.02107   0.00000  Uiso   1.00
H305   H     0.59161   0.47317   0.03710   0.00000  Uiso   1.00
H306   H     0.14295   0.38658   0.44338   0.00000  Uiso   1.00
H307   H     0.66187   0.31662   0.20559   0.00000  Uiso   1.00
H308   H     0.55667   0.26515   0.13744   0.00000  Uiso   1.00
H309   H     0.83944   0.36020   0.14503   0.00000  Uiso   1.00
H310   H     0.62667   0.31914   0.33770   0.00000  Uiso   1.00
H311   H     0.38153   0.21661   0.05649   0.00000  Uiso   1.00
H312   H     0.97778   0.41702   0.07251   0.00000  Uiso   1.00
H313   H     0.52912   0.33043   0.47880   0.00000  Uiso   1.00
O314   O     0.11113   0.21201   0.99318   0.00000  Uiso   1.00
O315   O     0.89337   0.47494   0.01422   0.00000  Uiso   1.00
O316   O     0.30474   0.36134   0.54725   0.00000  Uiso   1.00
N317   N     0.10067   0.26660   0.03877   0.00000  Uiso   1.00
N318   N     0.65812   0.45397   0.05374   0.00000  Uiso   1.00
N319   N     0.23868   0.37303   0.43359   0.00000  Uiso   1.00
N320   N     0.30847   0.23639   0.05783   0.00000  Uiso   1.00
N321   N     0.86592   0.42376   0.07280   0.00000  Uiso   1.00
N322   N     0.44648   0.34281   0.45265   0.00000  Uiso   1.00
C323   C     0.18585   0.63282   0.17370   0.00000  Uiso   1.00
C324   C     0.19391   0.66793   0.14118   0.00000  Uiso   1.00
C325   C     0.31643   0.68061   0.10322   0.00000  Uiso   1.00
C326   C     0.30151   0.71331   0.07782   0.00000  Uiso   1.00
C327   C     0.33419   0.76488   0.02544   0.00000  Uiso   1.00
C328   C     0.04027   0.61629   0.14530   0.00000  Uiso   1.00
C329   C     0.03362   0.58555   0.11080   0.00000  Uiso   1.00
C330   C     0.88936   0.57479   0.08887   0.00000  Uiso   1.00
C331   C     0.68350   0.54617   0.04293   0.00000  Uiso   1.00
C332   C     0.15589   0.63860   0.24998   0.00000  Uiso   1.00
C333   C     0.24642   0.62662   0.30350   0.00000  Uiso   1.00
C334   C     0.19947   0.63463   0.36972   0.00000  Uiso   1.00
C335   C     0.17312   0.64066   0.48631   0.00000  Uiso   1.00
C336   C     0.94148   0.66835   0.19611   0.00000  Uiso   1.00
C337   C     0.06117   0.68722   0.15335   0.00000  Uiso   1.00
C338   C     0.04606   0.71992   0.12801   0.00000  Uiso   1.00
C339   C     0.16854   0.73265   0.09002   0.00000  Uiso   1.00
C340   C     0.90754   0.63558   0.15747   0.00000  Uiso   1.00
C341   C     0.76326   0.62486   0.13559   0.00000  Uiso   1.00
C342   C     0.75639   0.59412   0.10107   0.00000  Uiso   1.00
C343   C     0.02315   0.65790   0.26215   0.00000  Uiso   1.00
C344   C     0.97605   0.66593   0.32830   0.00000  Uiso   1.00
C345   C     0.06650   0.65396   0.38191   0.00000  Uiso   1.00
H346   H     0.28918   0.61780   0.16422   0.00000  Uiso   1.00
H347   H     0.41912   0.66567   0.09380   0.00000  Uiso   1.00
H348   H     0.13635   0.57062   0.10139   0.00000  Uiso   1.00
H349   H     0.34912   0.61169   0.29406   0.00000  Uiso   1.00
H350   H     0.50464   0.72724   0.02107   0.00000  Uiso   1.00
H351   H     0.90839   0.52683   0.03710   0.00000  Uiso   1.00
H352   H     0.35705   0.61342   0.44338   0.00000  Uiso   1.00
H353   H     0.83813   0.68338   0.20559   0.00000  Uiso   1.00
H354   H     0.94333   0.73485   0.13744   0.00000  Uiso   1.00
H355   H     0.66056   0.63980   0.14503   0.00000  Uiso   1.00
H356   H     0.87333   0.68086   0.33770   0.00000  Uiso   1.00
H357   H     0.11847   0.78339   0.05649   0.00000  Uiso   1.00
H358   H     0.52222   0.58298   0.07251   0.00000  Uiso   1.00
H359   H     0.97088   0.66957   0.47880   0.00000  Uiso   1.00
O360   O     0.38887   0.78799   0.99318   0.00000  Uiso   1.00
O361   O     0.60663   0.52506   0.01422   0.00000  Uiso   1.00
O362   O     0.19526   0.63866   0.54725   0.00000  Uiso   1.00
N363   N     0.39933   0.73340   0.03877   0.00000  Uiso   1.00
N364   N     0.84188   0.54603   0.05374   0.00000  Uiso   1.00
N365   N     0.26132   0.62697   0.43359   0.00000  Uiso   1.00
N366   N     0.19153   0.76361   0.05783   0.00000  Uiso   1.00
N367   N     0.63408   0.57624   0.07280   0.00000  Uiso   1.00
N368   N     0.05352   0.65719   0.45265   0.00000  Uiso   1.00
