data_job_05391
_audit_creation_date              2018-12-19
_audit_creation_method            'Materials Studio'
_symmetry_space_group_name_H-M    'P1'
_symmetry_Int_Tables_number       1
_symmetry_cell_setting            triclinic
loop_
_symmetry_equiv_pos_as_xyz
  x,y,z
_cell_length_a                    13.7789
_cell_length_b                    10.7996
_cell_length_c                    30.4660
_cell_angle_alpha                 90.0000
_cell_angle_beta                  90.0000
_cell_angle_gamma                 90.0000
loop_
_atom_site_label
_atom_site_type_symbol
_atom_site_fract_x
_atom_site_fract_y
_atom_site_fract_z
_atom_site_U_iso_or_equiv
_atom_site_adp_type
_atom_site_occupancy
C1     C     0.55993   0.48342   0.13106   0.00000  Uiso   1.00
C2     C     0.60687   0.52611   0.08833   0.00000  Uiso   1.00
C3     C     0.56663   0.60844   0.05846   0.00000  Uiso   1.00
C4     C     0.62108   0.63565   0.02135   0.00000  Uiso   1.00
C5     C     0.68003   0.71000   0.95605   0.00000  Uiso   1.00
C6     C     0.55613   0.34245   0.12870   0.00000  Uiso   1.00
C7     C     0.47324   0.27037   0.13278   0.00000  Uiso   1.00
C8     C     0.48498   0.14299   0.12966   0.00000  Uiso   1.00
C9     C     0.46517   0.93220   0.12707   0.00000  Uiso   1.00
C10    C     0.63209   0.51448   0.16737   0.00000  Uiso   1.00
C11    C     0.61307   0.58701   0.20398   0.00000  Uiso   1.00
C12    C     0.68876   0.60444   0.23342   0.00000  Uiso   1.00
C13    C     0.78689   0.66075   0.29087   0.00000  Uiso   1.00
C14    C     0.72818   0.38536   0.11826   0.00000  Uiso   1.00
C15    C     0.69825   0.47284   0.08138   0.00000  Uiso   1.00
C16    C     0.75278   0.49995   0.04430   0.00000  Uiso   1.00
C17    C     0.71263   0.58230   0.01438   0.00000  Uiso   1.00
C18    C     0.64751   0.28919   0.12175   0.00000  Uiso   1.00
C19    C     0.65938   0.16189   0.11862   0.00000  Uiso   1.00
C20    C     0.57653   0.08963   0.12270   0.00000  Uiso   1.00
C21    C     0.72348   0.46122   0.16042   0.00000  Uiso   1.00
C22    C     0.79921   0.47853   0.18982   0.00000  Uiso   1.00
C23    C     0.78031   0.55108   0.22646   0.00000  Uiso   1.00
H24    H     0.48879   0.52487   0.13647   0.00000  Uiso   1.00
H25    H     0.49590   0.64962   0.06385   0.00000  Uiso   1.00
H26    H     0.40253   0.31161   0.13816   0.00000  Uiso   1.00
H27    H     0.54234   0.62821   0.20934   0.00000  Uiso   1.00
H28    H     0.54408   0.76441   0.98026   0.00000  Uiso   1.00
H29    H     0.34720   0.05169   0.13697   0.00000  Uiso   1.00
H30    H     0.64201   0.71930   0.28708   0.00000  Uiso   1.00
H31    H     0.79933   0.34389   0.11285   0.00000  Uiso   1.00
H32    H     0.82349   0.45872   0.03893   0.00000  Uiso   1.00
H33    H     0.73011   0.12070   0.11325   0.00000  Uiso   1.00
H34    H     0.86992   0.43730   0.18443   0.00000  Uiso   1.00
H35    H     0.80996   0.60946   0.96004   0.00000  Uiso   1.00
H36    H     0.61307   0.89674   0.11676   0.00000  Uiso   1.00
H37    H     0.90789   0.56435   0.26685   0.00000  Uiso   1.00
O38    O     0.68730   0.76570   0.92194   0.00000  Uiso   1.00
O39    O     0.42900   0.83065   0.12756   0.00000  Uiso   1.00
O40    O     0.81579   0.70653   0.32448   0.00000  Uiso   1.00
N41    N     0.60335   0.71220   0.98565   0.00000  Uiso   1.00
N42    N     0.41927   0.04586   0.13216   0.00000  Uiso   1.00
N43    N     0.69489   0.66998   0.27250   0.00000  Uiso   1.00
N44    N     0.74642   0.62883   0.97477   0.00000  Uiso   1.00
N45    N     0.56234   0.96248   0.12128   0.00000  Uiso   1.00
N46    N     0.83796   0.58661   0.26162   0.00000  Uiso   1.00
C47    C     0.41597   0.84915   0.87759   0.00000  Uiso   1.00
C48    C     0.35838   0.89780   0.91670   0.00000  Uiso   1.00
C49    C     0.39469   0.97185   0.95011   0.00000  Uiso   1.00
C50    C     0.33033   0.00657   0.98294   0.00000  Uiso   1.00
C51    C     0.25570   0.08783   0.04377   0.00000  Uiso   1.00
C52    C     0.40500   0.70867   0.87855   0.00000  Uiso   1.00
C53    C     0.48051   0.62371   0.87987   0.00000  Uiso   1.00
C54    C     0.45539   0.49922   0.88058   0.00000  Uiso   1.00
C55    C     0.45315   0.28686   0.88215   0.00000  Uiso   1.00
C56    C     0.36194   0.89300   0.83676   0.00000  Uiso   1.00
C57    C     0.40125   0.96299   0.80295   0.00000  Uiso   1.00
C58    C     0.33989   0.99367   0.76848   0.00000  Uiso   1.00
C59    C     0.27079   0.06750   0.70517   0.00000  Uiso   1.00
C60    C     0.23709   0.77914   0.87649   0.00000  Uiso   1.00
C61    C     0.26122   0.85976   0.91610   0.00000  Uiso   1.00
C62    C     0.19679   0.89439   0.94889   0.00000  Uiso   1.00
C63    C     0.23300   0.96848   0.98234   0.00000  Uiso   1.00
C64    C     0.30784   0.67064   0.87795   0.00000  Uiso   1.00
C65    C     0.28261   0.54625   0.87865   0.00000  Uiso   1.00
C66    C     0.35806   0.46112   0.87998   0.00000  Uiso   1.00
C67    C     0.26478   0.85497   0.83616   0.00000  Uiso   1.00
C68    C     0.20335   0.88553   0.80173   0.00000  Uiso   1.00
C69    C     0.24255   0.95557   0.76788   0.00000  Uiso   1.00
H70    H     0.49161   0.87875   0.87805   0.00000  Uiso   1.00
H71    H     0.46989   0.00125   0.95056   0.00000  Uiso   1.00
H72    H     0.55569   0.65317   0.88033   0.00000  Uiso   1.00
H73    H     0.47644   0.99240   0.80342   0.00000  Uiso   1.00
H74    H     0.40297   0.12025   0.03070   0.00000  Uiso   1.00
H75    H     0.58389   0.38630   0.88260   0.00000  Uiso   1.00
H76    H     0.41678   0.10164   0.72042   0.00000  Uiso   1.00
H77    H     0.16145   0.74953   0.87602   0.00000  Uiso   1.00
H78    H     0.12160   0.86494   0.94842   0.00000  Uiso   1.00
H79    H     0.20741   0.51685   0.87819   0.00000  Uiso   1.00
H80    H     0.12816   0.85609   0.80128   0.00000  Uiso   1.00
H81    H     0.12029   0.00961   0.02896   0.00000  Uiso   1.00
H82    H     0.30122   0.27566   0.88086   0.00000  Uiso   1.00
H83    H     0.13410   0.99100   0.71868   0.00000  Uiso   1.00
O84    O     0.24139   0.14315   0.07750   0.00000  Uiso   1.00
O85    O     0.47875   0.18024   0.88319   0.00000  Uiso   1.00
O86    O     0.25951   0.11875   0.67042   0.00000  Uiso   1.00
N87    N     0.34190   0.07839   0.02035   0.00000  Uiso   1.00
N88    N     0.51105   0.39219   0.88189   0.00000  Uiso   1.00
N89    N     0.35483   0.06095   0.73026   0.00000  Uiso   1.00
N90    N     0.18980   0.01886   0.01941   0.00000  Uiso   1.00
N91    N     0.35895   0.33266   0.88095   0.00000  Uiso   1.00
N92    N     0.20272   0.00142   0.72933   0.00000  Uiso   1.00
C93    C     0.44007   0.51658   0.63106   0.00000  Uiso   1.00
C94    C     0.39313   0.47389   0.58833   0.00000  Uiso   1.00
C95    C     0.43337   0.39156   0.55846   0.00000  Uiso   1.00
C96    C     0.37892   0.36435   0.52135   0.00000  Uiso   1.00
C97    C     0.31997   0.29000   0.45605   0.00000  Uiso   1.00
C98    C     0.44387   0.65755   0.62870   0.00000  Uiso   1.00
C99    C     0.52676   0.72963   0.63278   0.00000  Uiso   1.00
C100   C     0.51502   0.85701   0.62966   0.00000  Uiso   1.00
C101   C     0.53483   0.06780   0.62707   0.00000  Uiso   1.00
C102   C     0.36791   0.48552   0.66737   0.00000  Uiso   1.00
C103   C     0.38693   0.41299   0.70398   0.00000  Uiso   1.00
C104   C     0.31124   0.39556   0.73342   0.00000  Uiso   1.00
C105   C     0.21311   0.33925   0.79087   0.00000  Uiso   1.00
C106   C     0.27182   0.61464   0.61826   0.00000  Uiso   1.00
C107   C     0.30175   0.52716   0.58138   0.00000  Uiso   1.00
C108   C     0.24722   0.50005   0.54430   0.00000  Uiso   1.00
C109   C     0.28737   0.41770   0.51438   0.00000  Uiso   1.00
C110   C     0.35249   0.71081   0.62175   0.00000  Uiso   1.00
C111   C     0.34062   0.83811   0.61862   0.00000  Uiso   1.00
C112   C     0.42347   0.91037   0.62270   0.00000  Uiso   1.00
C113   C     0.27652   0.53878   0.66042   0.00000  Uiso   1.00
C114   C     0.20079   0.52147   0.68982   0.00000  Uiso   1.00
C115   C     0.21969   0.44892   0.72646   0.00000  Uiso   1.00
H116   H     0.51121   0.47513   0.63647   0.00000  Uiso   1.00
H117   H     0.50410   0.35038   0.56385   0.00000  Uiso   1.00
H118   H     0.59747   0.68839   0.63816   0.00000  Uiso   1.00
H119   H     0.45766   0.37179   0.70934   0.00000  Uiso   1.00
H120   H     0.45592   0.23559   0.48026   0.00000  Uiso   1.00
H121   H     0.65280   0.94831   0.63697   0.00000  Uiso   1.00
H122   H     0.35799   0.28070   0.78708   0.00000  Uiso   1.00
H123   H     0.20067   0.65611   0.61285   0.00000  Uiso   1.00
H124   H     0.17651   0.54128   0.53893   0.00000  Uiso   1.00
H125   H     0.26989   0.87930   0.61325   0.00000  Uiso   1.00
H126   H     0.13008   0.56270   0.68443   0.00000  Uiso   1.00
H127   H     0.19004   0.39054   0.46004   0.00000  Uiso   1.00
H128   H     0.38693   0.10326   0.61676   0.00000  Uiso   1.00
H129   H     0.09211   0.43565   0.76685   0.00000  Uiso   1.00
O130   O     0.31270   0.23430   0.42194   0.00000  Uiso   1.00
O131   O     0.57100   0.16935   0.62756   0.00000  Uiso   1.00
O132   O     0.18421   0.29347   0.82448   0.00000  Uiso   1.00
N133   N     0.39665   0.28780   0.48565   0.00000  Uiso   1.00
N134   N     0.58073   0.95414   0.63216   0.00000  Uiso   1.00
N135   N     0.30511   0.33002   0.77250   0.00000  Uiso   1.00
N136   N     0.25358   0.37117   0.47477   0.00000  Uiso   1.00
N137   N     0.43766   0.03752   0.62128   0.00000  Uiso   1.00
N138   N     0.16204   0.41339   0.76162   0.00000  Uiso   1.00
C139   C     0.58403   0.15085   0.37759   0.00000  Uiso   1.00
C140   C     0.64162   0.10220   0.41670   0.00000  Uiso   1.00
C141   C     0.60531   0.02815   0.45011   0.00000  Uiso   1.00
C142   C     0.66967   0.99343   0.48294   0.00000  Uiso   1.00
C143   C     0.74430   0.91217   0.54377   0.00000  Uiso   1.00
C144   C     0.59500   0.29133   0.37855   0.00000  Uiso   1.00
C145   C     0.51949   0.37629   0.37987   0.00000  Uiso   1.00
C146   C     0.54461   0.50078   0.38058   0.00000  Uiso   1.00
C147   C     0.54685   0.71314   0.38215   0.00000  Uiso   1.00
C148   C     0.63806   0.10700   0.33676   0.00000  Uiso   1.00
C149   C     0.59875   0.03701   0.30295   0.00000  Uiso   1.00
C150   C     0.66011   0.00633   0.26848   0.00000  Uiso   1.00
C151   C     0.72921   0.93250   0.20517   0.00000  Uiso   1.00
C152   C     0.76291   0.22086   0.37649   0.00000  Uiso   1.00
C153   C     0.73878   0.14024   0.41610   0.00000  Uiso   1.00
C154   C     0.80321   0.10561   0.44889   0.00000  Uiso   1.00
C155   C     0.76700   0.03152   0.48234   0.00000  Uiso   1.00
C156   C     0.69216   0.32936   0.37795   0.00000  Uiso   1.00
C157   C     0.71739   0.45375   0.37865   0.00000  Uiso   1.00
C158   C     0.64194   0.53888   0.37998   0.00000  Uiso   1.00
C159   C     0.73522   0.14503   0.33616   0.00000  Uiso   1.00
C160   C     0.79665   0.11447   0.30173   0.00000  Uiso   1.00
C161   C     0.75745   0.04443   0.26788   0.00000  Uiso   1.00
H162   H     0.50839   0.12125   0.37805   0.00000  Uiso   1.00
H163   H     0.53011   0.99875   0.45056   0.00000  Uiso   1.00
H164   H     0.44431   0.34683   0.38033   0.00000  Uiso   1.00
H165   H     0.52356   0.00760   0.30342   0.00000  Uiso   1.00
H166   H     0.59703   0.87975   0.53070   0.00000  Uiso   1.00
H167   H     0.41611   0.61370   0.38260   0.00000  Uiso   1.00
H168   H     0.58322   0.89836   0.22042   0.00000  Uiso   1.00
H169   H     0.83855   0.25047   0.37602   0.00000  Uiso   1.00
H170   H     0.87840   0.13506   0.44842   0.00000  Uiso   1.00
H171   H     0.79259   0.48315   0.37819   0.00000  Uiso   1.00
H172   H     0.87184   0.14391   0.30128   0.00000  Uiso   1.00
H173   H     0.87971   0.99039   0.52896   0.00000  Uiso   1.00
H174   H     0.69878   0.72434   0.38086   0.00000  Uiso   1.00
H175   H     0.86590   0.00900   0.21868   0.00000  Uiso   1.00
O176   O     0.75861   0.85685   0.57750   0.00000  Uiso   1.00
O177   O     0.52125   0.81976   0.38319   0.00000  Uiso   1.00
O178   O     0.74049   0.88125   0.17042   0.00000  Uiso   1.00
N179   N     0.65810   0.92161   0.52035   0.00000  Uiso   1.00
N180   N     0.48895   0.60781   0.38189   0.00000  Uiso   1.00
N181   N     0.64517   0.93905   0.23026   0.00000  Uiso   1.00
N182   N     0.81020   0.98114   0.51941   0.00000  Uiso   1.00
N183   N     0.64105   0.66734   0.38095   0.00000  Uiso   1.00
N184   N     0.79728   0.99858   0.22933   0.00000  Uiso   1.00
C185   C     0.05993   0.51658   0.13106   0.00000  Uiso   1.00
C186   C     0.10687   0.47389   0.08833   0.00000  Uiso   1.00
C187   C     0.06663   0.39156   0.05846   0.00000  Uiso   1.00
C188   C     0.12108   0.36435   0.02135   0.00000  Uiso   1.00
C189   C     0.18003   0.29000   0.95605   0.00000  Uiso   1.00
C190   C     0.05613   0.65755   0.12870   0.00000  Uiso   1.00
C191   C     0.97324   0.72963   0.13278   0.00000  Uiso   1.00
C192   C     0.98498   0.85701   0.12966   0.00000  Uiso   1.00
C193   C     0.96517   0.06780   0.12707   0.00000  Uiso   1.00
C194   C     0.13209   0.48552   0.16737   0.00000  Uiso   1.00
C195   C     0.11307   0.41299   0.20398   0.00000  Uiso   1.00
C196   C     0.18876   0.39556   0.23342   0.00000  Uiso   1.00
C197   C     0.28689   0.33925   0.29087   0.00000  Uiso   1.00
C198   C     0.22818   0.61464   0.11826   0.00000  Uiso   1.00
C199   C     0.19825   0.52716   0.08138   0.00000  Uiso   1.00
C200   C     0.25278   0.50005   0.04430   0.00000  Uiso   1.00
C201   C     0.21263   0.41770   0.01438   0.00000  Uiso   1.00
C202   C     0.14751   0.71081   0.12175   0.00000  Uiso   1.00
C203   C     0.15938   0.83811   0.11862   0.00000  Uiso   1.00
C204   C     0.07653   0.91037   0.12270   0.00000  Uiso   1.00
C205   C     0.22348   0.53878   0.16042   0.00000  Uiso   1.00
C206   C     0.29921   0.52147   0.18982   0.00000  Uiso   1.00
C207   C     0.28031   0.44892   0.22646   0.00000  Uiso   1.00
H208   H     0.98879   0.47513   0.13647   0.00000  Uiso   1.00
H209   H     0.99590   0.35038   0.06385   0.00000  Uiso   1.00
H210   H     0.90253   0.68839   0.13816   0.00000  Uiso   1.00
H211   H     0.04234   0.37179   0.20934   0.00000  Uiso   1.00
H212   H     0.04408   0.23559   0.98026   0.00000  Uiso   1.00
H213   H     0.84720   0.94831   0.13697   0.00000  Uiso   1.00
H214   H     0.14201   0.28070   0.28708   0.00000  Uiso   1.00
H215   H     0.29933   0.65611   0.11285   0.00000  Uiso   1.00
H216   H     0.32349   0.54128   0.03893   0.00000  Uiso   1.00
H217   H     0.23011   0.87930   0.11325   0.00000  Uiso   1.00
H218   H     0.36992   0.56270   0.18443   0.00000  Uiso   1.00
H219   H     0.30996   0.39054   0.96004   0.00000  Uiso   1.00
H220   H     0.11307   0.10326   0.11676   0.00000  Uiso   1.00
H221   H     0.40789   0.43565   0.26685   0.00000  Uiso   1.00
O222   O     0.18730   0.23430   0.92194   0.00000  Uiso   1.00
O223   O     0.92900   0.16935   0.12756   0.00000  Uiso   1.00
O224   O     0.31579   0.29347   0.32448   0.00000  Uiso   1.00
N225   N     0.10335   0.28780   0.98565   0.00000  Uiso   1.00
N226   N     0.91927   0.95414   0.13216   0.00000  Uiso   1.00
N227   N     0.19489   0.33002   0.27250   0.00000  Uiso   1.00
N228   N     0.24642   0.37117   0.97477   0.00000  Uiso   1.00
N229   N     0.06234   0.03752   0.12128   0.00000  Uiso   1.00
N230   N     0.33796   0.41339   0.26162   0.00000  Uiso   1.00
C231   C     0.91597   0.15085   0.87759   0.00000  Uiso   1.00
C232   C     0.85838   0.10220   0.91670   0.00000  Uiso   1.00
C233   C     0.89469   0.02815   0.95011   0.00000  Uiso   1.00
C234   C     0.83033   0.99343   0.98294   0.00000  Uiso   1.00
C235   C     0.75570   0.91217   0.04377   0.00000  Uiso   1.00
C236   C     0.90500   0.29133   0.87855   0.00000  Uiso   1.00
C237   C     0.98051   0.37629   0.87987   0.00000  Uiso   1.00
C238   C     0.95539   0.50078   0.88058   0.00000  Uiso   1.00
C239   C     0.95315   0.71314   0.88215   0.00000  Uiso   1.00
C240   C     0.86194   0.10700   0.83676   0.00000  Uiso   1.00
C241   C     0.90125   0.03701   0.80295   0.00000  Uiso   1.00
C242   C     0.83989   0.00633   0.76848   0.00000  Uiso   1.00
C243   C     0.77079   0.93250   0.70517   0.00000  Uiso   1.00
C244   C     0.73709   0.22086   0.87649   0.00000  Uiso   1.00
C245   C     0.76122   0.14024   0.91610   0.00000  Uiso   1.00
C246   C     0.69679   0.10561   0.94889   0.00000  Uiso   1.00
C247   C     0.73300   0.03152   0.98234   0.00000  Uiso   1.00
C248   C     0.80784   0.32936   0.87795   0.00000  Uiso   1.00
C249   C     0.78261   0.45375   0.87865   0.00000  Uiso   1.00
C250   C     0.85806   0.53888   0.87998   0.00000  Uiso   1.00
C251   C     0.76478   0.14503   0.83616   0.00000  Uiso   1.00
C252   C     0.70335   0.11447   0.80173   0.00000  Uiso   1.00
C253   C     0.74255   0.04443   0.76788   0.00000  Uiso   1.00
H254   H     0.99161   0.12125   0.87805   0.00000  Uiso   1.00
H255   H     0.96989   0.99875   0.95056   0.00000  Uiso   1.00
H256   H     0.05569   0.34683   0.88033   0.00000  Uiso   1.00
H257   H     0.97644   0.00760   0.80342   0.00000  Uiso   1.00
H258   H     0.90297   0.87975   0.03070   0.00000  Uiso   1.00
H259   H     0.08389   0.61370   0.88260   0.00000  Uiso   1.00
H260   H     0.91678   0.89836   0.72042   0.00000  Uiso   1.00
H261   H     0.66145   0.25047   0.87602   0.00000  Uiso   1.00
H262   H     0.62160   0.13506   0.94842   0.00000  Uiso   1.00
H263   H     0.70741   0.48315   0.87819   0.00000  Uiso   1.00
H264   H     0.62816   0.14391   0.80128   0.00000  Uiso   1.00
H265   H     0.62029   0.99039   0.02896   0.00000  Uiso   1.00
H266   H     0.80122   0.72434   0.88086   0.00000  Uiso   1.00
H267   H     0.63410   0.00900   0.71868   0.00000  Uiso   1.00
O268   O     0.74139   0.85685   0.07750   0.00000  Uiso   1.00
O269   O     0.97875   0.81976   0.88319   0.00000  Uiso   1.00
O270   O     0.75951   0.88125   0.67042   0.00000  Uiso   1.00
N271   N     0.84190   0.92161   0.02035   0.00000  Uiso   1.00
N272   N     0.01105   0.60781   0.88189   0.00000  Uiso   1.00
N273   N     0.85483   0.93905   0.73026   0.00000  Uiso   1.00
N274   N     0.68980   0.98114   0.01941   0.00000  Uiso   1.00
N275   N     0.85895   0.66734   0.88095   0.00000  Uiso   1.00
N276   N     0.70272   0.99858   0.72933   0.00000  Uiso   1.00
C277   C     0.94007   0.48342   0.63106   0.00000  Uiso   1.00
C278   C     0.89313   0.52611   0.58833   0.00000  Uiso   1.00
C279   C     0.93337   0.60844   0.55846   0.00000  Uiso   1.00
C280   C     0.87892   0.63565   0.52135   0.00000  Uiso   1.00
C281   C     0.81997   0.71000   0.45605   0.00000  Uiso   1.00
C282   C     0.94387   0.34245   0.62870   0.00000  Uiso   1.00
C283   C     0.02676   0.27037   0.63278   0.00000  Uiso   1.00
C284   C     0.01502   0.14299   0.62966   0.00000  Uiso   1.00
C285   C     0.03483   0.93220   0.62707   0.00000  Uiso   1.00
C286   C     0.86791   0.51448   0.66737   0.00000  Uiso   1.00
C287   C     0.88693   0.58701   0.70398   0.00000  Uiso   1.00
C288   C     0.81124   0.60444   0.73342   0.00000  Uiso   1.00
C289   C     0.71311   0.66075   0.79087   0.00000  Uiso   1.00
C290   C     0.77182   0.38536   0.61826   0.00000  Uiso   1.00
C291   C     0.80175   0.47284   0.58138   0.00000  Uiso   1.00
C292   C     0.74722   0.49995   0.54430   0.00000  Uiso   1.00
C293   C     0.78737   0.58230   0.51438   0.00000  Uiso   1.00
C294   C     0.85249   0.28919   0.62175   0.00000  Uiso   1.00
C295   C     0.84062   0.16189   0.61862   0.00000  Uiso   1.00
C296   C     0.92347   0.08963   0.62270   0.00000  Uiso   1.00
C297   C     0.77652   0.46122   0.66042   0.00000  Uiso   1.00
C298   C     0.70079   0.47853   0.68982   0.00000  Uiso   1.00
C299   C     0.71969   0.55108   0.72646   0.00000  Uiso   1.00
H300   H     0.01121   0.52487   0.63647   0.00000  Uiso   1.00
H301   H     0.00410   0.64962   0.56385   0.00000  Uiso   1.00
H302   H     0.09747   0.31161   0.63816   0.00000  Uiso   1.00
H303   H     0.95766   0.62821   0.70934   0.00000  Uiso   1.00
H304   H     0.95592   0.76441   0.48026   0.00000  Uiso   1.00
H305   H     0.15280   0.05169   0.63697   0.00000  Uiso   1.00
H306   H     0.85799   0.71930   0.78708   0.00000  Uiso   1.00
H307   H     0.70067   0.34389   0.61285   0.00000  Uiso   1.00
H308   H     0.67651   0.45872   0.53893   0.00000  Uiso   1.00
H309   H     0.76989   0.12070   0.61325   0.00000  Uiso   1.00
H310   H     0.63008   0.43730   0.68443   0.00000  Uiso   1.00
H311   H     0.69004   0.60946   0.46004   0.00000  Uiso   1.00
H312   H     0.88693   0.89674   0.61676   0.00000  Uiso   1.00
H313   H     0.59211   0.56435   0.76685   0.00000  Uiso   1.00
O314   O     0.81270   0.76570   0.42194   0.00000  Uiso   1.00
O315   O     0.07100   0.83065   0.62756   0.00000  Uiso   1.00
O316   O     0.68421   0.70653   0.82448   0.00000  Uiso   1.00
N317   N     0.89665   0.71220   0.48565   0.00000  Uiso   1.00
N318   N     0.08073   0.04586   0.63216   0.00000  Uiso   1.00
N319   N     0.80511   0.66998   0.77250   0.00000  Uiso   1.00
N320   N     0.75358   0.62883   0.47477   0.00000  Uiso   1.00
N321   N     0.93766   0.96248   0.62128   0.00000  Uiso   1.00
N322   N     0.66204   0.58661   0.76162   0.00000  Uiso   1.00
C323   C     0.08403   0.84915   0.37759   0.00000  Uiso   1.00
C324   C     0.14162   0.89780   0.41670   0.00000  Uiso   1.00
C325   C     0.10531   0.97185   0.45011   0.00000  Uiso   1.00
C326   C     0.16967   0.00657   0.48294   0.00000  Uiso   1.00
C327   C     0.24430   0.08783   0.54377   0.00000  Uiso   1.00
C328   C     0.09500   0.70867   0.37855   0.00000  Uiso   1.00
C329   C     0.01949   0.62371   0.37987   0.00000  Uiso   1.00
C330   C     0.04461   0.49922   0.38058   0.00000  Uiso   1.00
C331   C     0.04685   0.28686   0.38215   0.00000  Uiso   1.00
C332   C     0.13806   0.89300   0.33676   0.00000  Uiso   1.00
C333   C     0.09875   0.96299   0.30295   0.00000  Uiso   1.00
C334   C     0.16011   0.99367   0.26848   0.00000  Uiso   1.00
C335   C     0.22921   0.06750   0.20517   0.00000  Uiso   1.00
C336   C     0.26291   0.77914   0.37649   0.00000  Uiso   1.00
C337   C     0.23878   0.85976   0.41610   0.00000  Uiso   1.00
C338   C     0.30321   0.89439   0.44889   0.00000  Uiso   1.00
C339   C     0.26700   0.96848   0.48234   0.00000  Uiso   1.00
C340   C     0.19216   0.67064   0.37795   0.00000  Uiso   1.00
C341   C     0.21739   0.54625   0.37865   0.00000  Uiso   1.00
C342   C     0.14194   0.46112   0.37998   0.00000  Uiso   1.00
C343   C     0.23522   0.85497   0.33616   0.00000  Uiso   1.00
C344   C     0.29665   0.88553   0.30173   0.00000  Uiso   1.00
C345   C     0.25745   0.95557   0.26788   0.00000  Uiso   1.00
H346   H     0.00839   0.87875   0.37805   0.00000  Uiso   1.00
H347   H     0.03011   0.00125   0.45056   0.00000  Uiso   1.00
H348   H     0.94431   0.65317   0.38033   0.00000  Uiso   1.00
H349   H     0.02356   0.99240   0.30342   0.00000  Uiso   1.00
H350   H     0.09703   0.12025   0.53070   0.00000  Uiso   1.00
H351   H     0.91611   0.38630   0.38260   0.00000  Uiso   1.00
H352   H     0.08322   0.10164   0.22042   0.00000  Uiso   1.00
H353   H     0.33855   0.74953   0.37602   0.00000  Uiso   1.00
H354   H     0.37840   0.86494   0.44842   0.00000  Uiso   1.00
H355   H     0.29259   0.51685   0.37819   0.00000  Uiso   1.00
H356   H     0.37184   0.85609   0.30128   0.00000  Uiso   1.00
H357   H     0.37971   0.00961   0.52896   0.00000  Uiso   1.00
H358   H     0.19878   0.27566   0.38086   0.00000  Uiso   1.00
H359   H     0.36590   0.99100   0.21868   0.00000  Uiso   1.00
O360   O     0.25861   0.14315   0.57750   0.00000  Uiso   1.00
O361   O     0.02125   0.18024   0.38319   0.00000  Uiso   1.00
O362   O     0.24049   0.11875   0.17042   0.00000  Uiso   1.00
N363   N     0.15810   0.07839   0.52035   0.00000  Uiso   1.00
N364   N     0.98895   0.39219   0.38189   0.00000  Uiso   1.00
N365   N     0.14517   0.06095   0.23026   0.00000  Uiso   1.00
N366   N     0.31020   0.01886   0.51941   0.00000  Uiso   1.00
N367   N     0.14105   0.33266   0.38095   0.00000  Uiso   1.00
N368   N     0.29728   0.00142   0.22933   0.00000  Uiso   1.00
