data_job_06044
_audit_creation_date              2018-12-19
_audit_creation_method            'Materials Studio'
_symmetry_space_group_name_H-M    'P1'
_symmetry_Int_Tables_number       1
_symmetry_cell_setting            triclinic
loop_
_symmetry_equiv_pos_as_xyz
  x,y,z
_cell_length_a                    16.9211
_cell_length_b                    15.4980
_cell_length_c                    15.0371
_cell_angle_alpha                 84.0679
_cell_angle_beta                  82.6253
_cell_angle_gamma                 83.2181
loop_
_atom_site_label
_atom_site_type_symbol
_atom_site_fract_x
_atom_site_fract_y
_atom_site_fract_z
_atom_site_U_iso_or_equiv
_atom_site_adp_type
_atom_site_occupancy
C1     C     0.51475   0.13772   0.20029   0.00000  Uiso   1.00
C2     C     0.56301   0.17800   0.26118   0.00000  Uiso   1.00
C3     C     0.55760   0.26587   0.27455   0.00000  Uiso   1.00
C4     C     0.60686   0.28965   0.33289   0.00000  Uiso   1.00
C5     C     0.67382   0.36161   0.42080   0.00000  Uiso   1.00
C6     C     0.57599   0.08924   0.13444   0.00000  Uiso   1.00
C7     C     0.58147   0.10249   0.04125   0.00000  Uiso   1.00
C8     C     0.64166   0.05154   0.99290   0.00000  Uiso   1.00
C9     C     0.72872   0.98567   0.88405   0.00000  Uiso   1.00
C10    C     0.47180   0.06779   0.25995   0.00000  Uiso   1.00
C11    C     0.38969   0.06298   0.27228   0.00000  Uiso   1.00
C12    C     0.36216   0.99397   0.32959   0.00000  Uiso   1.00
C13    C     0.28745   0.89478   0.41562   0.00000  Uiso   1.00
C14    C     0.61187   0.02369   0.28013   0.00000  Uiso   1.00
C15    C     0.61577   0.11606   0.30454   0.00000  Uiso   1.00
C16    C     0.66506   0.13971   0.36288   0.00000  Uiso   1.00
C17    C     0.65971   0.22760   0.37634   0.00000  Uiso   1.00
C18    C     0.62874   0.02731   0.17780   0.00000  Uiso   1.00
C19    C     0.68893   0.97633   0.12958   0.00000  Uiso   1.00
C20    C     0.69451   0.98949   0.03634   0.00000  Uiso   1.00
C21    C     0.52456   0.00585   0.30332   0.00000  Uiso   1.00
C22    C     0.49715   0.93683   0.36062   0.00000  Uiso   1.00
C23    C     0.41501   0.93192   0.37303   0.00000  Uiso   1.00
H24    H     0.47368   0.18594   0.16652   0.00000  Uiso   1.00
H25    H     0.51677   0.31378   0.24097   0.00000  Uiso   1.00
H26    H     0.54063   0.15042   0.00771   0.00000  Uiso   1.00
H27    H     0.34888   0.11092   0.23871   0.00000  Uiso   1.00
H28    H     0.58783   0.42821   0.34261   0.00000  Uiso   1.00
H29    H     0.63814   0.08372   0.85076   0.00000  Uiso   1.00
H30    H     0.23379   0.00044   0.33787   0.00000  Uiso   1.00
H31    H     0.65295   0.97547   0.31389   0.00000  Uiso   1.00
H32    H     0.70588   0.09176   0.39643   0.00000  Uiso   1.00
H33    H     0.72974   0.92840   0.16316   0.00000  Uiso   1.00
H34    H     0.53799   0.88891   0.39416   0.00000  Uiso   1.00
H35    H     0.74132   0.24801   0.46878   0.00000  Uiso   1.00
H36    H     0.79163   0.90352   0.97693   0.00000  Uiso   1.00
H37    H     0.38728   0.82024   0.46404   0.00000  Uiso   1.00
O38    O     0.69618   0.41841   0.45731   0.00000  Uiso   1.00
O39    O     0.76217   0.96645   0.81203   0.00000  Uiso   1.00
O40    O     0.23167   0.85719   0.45110   0.00000  Uiso   1.00
N41    N     0.61668   0.36984   0.36099   0.00000  Uiso   1.00
N42    N     0.66372   0.04777   0.90114   0.00000  Uiso   1.00
N43    N     0.28569   0.96990   0.35652   0.00000  Uiso   1.00
N44    N     0.69927   0.27287   0.42888   0.00000  Uiso   1.00
N45    N     0.74631   0.95081   0.96904   0.00000  Uiso   1.00
N46    N     0.36828   0.87294   0.42442   0.00000  Uiso   1.00
C47    C     0.19947   0.50938   0.13693   0.00000  Uiso   1.00
C48    C     0.25451   0.56157   0.17774   0.00000  Uiso   1.00
C49    C     0.26601   0.55580   0.26799   0.00000  Uiso   1.00
C50    C     0.31885   0.60905   0.29187   0.00000  Uiso   1.00
C51    C     0.39822   0.68145   0.36501   0.00000  Uiso   1.00
C52    C     0.14207   0.57635   0.08907   0.00000  Uiso   1.00
C53    C     0.05903   0.58301   0.10475   0.00000  Uiso   1.00
C54    C     0.01723   0.64870   0.05398   0.00000  Uiso   1.00
C55    C     0.92203   0.74401   0.98941   0.00000  Uiso   1.00
C56    C     0.25212   0.46207   0.06306   0.00000  Uiso   1.00
C57    C     0.26160   0.37263   0.05685   0.00000  Uiso   1.00
C58    C     0.31244   0.34211   0.98416   0.00000  Uiso   1.00
C59    C     0.38811   0.25998   0.87920   0.00000  Uiso   1.00
C60    C     0.27286   0.61421   0.01886   0.00000  Uiso   1.00
C61    C     0.29437   0.61850   0.11362   0.00000  Uiso   1.00
C62    C     0.34721   0.67178   0.13737   0.00000  Uiso   1.00
C63    C     0.35879   0.66609   0.22763   0.00000  Uiso   1.00
C64    C     0.18193   0.63329   0.02495   0.00000  Uiso   1.00
C65    C     0.14024   0.69898   0.97413   0.00000  Uiso   1.00
C66    C     0.05716   0.70574   0.98974   0.00000  Uiso   1.00
C67    C     0.29199   0.51900   0.99893   0.00000  Uiso   1.00
C68    C     0.34281   0.48861   0.92623   0.00000  Uiso   1.00
C69    C     0.35237   0.39915   0.91992   0.00000  Uiso   1.00
H70    H     0.16843   0.46506   0.18685   0.00000  Uiso   1.00
H71    H     0.23514   0.51174   0.31759   0.00000  Uiso   1.00
H72    H     0.02820   0.53893   0.15438   0.00000  Uiso   1.00
H73    H     0.23074   0.32859   0.10649   0.00000  Uiso   1.00
H74    H     0.32667   0.58862   0.43427   0.00000  Uiso   1.00
H75    H     0.89032   0.64595   0.09010   0.00000  Uiso   1.00
H76    H     0.31742   0.20240   0.98911   0.00000  Uiso   1.00
H77    H     0.30390   0.65854   0.96894   0.00000  Uiso   1.00
H78    H     0.37805   0.71583   0.08773   0.00000  Uiso   1.00
H79    H     0.17111   0.74303   0.92451   0.00000  Uiso   1.00
H80    H     0.37365   0.53269   0.87662   0.00000  Uiso   1.00
H81    H     0.44265   0.75427   0.24771   0.00000  Uiso   1.00
H82    H     0.00630   0.81160   0.90353   0.00000  Uiso   1.00
H83    H     0.43341   0.36805   0.80255   0.00000  Uiso   1.00
O84    O     0.43097   0.70567   0.42307   0.00000  Uiso   1.00
O85    O     0.85850   0.78086   0.97152   0.00000  Uiso   1.00
O86    O     0.41885   0.19895   0.83903   0.00000  Uiso   1.00
N87    N     0.34380   0.61973   0.37406   0.00000  Uiso   1.00
N88    N     0.93584   0.67334   0.05229   0.00000  Uiso   1.00
N89    N     0.33512   0.25866   0.95786   0.00000  Uiso   1.00
N90    N     0.40621   0.70887   0.27367   0.00000  Uiso   1.00
N91    N     0.99825   0.76247   0.95190   0.00000  Uiso   1.00
N92    N     0.39754   0.34780   0.85747   0.00000  Uiso   1.00
C93    C     0.13744   0.19924   0.50773   0.00000  Uiso   1.00
C94    C     0.17466   0.25897   0.56134   0.00000  Uiso   1.00
C95    C     0.25536   0.27083   0.55363   0.00000  Uiso   1.00
C96    C     0.27744   0.32829   0.60867   0.00000  Uiso   1.00
C97    C     0.34386   0.41430   0.68272   0.00000  Uiso   1.00
C98    C     0.09347   0.13730   0.57709   0.00000  Uiso   1.00
C99    C     0.10588   0.04687   0.58261   0.00000  Uiso   1.00
C100   C     0.05960   0.00190   0.65090   0.00000  Uiso   1.00
C101   C     0.99993   0.89903   0.74937   0.00000  Uiso   1.00
C102   C     0.07273   0.25693   0.46115   0.00000  Uiso   1.00
C103   C     0.06769   0.26706   0.36920   0.00000  Uiso   1.00
C104   C     0.00393   0.32280   0.33987   0.00000  Uiso   1.00
C105   C     0.91205   0.40567   0.25833   0.00000  Uiso   1.00
C106   C     0.03316   0.28019   0.61917   0.00000  Uiso   1.00
C107   C     0.11802   0.30293   0.62187   0.00000  Uiso   1.00
C108   C     0.13998   0.36039   0.67692   0.00000  Uiso   1.00
C109   C     0.22070   0.37234   0.66930   0.00000  Uiso   1.00
C110   C     0.03683   0.18126   0.63761   0.00000  Uiso   1.00
C111   C     0.99051   0.13642   0.70590   0.00000  Uiso   1.00
C112   C     0.00286   0.04595   0.71154   0.00000  Uiso   1.00
C113   C     0.01608   0.30089   0.52167   0.00000  Uiso   1.00
C114   C     0.95232   0.35662   0.49249   0.00000  Uiso   1.00
C115   C     0.94719   0.36685   0.40051   0.00000  Uiso   1.00
H116   H     0.18153   0.16501   0.46062   0.00000  Uiso   1.00
H117   H     0.29917   0.23679   0.50679   0.00000  Uiso   1.00
H118   H     0.14971   0.01286   0.53576   0.00000  Uiso   1.00
H119   H     0.11153   0.23303   0.32238   0.00000  Uiso   1.00
H120   H     0.40462   0.33574   0.58470   0.00000  Uiso   1.00
H121   H     0.08947   0.86357   0.64577   0.00000  Uiso   1.00
H122   H     0.00894   0.32783   0.19581   0.00000  Uiso   1.00
H123   H     0.98906   0.31441   0.66629   0.00000  Uiso   1.00
H124   H     0.09614   0.39440   0.72375   0.00000  Uiso   1.00
H125   H     0.94669   0.17047   0.75273   0.00000  Uiso   1.00
H126   H     0.90850   0.39063   0.53934   0.00000  Uiso   1.00
H127   H     0.23983   0.46365   0.76080   0.00000  Uiso   1.00
H128   H     0.92468   0.99149   0.82187   0.00000  Uiso   1.00
H129   H     0.84415   0.45575   0.37191   0.00000  Uiso   1.00
O130   O     0.39615   0.44959   0.70686   0.00000  Uiso   1.00
O131   O     0.98267   0.83013   0.78697   0.00000  Uiso   1.00
O132   O     0.87702   0.43923   0.19663   0.00000  Uiso   1.00
N133   N     0.35114   0.35488   0.61824   0.00000  Uiso   1.00
N134   N     0.05650   0.91343   0.67535   0.00000  Uiso   1.00
N135   N     0.98120   0.34746   0.25468   0.00000  Uiso   1.00
N136   N     0.26247   0.42371   0.71300   0.00000  Uiso   1.00
N137   N     0.96783   0.98226   0.77011   0.00000  Uiso   1.00
N138   N     0.89253   0.41629   0.34943   0.00000  Uiso   1.00
C139   C     0.48525   0.86228   0.79971   0.00000  Uiso   1.00
C140   C     0.43699   0.82200   0.73882   0.00000  Uiso   1.00
C141   C     0.44240   0.73413   0.72545   0.00000  Uiso   1.00
C142   C     0.39314   0.71035   0.66711   0.00000  Uiso   1.00
C143   C     0.32618   0.63839   0.57920   0.00000  Uiso   1.00
C144   C     0.42401   0.91076   0.86556   0.00000  Uiso   1.00
C145   C     0.41853   0.89751   0.95875   0.00000  Uiso   1.00
C146   C     0.35834   0.94846   0.00710   0.00000  Uiso   1.00
C147   C     0.27128   0.01433   0.11595   0.00000  Uiso   1.00
C148   C     0.52820   0.93221   0.74005   0.00000  Uiso   1.00
C149   C     0.61031   0.93702   0.72772   0.00000  Uiso   1.00
C150   C     0.63784   0.00603   0.67041   0.00000  Uiso   1.00
C151   C     0.71255   0.10522   0.58438   0.00000  Uiso   1.00
C152   C     0.38813   0.97631   0.71987   0.00000  Uiso   1.00
C153   C     0.38423   0.88394   0.69546   0.00000  Uiso   1.00
C154   C     0.33494   0.86029   0.63712   0.00000  Uiso   1.00
C155   C     0.34029   0.77240   0.62366   0.00000  Uiso   1.00
C156   C     0.37126   0.97269   0.82220   0.00000  Uiso   1.00
C157   C     0.31107   0.02367   0.87042   0.00000  Uiso   1.00
C158   C     0.30549   0.01051   0.96366   0.00000  Uiso   1.00
C159   C     0.47544   0.99415   0.69668   0.00000  Uiso   1.00
C160   C     0.50285   0.06318   0.63938   0.00000  Uiso   1.00
C161   C     0.58499   0.06808   0.62697   0.00000  Uiso   1.00
H162   H     0.52632   0.81406   0.83348   0.00000  Uiso   1.00
H163   H     0.48323   0.68622   0.75903   0.00000  Uiso   1.00
H164   H     0.45937   0.84958   0.99229   0.00000  Uiso   1.00
H165   H     0.65112   0.88908   0.76129   0.00000  Uiso   1.00
H166   H     0.41217   0.57179   0.65739   0.00000  Uiso   1.00
H167   H     0.36186   0.91628   0.14924   0.00000  Uiso   1.00
H168   H     0.76621   0.99956   0.66213   0.00000  Uiso   1.00
H169   H     0.34705   0.02453   0.68611   0.00000  Uiso   1.00
H170   H     0.29412   0.90824   0.60357   0.00000  Uiso   1.00
H171   H     0.27026   0.07160   0.83684   0.00000  Uiso   1.00
H172   H     0.46201   0.11109   0.60584   0.00000  Uiso   1.00
H173   H     0.25868   0.75199   0.53122   0.00000  Uiso   1.00
H174   H     0.20837   0.09648   0.02307   0.00000  Uiso   1.00
H175   H     0.61272   0.17976   0.53596   0.00000  Uiso   1.00
O176   O     0.30382   0.58159   0.54269   0.00000  Uiso   1.00
O177   O     0.23783   0.03355   0.18797   0.00000  Uiso   1.00
O178   O     0.76833   0.14281   0.54890   0.00000  Uiso   1.00
N179   N     0.38332   0.63016   0.63901   0.00000  Uiso   1.00
N180   N     0.33628   0.95223   0.09886   0.00000  Uiso   1.00
N181   N     0.71431   0.03010   0.64348   0.00000  Uiso   1.00
N182   N     0.30073   0.72713   0.57112   0.00000  Uiso   1.00
N183   N     0.25369   0.04919   0.03096   0.00000  Uiso   1.00
N184   N     0.63172   0.12706   0.57558   0.00000  Uiso   1.00
C185   C     0.80053   0.49062   0.86307   0.00000  Uiso   1.00
C186   C     0.74549   0.43843   0.82226   0.00000  Uiso   1.00
C187   C     0.73399   0.44420   0.73201   0.00000  Uiso   1.00
C188   C     0.68115   0.39095   0.70813   0.00000  Uiso   1.00
C189   C     0.60178   0.31855   0.63499   0.00000  Uiso   1.00
C190   C     0.85793   0.42365   0.91093   0.00000  Uiso   1.00
C191   C     0.94097   0.41699   0.89525   0.00000  Uiso   1.00
C192   C     0.98277   0.35130   0.94602   0.00000  Uiso   1.00
C193   C     0.07797   0.25599   0.01059   0.00000  Uiso   1.00
C194   C     0.74788   0.53793   0.93694   0.00000  Uiso   1.00
C195   C     0.73840   0.62737   0.94315   0.00000  Uiso   1.00
C196   C     0.68756   0.65789   0.01584   0.00000  Uiso   1.00
C197   C     0.61189   0.74002   0.12080   0.00000  Uiso   1.00
C198   C     0.72714   0.38579   0.98113   0.00000  Uiso   1.00
C199   C     0.70563   0.38150   0.88638   0.00000  Uiso   1.00
C200   C     0.65279   0.32822   0.86263   0.00000  Uiso   1.00
C201   C     0.64121   0.33391   0.77237   0.00000  Uiso   1.00
C202   C     0.81807   0.36671   0.97505   0.00000  Uiso   1.00
C203   C     0.85976   0.30102   0.02587   0.00000  Uiso   1.00
C204   C     0.94284   0.29426   0.01026   0.00000  Uiso   1.00
C205   C     0.70801   0.48100   0.00107   0.00000  Uiso   1.00
C206   C     0.65719   0.51139   0.07377   0.00000  Uiso   1.00
C207   C     0.64763   0.60085   0.08008   0.00000  Uiso   1.00
H208   H     0.83157   0.53494   0.81315   0.00000  Uiso   1.00
H209   H     0.76486   0.48826   0.68241   0.00000  Uiso   1.00
H210   H     0.97180   0.46107   0.84562   0.00000  Uiso   1.00
H211   H     0.76926   0.67141   0.89351   0.00000  Uiso   1.00
H212   H     0.67333   0.41138   0.56573   0.00000  Uiso   1.00
H213   H     0.10968   0.35405   0.90990   0.00000  Uiso   1.00
H214   H     0.68258   0.79760   0.01089   0.00000  Uiso   1.00
H215   H     0.69610   0.34146   0.03106   0.00000  Uiso   1.00
H216   H     0.62195   0.28417   0.91227   0.00000  Uiso   1.00
H217   H     0.82889   0.25697   0.07549   0.00000  Uiso   1.00
H218   H     0.62635   0.46731   0.12338   0.00000  Uiso   1.00
H219   H     0.55735   0.24573   0.75229   0.00000  Uiso   1.00
H220   H     0.99370   0.18840   0.09647   0.00000  Uiso   1.00
H221   H     0.56659   0.63195   0.19745   0.00000  Uiso   1.00
O222   O     0.56903   0.29433   0.57693   0.00000  Uiso   1.00
O223   O     0.14150   0.21914   0.02848   0.00000  Uiso   1.00
O224   O     0.58115   0.80105   0.16097   0.00000  Uiso   1.00
N225   N     0.65620   0.38027   0.62594   0.00000  Uiso   1.00
N226   N     0.06416   0.32666   0.94771   0.00000  Uiso   1.00
N227   N     0.66488   0.74134   0.04214   0.00000  Uiso   1.00
N228   N     0.59379   0.29113   0.72633   0.00000  Uiso   1.00
N229   N     0.00175   0.23753   0.04810   0.00000  Uiso   1.00
N230   N     0.60246   0.65220   0.14253   0.00000  Uiso   1.00
C231   C     0.86256   0.80076   0.49227   0.00000  Uiso   1.00
C232   C     0.82534   0.74103   0.43866   0.00000  Uiso   1.00
C233   C     0.74464   0.72917   0.44637   0.00000  Uiso   1.00
C234   C     0.72256   0.67171   0.39133   0.00000  Uiso   1.00
C235   C     0.65614   0.58570   0.31728   0.00000  Uiso   1.00
C236   C     0.90653   0.86270   0.42291   0.00000  Uiso   1.00
C237   C     0.89412   0.95313   0.41739   0.00000  Uiso   1.00
C238   C     0.94040   0.99810   0.34910   0.00000  Uiso   1.00
C239   C     0.00007   0.10097   0.25063   0.00000  Uiso   1.00
C240   C     0.92727   0.74307   0.53885   0.00000  Uiso   1.00
C241   C     0.93231   0.73294   0.63080   0.00000  Uiso   1.00
C242   C     0.99607   0.67720   0.66013   0.00000  Uiso   1.00
C243   C     0.08795   0.59433   0.74167   0.00000  Uiso   1.00
C244   C     0.96684   0.71981   0.38083   0.00000  Uiso   1.00
C245   C     0.88198   0.69707   0.37813   0.00000  Uiso   1.00
C246   C     0.86002   0.63961   0.32308   0.00000  Uiso   1.00
C247   C     0.77930   0.62766   0.33070   0.00000  Uiso   1.00
C248   C     0.96317   0.81874   0.36239   0.00000  Uiso   1.00
C249   C     0.00949   0.86358   0.29410   0.00000  Uiso   1.00
C250   C     0.99714   0.95405   0.28846   0.00000  Uiso   1.00
C251   C     0.98392   0.69911   0.47833   0.00000  Uiso   1.00
C252   C     0.04768   0.64338   0.50751   0.00000  Uiso   1.00
C253   C     0.05281   0.63315   0.59949   0.00000  Uiso   1.00
H254   H     0.81847   0.83499   0.53939   0.00000  Uiso   1.00
H255   H     0.70083   0.76321   0.49321   0.00000  Uiso   1.00
H256   H     0.85029   0.98714   0.46424   0.00000  Uiso   1.00
H257   H     0.88847   0.76697   0.67762   0.00000  Uiso   1.00
H258   H     0.59538   0.66426   0.41530   0.00000  Uiso   1.00
H259   H     0.91053   0.13643   0.35423   0.00000  Uiso   1.00
H260   H     0.99106   0.67217   0.80419   0.00000  Uiso   1.00
H261   H     0.01094   0.68559   0.33371   0.00000  Uiso   1.00
H262   H     0.90386   0.60560   0.27625   0.00000  Uiso   1.00
H263   H     0.05331   0.82953   0.24727   0.00000  Uiso   1.00
H264   H     0.09150   0.60937   0.46066   0.00000  Uiso   1.00
H265   H     0.76017   0.53635   0.23920   0.00000  Uiso   1.00
H266   H     0.07532   0.00851   0.17813   0.00000  Uiso   1.00
H267   H     0.15585   0.54425   0.62809   0.00000  Uiso   1.00
O268   O     0.60385   0.55041   0.29314   0.00000  Uiso   1.00
O269   O     0.01733   0.16987   0.21303   0.00000  Uiso   1.00
O270   O     0.12298   0.56077   0.80337   0.00000  Uiso   1.00
N271   N     0.64886   0.64512   0.38175   0.00000  Uiso   1.00
N272   N     0.94350   0.08657   0.32465   0.00000  Uiso   1.00
N273   N     0.01880   0.65254   0.74532   0.00000  Uiso   1.00
N274   N     0.73753   0.57629   0.28700   0.00000  Uiso   1.00
N275   N     0.03217   0.01774   0.22989   0.00000  Uiso   1.00
N276   N     0.10747   0.58371   0.65057   0.00000  Uiso   1.00
