data_job_01441
_audit_creation_date              2018-12-19
_audit_creation_method            'Materials Studio'
_symmetry_space_group_name_H-M    'P1'
_symmetry_Int_Tables_number       1
_symmetry_cell_setting            triclinic
loop_
_symmetry_equiv_pos_as_xyz
  x,y,z
_cell_length_a                    35.9493
_cell_length_b                    23.1518
_cell_length_c                    14.3676
_cell_angle_alpha                 90.0000
_cell_angle_beta                  98.1180
_cell_angle_gamma                 90.0000
loop_
_atom_site_label
_atom_site_type_symbol
_atom_site_fract_x
_atom_site_fract_y
_atom_site_fract_z
_atom_site_U_iso_or_equiv
_atom_site_adp_type
_atom_site_occupancy
C1     C     0.33891   0.47863   0.37126   0.00000  Uiso   1.00
C2     C     0.32025   0.53488   0.39493   0.00000  Uiso   1.00
C3     C     0.31340   0.58225   0.33581   0.00000  Uiso   1.00
C4     C     0.29604   0.62959   0.37056   0.00000  Uiso   1.00
C5     C     0.26863   0.71695   0.39354   0.00000  Uiso   1.00
C6     C     0.37249   0.47028   0.44766   0.00000  Uiso   1.00
C7     C     0.40955   0.46332   0.43287   0.00000  Uiso   1.00
C8     C     0.43617   0.45628   0.51200   0.00000  Uiso   1.00
C9     C     0.48985   0.44330   0.61684   0.00000  Uiso   1.00
C10    C     0.31122   0.43064   0.38553   0.00000  Uiso   1.00
C11    C     0.29677   0.39034   0.31851   0.00000  Uiso   1.00
C12    C     0.27181   0.34991   0.34535   0.00000  Uiso   1.00
C13    C     0.23037   0.27538   0.35373   0.00000  Uiso   1.00
C14    C     0.32028   0.47847   0.53810   0.00000  Uiso   1.00
C15    C     0.31014   0.53479   0.48555   0.00000  Uiso   1.00
C16    C     0.29279   0.58207   0.52040   0.00000  Uiso   1.00
C17    C     0.28591   0.62950   0.46134   0.00000  Uiso   1.00
C18    C     0.36237   0.47019   0.53828   0.00000  Uiso   1.00
C19    C     0.38894   0.46314   0.61745   0.00000  Uiso   1.00
C20    C     0.42603   0.45619   0.60279   0.00000  Uiso   1.00
C21    C     0.30110   0.43055   0.47615   0.00000  Uiso   1.00
C22    C     0.27616   0.39016   0.50310   0.00000  Uiso   1.00
C23    C     0.26168   0.34982   0.43613   0.00000  Uiso   1.00
H24    H     0.34679   0.47870   0.30071   0.00000  Uiso   1.00
H25    H     0.32123   0.58230   0.26569   0.00000  Uiso   1.00
H26    H     0.41737   0.46339   0.36273   0.00000  Uiso   1.00
H27    H     0.30461   0.39042   0.24839   0.00000  Uiso   1.00
H28    H     0.28845   0.69713   0.26683   0.00000  Uiso   1.00
H29    H     0.49116   0.44638   0.47145   0.00000  Uiso   1.00
H30    H     0.25339   0.29251   0.23035   0.00000  Uiso   1.00
H31    H     0.31241   0.47840   0.60865   0.00000  Uiso   1.00
H32    H     0.28496   0.58199   0.59053   0.00000  Uiso   1.00
H33    H     0.38110   0.46307   0.68757   0.00000  Uiso   1.00
H34    H     0.26834   0.39011   0.57323   0.00000  Uiso   1.00
H35    H     0.25902   0.69688   0.53048   0.00000  Uiso   1.00
H36    H     0.46173   0.44612   0.73510   0.00000  Uiso   1.00
H37    H     0.22395   0.29225   0.49400   0.00000  Uiso   1.00
O38    O     0.25631   0.76516   0.38119   0.00000  Uiso   1.00
O39    O     0.52226   0.43617   0.64964   0.00000  Uiso   1.00
O40    O     0.21030   0.23430   0.33331   0.00000  Uiso   1.00
N41    N     0.28528   0.68285   0.33136   0.00000  Uiso   1.00
N42    N     0.47481   0.44842   0.52267   0.00000  Uiso   1.00
N43    N     0.25251   0.30456   0.29727   0.00000  Uiso   1.00
N44    N     0.26944   0.68271   0.47323   0.00000  Uiso   1.00
N45    N     0.45897   0.44828   0.66454   0.00000  Uiso   1.00
N46    N     0.23667   0.30442   0.43913   0.00000  Uiso   1.00
C47    C     0.83891   0.97863   0.37126   0.00000  Uiso   1.00
C48    C     0.82025   0.03488   0.39493   0.00000  Uiso   1.00
C49    C     0.81340   0.08225   0.33581   0.00000  Uiso   1.00
C50    C     0.79604   0.12959   0.37056   0.00000  Uiso   1.00
C51    C     0.76863   0.21695   0.39354   0.00000  Uiso   1.00
C52    C     0.87249   0.97028   0.44766   0.00000  Uiso   1.00
C53    C     0.90955   0.96332   0.43287   0.00000  Uiso   1.00
C54    C     0.93617   0.95628   0.51200   0.00000  Uiso   1.00
C55    C     0.98985   0.94330   0.61684   0.00000  Uiso   1.00
C56    C     0.81122   0.93064   0.38553   0.00000  Uiso   1.00
C57    C     0.79677   0.89034   0.31851   0.00000  Uiso   1.00
C58    C     0.77181   0.84991   0.34535   0.00000  Uiso   1.00
C59    C     0.73037   0.77538   0.35373   0.00000  Uiso   1.00
C60    C     0.82028   0.97847   0.53810   0.00000  Uiso   1.00
C61    C     0.81014   0.03479   0.48555   0.00000  Uiso   1.00
C62    C     0.79279   0.08207   0.52040   0.00000  Uiso   1.00
C63    C     0.78591   0.12950   0.46134   0.00000  Uiso   1.00
C64    C     0.86237   0.97019   0.53828   0.00000  Uiso   1.00
C65    C     0.88894   0.96314   0.61745   0.00000  Uiso   1.00
C66    C     0.92603   0.95619   0.60279   0.00000  Uiso   1.00
C67    C     0.80110   0.93055   0.47615   0.00000  Uiso   1.00
C68    C     0.77616   0.89016   0.50310   0.00000  Uiso   1.00
C69    C     0.76168   0.84982   0.43613   0.00000  Uiso   1.00
H70    H     0.84679   0.97870   0.30071   0.00000  Uiso   1.00
H71    H     0.82123   0.08230   0.26569   0.00000  Uiso   1.00
H72    H     0.91737   0.96339   0.36273   0.00000  Uiso   1.00
H73    H     0.80461   0.89042   0.24839   0.00000  Uiso   1.00
H74    H     0.78845   0.19713   0.26683   0.00000  Uiso   1.00
H75    H     0.99116   0.94638   0.47145   0.00000  Uiso   1.00
H76    H     0.75339   0.79251   0.23035   0.00000  Uiso   1.00
H77    H     0.81241   0.97840   0.60865   0.00000  Uiso   1.00
H78    H     0.78496   0.08199   0.59053   0.00000  Uiso   1.00
H79    H     0.88110   0.96307   0.68757   0.00000  Uiso   1.00
H80    H     0.76834   0.89011   0.57323   0.00000  Uiso   1.00
H81    H     0.75902   0.19688   0.53048   0.00000  Uiso   1.00
H82    H     0.96173   0.94612   0.73510   0.00000  Uiso   1.00
H83    H     0.72395   0.79225   0.49400   0.00000  Uiso   1.00
O84    O     0.75631   0.26516   0.38119   0.00000  Uiso   1.00
O85    O     0.02226   0.93617   0.64964   0.00000  Uiso   1.00
O86    O     0.71030   0.73430   0.33331   0.00000  Uiso   1.00
N87    N     0.78528   0.18285   0.33136   0.00000  Uiso   1.00
N88    N     0.97481   0.94842   0.52267   0.00000  Uiso   1.00
N89    N     0.75251   0.80456   0.29727   0.00000  Uiso   1.00
N90    N     0.76944   0.18271   0.47323   0.00000  Uiso   1.00
N91    N     0.95897   0.94828   0.66454   0.00000  Uiso   1.00
N92    N     0.73667   0.80442   0.43913   0.00000  Uiso   1.00
C93    C     0.66109   0.47863   0.12874   0.00000  Uiso   1.00
C94    C     0.67975   0.53488   0.10507   0.00000  Uiso   1.00
C95    C     0.68660   0.58225   0.16419   0.00000  Uiso   1.00
C96    C     0.70396   0.62959   0.12944   0.00000  Uiso   1.00
C97    C     0.73137   0.71695   0.10646   0.00000  Uiso   1.00
C98    C     0.62751   0.47028   0.05234   0.00000  Uiso   1.00
C99    C     0.59045   0.46332   0.06713   0.00000  Uiso   1.00
C100   C     0.56383   0.45628   0.98800   0.00000  Uiso   1.00
C101   C     0.51015   0.44330   0.88316   0.00000  Uiso   1.00
C102   C     0.68878   0.43064   0.11447   0.00000  Uiso   1.00
C103   C     0.70323   0.39034   0.18149   0.00000  Uiso   1.00
C104   C     0.72819   0.34991   0.15465   0.00000  Uiso   1.00
C105   C     0.76963   0.27538   0.14627   0.00000  Uiso   1.00
C106   C     0.67972   0.47847   0.96190   0.00000  Uiso   1.00
C107   C     0.68986   0.53479   0.01445   0.00000  Uiso   1.00
C108   C     0.70721   0.58207   0.97960   0.00000  Uiso   1.00
C109   C     0.71409   0.62950   0.03866   0.00000  Uiso   1.00
C110   C     0.63763   0.47019   0.96172   0.00000  Uiso   1.00
C111   C     0.61106   0.46314   0.88255   0.00000  Uiso   1.00
C112   C     0.57397   0.45619   0.89721   0.00000  Uiso   1.00
C113   C     0.69890   0.43055   0.02385   0.00000  Uiso   1.00
C114   C     0.72384   0.39016   0.99690   0.00000  Uiso   1.00
C115   C     0.73832   0.34982   0.06387   0.00000  Uiso   1.00
H116   H     0.65321   0.47870   0.19929   0.00000  Uiso   1.00
H117   H     0.67877   0.58230   0.23431   0.00000  Uiso   1.00
H118   H     0.58263   0.46339   0.13727   0.00000  Uiso   1.00
H119   H     0.69539   0.39042   0.25161   0.00000  Uiso   1.00
H120   H     0.71155   0.69713   0.23317   0.00000  Uiso   1.00
H121   H     0.50884   0.44638   0.02855   0.00000  Uiso   1.00
H122   H     0.74661   0.29251   0.26965   0.00000  Uiso   1.00
H123   H     0.68759   0.47840   0.89135   0.00000  Uiso   1.00
H124   H     0.71504   0.58199   0.90947   0.00000  Uiso   1.00
H125   H     0.61890   0.46307   0.81243   0.00000  Uiso   1.00
H126   H     0.73166   0.39011   0.92677   0.00000  Uiso   1.00
H127   H     0.74098   0.69688   0.96952   0.00000  Uiso   1.00
H128   H     0.53827   0.44612   0.76490   0.00000  Uiso   1.00
H129   H     0.77605   0.29225   0.00600   0.00000  Uiso   1.00
O130   O     0.74369   0.76516   0.11881   0.00000  Uiso   1.00
O131   O     0.47774   0.43617   0.85036   0.00000  Uiso   1.00
O132   O     0.78970   0.23430   0.16669   0.00000  Uiso   1.00
N133   N     0.71472   0.68285   0.16864   0.00000  Uiso   1.00
N134   N     0.52519   0.44842   0.97733   0.00000  Uiso   1.00
N135   N     0.74749   0.30456   0.20273   0.00000  Uiso   1.00
N136   N     0.73056   0.68271   0.02677   0.00000  Uiso   1.00
N137   N     0.54103   0.44828   0.83546   0.00000  Uiso   1.00
N138   N     0.76333   0.30442   0.06087   0.00000  Uiso   1.00
C139   C     0.16109   0.97863   0.12874   0.00000  Uiso   1.00
C140   C     0.17975   0.03488   0.10507   0.00000  Uiso   1.00
C141   C     0.18660   0.08225   0.16419   0.00000  Uiso   1.00
C142   C     0.20396   0.12959   0.12944   0.00000  Uiso   1.00
C143   C     0.23137   0.21695   0.10646   0.00000  Uiso   1.00
C144   C     0.12751   0.97028   0.05234   0.00000  Uiso   1.00
C145   C     0.09045   0.96332   0.06713   0.00000  Uiso   1.00
C146   C     0.06383   0.95628   0.98800   0.00000  Uiso   1.00
C147   C     0.01015   0.94330   0.88316   0.00000  Uiso   1.00
C148   C     0.18878   0.93064   0.11447   0.00000  Uiso   1.00
C149   C     0.20323   0.89034   0.18149   0.00000  Uiso   1.00
C150   C     0.22819   0.84991   0.15465   0.00000  Uiso   1.00
C151   C     0.26963   0.77538   0.14627   0.00000  Uiso   1.00
C152   C     0.17972   0.97847   0.96190   0.00000  Uiso   1.00
C153   C     0.18986   0.03479   0.01445   0.00000  Uiso   1.00
C154   C     0.20721   0.08207   0.97960   0.00000  Uiso   1.00
C155   C     0.21409   0.12950   0.03866   0.00000  Uiso   1.00
C156   C     0.13763   0.97019   0.96172   0.00000  Uiso   1.00
C157   C     0.11106   0.96314   0.88255   0.00000  Uiso   1.00
C158   C     0.07397   0.95619   0.89721   0.00000  Uiso   1.00
C159   C     0.19890   0.93055   0.02385   0.00000  Uiso   1.00
C160   C     0.22384   0.89016   0.99690   0.00000  Uiso   1.00
C161   C     0.23832   0.84982   0.06387   0.00000  Uiso   1.00
H162   H     0.15321   0.97870   0.19929   0.00000  Uiso   1.00
H163   H     0.17877   0.08230   0.23431   0.00000  Uiso   1.00
H164   H     0.08263   0.96339   0.13727   0.00000  Uiso   1.00
H165   H     0.19539   0.89042   0.25161   0.00000  Uiso   1.00
H166   H     0.21155   0.19713   0.23317   0.00000  Uiso   1.00
H167   H     0.00884   0.94638   0.02855   0.00000  Uiso   1.00
H168   H     0.24661   0.79251   0.26965   0.00000  Uiso   1.00
H169   H     0.18759   0.97840   0.89135   0.00000  Uiso   1.00
H170   H     0.21504   0.08199   0.90947   0.00000  Uiso   1.00
H171   H     0.11890   0.96307   0.81243   0.00000  Uiso   1.00
H172   H     0.23166   0.89011   0.92677   0.00000  Uiso   1.00
H173   H     0.24098   0.19688   0.96952   0.00000  Uiso   1.00
H174   H     0.03827   0.94612   0.76490   0.00000  Uiso   1.00
H175   H     0.27605   0.79225   0.00600   0.00000  Uiso   1.00
O176   O     0.24369   0.26516   0.11881   0.00000  Uiso   1.00
O177   O     0.97774   0.93617   0.85036   0.00000  Uiso   1.00
O178   O     0.28970   0.73430   0.16669   0.00000  Uiso   1.00
N179   N     0.21472   0.18285   0.16864   0.00000  Uiso   1.00
N180   N     0.02519   0.94842   0.97733   0.00000  Uiso   1.00
N181   N     0.24749   0.80456   0.20273   0.00000  Uiso   1.00
N182   N     0.23056   0.18271   0.02677   0.00000  Uiso   1.00
N183   N     0.04103   0.94828   0.83546   0.00000  Uiso   1.00
N184   N     0.26333   0.80442   0.06087   0.00000  Uiso   1.00
C185   C     0.66109   0.52137   0.62874   0.00000  Uiso   1.00
C186   C     0.67975   0.46512   0.60507   0.00000  Uiso   1.00
C187   C     0.68660   0.41775   0.66419   0.00000  Uiso   1.00
C188   C     0.70396   0.37041   0.62944   0.00000  Uiso   1.00
C189   C     0.73137   0.28305   0.60646   0.00000  Uiso   1.00
C190   C     0.62751   0.52972   0.55234   0.00000  Uiso   1.00
C191   C     0.59045   0.53668   0.56713   0.00000  Uiso   1.00
C192   C     0.56383   0.54372   0.48800   0.00000  Uiso   1.00
C193   C     0.51015   0.55670   0.38316   0.00000  Uiso   1.00
C194   C     0.68878   0.56936   0.61447   0.00000  Uiso   1.00
C195   C     0.70323   0.60966   0.68149   0.00000  Uiso   1.00
C196   C     0.72819   0.65009   0.65465   0.00000  Uiso   1.00
C197   C     0.76963   0.72462   0.64627   0.00000  Uiso   1.00
C198   C     0.67972   0.52153   0.46190   0.00000  Uiso   1.00
C199   C     0.68986   0.46521   0.51445   0.00000  Uiso   1.00
C200   C     0.70721   0.41793   0.47960   0.00000  Uiso   1.00
C201   C     0.71409   0.37050   0.53866   0.00000  Uiso   1.00
C202   C     0.63763   0.52981   0.46172   0.00000  Uiso   1.00
C203   C     0.61106   0.53686   0.38255   0.00000  Uiso   1.00
C204   C     0.57397   0.54381   0.39721   0.00000  Uiso   1.00
C205   C     0.69890   0.56945   0.52385   0.00000  Uiso   1.00
C206   C     0.72384   0.60984   0.49690   0.00000  Uiso   1.00
C207   C     0.73832   0.65018   0.56387   0.00000  Uiso   1.00
H208   H     0.65321   0.52130   0.69929   0.00000  Uiso   1.00
H209   H     0.67877   0.41770   0.73431   0.00000  Uiso   1.00
H210   H     0.58263   0.53661   0.63727   0.00000  Uiso   1.00
H211   H     0.69539   0.60958   0.75161   0.00000  Uiso   1.00
H212   H     0.71155   0.30287   0.73317   0.00000  Uiso   1.00
H213   H     0.50884   0.55362   0.52855   0.00000  Uiso   1.00
H214   H     0.74661   0.70749   0.76965   0.00000  Uiso   1.00
H215   H     0.68759   0.52160   0.39135   0.00000  Uiso   1.00
H216   H     0.71504   0.41801   0.40947   0.00000  Uiso   1.00
H217   H     0.61890   0.53693   0.31243   0.00000  Uiso   1.00
H218   H     0.73166   0.60989   0.42677   0.00000  Uiso   1.00
H219   H     0.74098   0.30312   0.46952   0.00000  Uiso   1.00
H220   H     0.53827   0.55388   0.26490   0.00000  Uiso   1.00
H221   H     0.77605   0.70775   0.50600   0.00000  Uiso   1.00
O222   O     0.74369   0.23484   0.61881   0.00000  Uiso   1.00
O223   O     0.47774   0.56383   0.35036   0.00000  Uiso   1.00
O224   O     0.78970   0.76570   0.66669   0.00000  Uiso   1.00
N225   N     0.71472   0.31715   0.66864   0.00000  Uiso   1.00
N226   N     0.52519   0.55158   0.47733   0.00000  Uiso   1.00
N227   N     0.74749   0.69544   0.70273   0.00000  Uiso   1.00
N228   N     0.73056   0.31729   0.52677   0.00000  Uiso   1.00
N229   N     0.54103   0.55172   0.33546   0.00000  Uiso   1.00
N230   N     0.76333   0.69558   0.56087   0.00000  Uiso   1.00
C231   C     0.16109   0.02137   0.62874   0.00000  Uiso   1.00
C232   C     0.17975   0.96512   0.60507   0.00000  Uiso   1.00
C233   C     0.18660   0.91775   0.66419   0.00000  Uiso   1.00
C234   C     0.20396   0.87041   0.62944   0.00000  Uiso   1.00
C235   C     0.23137   0.78305   0.60646   0.00000  Uiso   1.00
C236   C     0.12751   0.02972   0.55234   0.00000  Uiso   1.00
C237   C     0.09045   0.03668   0.56713   0.00000  Uiso   1.00
C238   C     0.06383   0.04372   0.48800   0.00000  Uiso   1.00
C239   C     0.01015   0.05670   0.38316   0.00000  Uiso   1.00
C240   C     0.18878   0.06936   0.61447   0.00000  Uiso   1.00
C241   C     0.20323   0.10966   0.68149   0.00000  Uiso   1.00
C242   C     0.22819   0.15009   0.65465   0.00000  Uiso   1.00
C243   C     0.26963   0.22462   0.64627   0.00000  Uiso   1.00
C244   C     0.17972   0.02153   0.46190   0.00000  Uiso   1.00
C245   C     0.18986   0.96521   0.51445   0.00000  Uiso   1.00
C246   C     0.20721   0.91793   0.47960   0.00000  Uiso   1.00
C247   C     0.21409   0.87050   0.53866   0.00000  Uiso   1.00
C248   C     0.13763   0.02981   0.46172   0.00000  Uiso   1.00
C249   C     0.11106   0.03686   0.38255   0.00000  Uiso   1.00
C250   C     0.07397   0.04381   0.39721   0.00000  Uiso   1.00
C251   C     0.19890   0.06945   0.52385   0.00000  Uiso   1.00
C252   C     0.22384   0.10984   0.49690   0.00000  Uiso   1.00
C253   C     0.23832   0.15018   0.56387   0.00000  Uiso   1.00
H254   H     0.15321   0.02130   0.69929   0.00000  Uiso   1.00
H255   H     0.17877   0.91770   0.73431   0.00000  Uiso   1.00
H256   H     0.08263   0.03661   0.63727   0.00000  Uiso   1.00
H257   H     0.19539   0.10958   0.75161   0.00000  Uiso   1.00
H258   H     0.21155   0.80287   0.73317   0.00000  Uiso   1.00
H259   H     0.00884   0.05362   0.52855   0.00000  Uiso   1.00
H260   H     0.24661   0.20749   0.76965   0.00000  Uiso   1.00
H261   H     0.18759   0.02160   0.39135   0.00000  Uiso   1.00
H262   H     0.21504   0.91801   0.40947   0.00000  Uiso   1.00
H263   H     0.11890   0.03693   0.31243   0.00000  Uiso   1.00
H264   H     0.23166   0.10989   0.42677   0.00000  Uiso   1.00
H265   H     0.24098   0.80312   0.46952   0.00000  Uiso   1.00
H266   H     0.03827   0.05388   0.26490   0.00000  Uiso   1.00
H267   H     0.27605   0.20775   0.50600   0.00000  Uiso   1.00
O268   O     0.24369   0.73484   0.61881   0.00000  Uiso   1.00
O269   O     0.97774   0.06383   0.35036   0.00000  Uiso   1.00
O270   O     0.28970   0.26570   0.66669   0.00000  Uiso   1.00
N271   N     0.21472   0.81715   0.66864   0.00000  Uiso   1.00
N272   N     0.02519   0.05158   0.47733   0.00000  Uiso   1.00
N273   N     0.24749   0.19544   0.70273   0.00000  Uiso   1.00
N274   N     0.23056   0.81729   0.52677   0.00000  Uiso   1.00
N275   N     0.04103   0.05172   0.33546   0.00000  Uiso   1.00
N276   N     0.26333   0.19558   0.56087   0.00000  Uiso   1.00
C277   C     0.33891   0.52137   0.87126   0.00000  Uiso   1.00
C278   C     0.32025   0.46512   0.89493   0.00000  Uiso   1.00
C279   C     0.31340   0.41775   0.83581   0.00000  Uiso   1.00
C280   C     0.29604   0.37041   0.87056   0.00000  Uiso   1.00
C281   C     0.26863   0.28305   0.89354   0.00000  Uiso   1.00
C282   C     0.37249   0.52972   0.94766   0.00000  Uiso   1.00
C283   C     0.40955   0.53668   0.93287   0.00000  Uiso   1.00
C284   C     0.43617   0.54372   0.01200   0.00000  Uiso   1.00
C285   C     0.48985   0.55670   0.11684   0.00000  Uiso   1.00
C286   C     0.31122   0.56936   0.88553   0.00000  Uiso   1.00
C287   C     0.29677   0.60966   0.81851   0.00000  Uiso   1.00
C288   C     0.27181   0.65009   0.84535   0.00000  Uiso   1.00
C289   C     0.23037   0.72462   0.85373   0.00000  Uiso   1.00
C290   C     0.32028   0.52153   0.03810   0.00000  Uiso   1.00
C291   C     0.31014   0.46521   0.98555   0.00000  Uiso   1.00
C292   C     0.29279   0.41793   0.02040   0.00000  Uiso   1.00
C293   C     0.28591   0.37050   0.96134   0.00000  Uiso   1.00
C294   C     0.36237   0.52981   0.03828   0.00000  Uiso   1.00
C295   C     0.38894   0.53686   0.11745   0.00000  Uiso   1.00
C296   C     0.42603   0.54381   0.10279   0.00000  Uiso   1.00
C297   C     0.30110   0.56945   0.97615   0.00000  Uiso   1.00
C298   C     0.27616   0.60984   0.00310   0.00000  Uiso   1.00
C299   C     0.26168   0.65018   0.93613   0.00000  Uiso   1.00
H300   H     0.34679   0.52130   0.80071   0.00000  Uiso   1.00
H301   H     0.32123   0.41770   0.76569   0.00000  Uiso   1.00
H302   H     0.41737   0.53661   0.86273   0.00000  Uiso   1.00
H303   H     0.30461   0.60958   0.74839   0.00000  Uiso   1.00
H304   H     0.28845   0.30287   0.76683   0.00000  Uiso   1.00
H305   H     0.49116   0.55362   0.97145   0.00000  Uiso   1.00
H306   H     0.25339   0.70749   0.73035   0.00000  Uiso   1.00
H307   H     0.31241   0.52160   0.10865   0.00000  Uiso   1.00
H308   H     0.28496   0.41801   0.09053   0.00000  Uiso   1.00
H309   H     0.38110   0.53693   0.18757   0.00000  Uiso   1.00
H310   H     0.26834   0.60989   0.07323   0.00000  Uiso   1.00
H311   H     0.25902   0.30312   0.03048   0.00000  Uiso   1.00
H312   H     0.46173   0.55388   0.23510   0.00000  Uiso   1.00
H313   H     0.22395   0.70775   0.99400   0.00000  Uiso   1.00
O314   O     0.25631   0.23484   0.88119   0.00000  Uiso   1.00
O315   O     0.52226   0.56383   0.14964   0.00000  Uiso   1.00
O316   O     0.21030   0.76570   0.83331   0.00000  Uiso   1.00
N317   N     0.28528   0.31715   0.83136   0.00000  Uiso   1.00
N318   N     0.47481   0.55158   0.02267   0.00000  Uiso   1.00
N319   N     0.25251   0.69544   0.79727   0.00000  Uiso   1.00
N320   N     0.26944   0.31729   0.97323   0.00000  Uiso   1.00
N321   N     0.45897   0.55172   0.16454   0.00000  Uiso   1.00
N322   N     0.23667   0.69558   0.93913   0.00000  Uiso   1.00
C323   C     0.83891   0.02137   0.87126   0.00000  Uiso   1.00
C324   C     0.82025   0.96512   0.89493   0.00000  Uiso   1.00
C325   C     0.81340   0.91775   0.83581   0.00000  Uiso   1.00
C326   C     0.79604   0.87041   0.87056   0.00000  Uiso   1.00
C327   C     0.76863   0.78305   0.89354   0.00000  Uiso   1.00
C328   C     0.87249   0.02972   0.94766   0.00000  Uiso   1.00
C329   C     0.90955   0.03668   0.93287   0.00000  Uiso   1.00
C330   C     0.93617   0.04372   0.01200   0.00000  Uiso   1.00
C331   C     0.98985   0.05670   0.11684   0.00000  Uiso   1.00
C332   C     0.81122   0.06936   0.88553   0.00000  Uiso   1.00
C333   C     0.79677   0.10966   0.81851   0.00000  Uiso   1.00
C334   C     0.77181   0.15009   0.84535   0.00000  Uiso   1.00
C335   C     0.73037   0.22462   0.85373   0.00000  Uiso   1.00
C336   C     0.82028   0.02153   0.03810   0.00000  Uiso   1.00
C337   C     0.81014   0.96521   0.98555   0.00000  Uiso   1.00
C338   C     0.79279   0.91793   0.02040   0.00000  Uiso   1.00
C339   C     0.78591   0.87050   0.96134   0.00000  Uiso   1.00
C340   C     0.86237   0.02981   0.03828   0.00000  Uiso   1.00
C341   C     0.88894   0.03686   0.11745   0.00000  Uiso   1.00
C342   C     0.92603   0.04381   0.10279   0.00000  Uiso   1.00
C343   C     0.80110   0.06945   0.97615   0.00000  Uiso   1.00
C344   C     0.77616   0.10984   0.00310   0.00000  Uiso   1.00
C345   C     0.76168   0.15018   0.93613   0.00000  Uiso   1.00
H346   H     0.84679   0.02130   0.80071   0.00000  Uiso   1.00
H347   H     0.82123   0.91770   0.76569   0.00000  Uiso   1.00
H348   H     0.91737   0.03661   0.86273   0.00000  Uiso   1.00
H349   H     0.80461   0.10958   0.74839   0.00000  Uiso   1.00
H350   H     0.78845   0.80287   0.76683   0.00000  Uiso   1.00
H351   H     0.99116   0.05362   0.97145   0.00000  Uiso   1.00
H352   H     0.75339   0.20749   0.73035   0.00000  Uiso   1.00
H353   H     0.81241   0.02160   0.10865   0.00000  Uiso   1.00
H354   H     0.78496   0.91801   0.09053   0.00000  Uiso   1.00
H355   H     0.88110   0.03693   0.18757   0.00000  Uiso   1.00
H356   H     0.76834   0.10989   0.07323   0.00000  Uiso   1.00
H357   H     0.75902   0.80312   0.03048   0.00000  Uiso   1.00
H358   H     0.96173   0.05388   0.23510   0.00000  Uiso   1.00
H359   H     0.72395   0.20775   0.99400   0.00000  Uiso   1.00
O360   O     0.75631   0.73484   0.88119   0.00000  Uiso   1.00
O361   O     0.02226   0.06383   0.14964   0.00000  Uiso   1.00
O362   O     0.71030   0.26570   0.83331   0.00000  Uiso   1.00
N363   N     0.78528   0.81715   0.83136   0.00000  Uiso   1.00
N364   N     0.97481   0.05158   0.02267   0.00000  Uiso   1.00
N365   N     0.75251   0.19544   0.79727   0.00000  Uiso   1.00
N366   N     0.76944   0.81729   0.97323   0.00000  Uiso   1.00
N367   N     0.95897   0.05172   0.16454   0.00000  Uiso   1.00
N368   N     0.73667   0.19558   0.93913   0.00000  Uiso   1.00
