data_job_02175
_audit_creation_date              2018-12-19
_audit_creation_method            'Materials Studio'
_symmetry_space_group_name_H-M    'P1'
_symmetry_Int_Tables_number       1
_symmetry_cell_setting            triclinic
loop_
_symmetry_equiv_pos_as_xyz
  x,y,z
_cell_length_a                    24.7248
_cell_length_b                    12.6290
_cell_length_c                    29.8015
_cell_angle_alpha                 90.0000
_cell_angle_beta                  135.1034
_cell_angle_gamma                 90.0000
loop_
_atom_site_label
_atom_site_type_symbol
_atom_site_fract_x
_atom_site_fract_y
_atom_site_fract_z
_atom_site_U_iso_or_equiv
_atom_site_adp_type
_atom_site_occupancy
C1     C     0.04153   0.77055   0.68602   0.00000  Uiso   1.00
C2     C     0.03059   0.87797   0.65712   0.00000  Uiso   1.00
C3     C     0.96661   0.94250   0.62366   0.00000  Uiso   1.00
C4     C     0.96767   0.03776   0.60103   0.00000  Uiso   1.00
C5     C     0.94112   0.20003   0.55453   0.00000  Uiso   1.00
C6     C     0.05762   0.69218   0.65771   0.00000  Uiso   1.00
C7     C     0.01638   0.60050   0.62476   0.00000  Uiso   1.00
C8     C     0.04020   0.53935   0.60265   0.00000  Uiso   1.00
C9     C     0.05565   0.41314   0.55711   0.00000  Uiso   1.00
C10    C     0.11561   0.77880   0.75647   0.00000  Uiso   1.00
C11    C     0.12314   0.75991   0.80655   0.00000  Uiso   1.00
C12    C     0.19579   0.77166   0.86758   0.00000  Uiso   1.00
C13    C     0.30128   0.77994   0.97537   0.00000  Uiso   1.00
C14    C     0.15717   0.82498   0.70534   0.00000  Uiso   1.00
C15    C     0.09340   0.90753   0.66761   0.00000  Uiso   1.00
C16    C     0.09456   0.00272   0.64503   0.00000  Uiso   1.00
C17    C     0.03060   0.06738   0.61154   0.00000  Uiso   1.00
C18    C     0.12043   0.72174   0.66820   0.00000  Uiso   1.00
C19    C     0.14433   0.66071   0.64613   0.00000  Uiso   1.00
C20    C     0.10313   0.56896   0.61315   0.00000  Uiso   1.00
C21    C     0.17843   0.80836   0.76696   0.00000  Uiso   1.00
C22    C     0.25108   0.82013   0.82792   0.00000  Uiso   1.00
C23    C     0.25871   0.80127   0.87809   0.00000  Uiso   1.00
H24    H     0.99262   0.74753   0.67786   0.00000  Uiso   1.00
H25    H     0.91801   0.91959   0.61555   0.00000  Uiso   1.00
H26    H     0.96778   0.57764   0.61666   0.00000  Uiso   1.00
H27    H     0.07451   0.73704   0.79842   0.00000  Uiso   1.00
H28    H     0.86298   0.12337   0.55107   0.00000  Uiso   1.00
H29    H     0.96793   0.40232   0.55344   0.00000  Uiso   1.00
H30    H     0.19301   0.73844   0.93671   0.00000  Uiso   1.00
H31    H     0.20608   0.84799   0.71350   0.00000  Uiso   1.00
H32    H     0.14318   0.02557   0.65315   0.00000  Uiso   1.00
H33    H     0.19294   0.68361   0.65426   0.00000  Uiso   1.00
H34    H     0.29968   0.84301   0.83602   0.00000  Uiso   1.00
H35    H     0.04573   0.20938   0.58159   0.00000  Uiso   1.00
H36    H     0.15068   0.48833   0.58396   0.00000  Uiso   1.00
H37    H     0.37576   0.82445   0.96723   0.00000  Uiso   1.00
O38    O     0.90911   0.28136   0.52597   0.00000  Uiso   1.00
O39    O     0.04681   0.33537   0.52908   0.00000  Uiso   1.00
O40    O     0.34211   0.77635   0.03192   0.00000  Uiso   1.00
N41    N     0.91463   0.11925   0.56655   0.00000  Uiso   1.00
N42    N     0.01274   0.44512   0.56875   0.00000  Uiso   1.00
N43    N     0.22317   0.75933   0.92708   0.00000  Uiso   1.00
N44    N     0.01297   0.16553   0.58297   0.00000  Uiso   1.00
N45    N     0.11108   0.49141   0.58517   0.00000  Uiso   1.00
N46    N     0.32151   0.80562   0.94350   0.00000  Uiso   1.00
C47    C     0.54153   0.27055   0.68602   0.00000  Uiso   1.00
C48    C     0.53059   0.37797   0.65712   0.00000  Uiso   1.00
C49    C     0.46661   0.44250   0.62366   0.00000  Uiso   1.00
C50    C     0.46767   0.53776   0.60103   0.00000  Uiso   1.00
C51    C     0.44112   0.70003   0.55453   0.00000  Uiso   1.00
C52    C     0.55762   0.19218   0.65771   0.00000  Uiso   1.00
C53    C     0.51638   0.10050   0.62476   0.00000  Uiso   1.00
C54    C     0.54020   0.03935   0.60265   0.00000  Uiso   1.00
C55    C     0.55565   0.91314   0.55711   0.00000  Uiso   1.00
C56    C     0.61561   0.27880   0.75647   0.00000  Uiso   1.00
C57    C     0.62314   0.25991   0.80655   0.00000  Uiso   1.00
C58    C     0.69579   0.27166   0.86758   0.00000  Uiso   1.00
C59    C     0.80128   0.27994   0.97537   0.00000  Uiso   1.00
C60    C     0.65717   0.32498   0.70534   0.00000  Uiso   1.00
C61    C     0.59340   0.40753   0.66761   0.00000  Uiso   1.00
C62    C     0.59456   0.50272   0.64503   0.00000  Uiso   1.00
C63    C     0.53060   0.56738   0.61154   0.00000  Uiso   1.00
C64    C     0.62043   0.22174   0.66820   0.00000  Uiso   1.00
C65    C     0.64433   0.16071   0.64613   0.00000  Uiso   1.00
C66    C     0.60313   0.06896   0.61315   0.00000  Uiso   1.00
C67    C     0.67843   0.30836   0.76696   0.00000  Uiso   1.00
C68    C     0.75108   0.32013   0.82792   0.00000  Uiso   1.00
C69    C     0.75871   0.30127   0.87809   0.00000  Uiso   1.00
H70    H     0.49262   0.24753   0.67786   0.00000  Uiso   1.00
H71    H     0.41801   0.41959   0.61555   0.00000  Uiso   1.00
H72    H     0.46778   0.07764   0.61666   0.00000  Uiso   1.00
H73    H     0.57451   0.23704   0.79842   0.00000  Uiso   1.00
H74    H     0.36298   0.62337   0.55107   0.00000  Uiso   1.00
H75    H     0.46793   0.90232   0.55344   0.00000  Uiso   1.00
H76    H     0.69301   0.23844   0.93671   0.00000  Uiso   1.00
H77    H     0.70608   0.34799   0.71350   0.00000  Uiso   1.00
H78    H     0.64318   0.52557   0.65315   0.00000  Uiso   1.00
H79    H     0.69294   0.18361   0.65426   0.00000  Uiso   1.00
H80    H     0.79968   0.34301   0.83602   0.00000  Uiso   1.00
H81    H     0.54573   0.70938   0.58159   0.00000  Uiso   1.00
H82    H     0.65068   0.98833   0.58396   0.00000  Uiso   1.00
H83    H     0.87576   0.32445   0.96723   0.00000  Uiso   1.00
O84    O     0.40911   0.78136   0.52597   0.00000  Uiso   1.00
O85    O     0.54681   0.83537   0.52908   0.00000  Uiso   1.00
O86    O     0.84211   0.27635   0.03192   0.00000  Uiso   1.00
N87    N     0.41463   0.61925   0.56655   0.00000  Uiso   1.00
N88    N     0.51274   0.94512   0.56875   0.00000  Uiso   1.00
N89    N     0.72317   0.25933   0.92708   0.00000  Uiso   1.00
N90    N     0.51297   0.66553   0.58297   0.00000  Uiso   1.00
N91    N     0.61108   0.99141   0.58517   0.00000  Uiso   1.00
N92    N     0.82151   0.30562   0.94350   0.00000  Uiso   1.00
C93    C     0.95847   0.77055   0.81398   0.00000  Uiso   1.00
C94    C     0.96941   0.87797   0.84288   0.00000  Uiso   1.00
C95    C     0.03339   0.94250   0.87634   0.00000  Uiso   1.00
C96    C     0.03233   0.03776   0.89897   0.00000  Uiso   1.00
C97    C     0.05888   0.20003   0.94547   0.00000  Uiso   1.00
C98    C     0.94238   0.69218   0.84229   0.00000  Uiso   1.00
C99    C     0.98362   0.60050   0.87524   0.00000  Uiso   1.00
C100   C     0.95980   0.53935   0.89735   0.00000  Uiso   1.00
C101   C     0.94435   0.41314   0.94289   0.00000  Uiso   1.00
C102   C     0.88439   0.77880   0.74353   0.00000  Uiso   1.00
C103   C     0.87686   0.75991   0.69345   0.00000  Uiso   1.00
C104   C     0.80421   0.77166   0.63242   0.00000  Uiso   1.00
C105   C     0.69872   0.77994   0.52463   0.00000  Uiso   1.00
C106   C     0.84283   0.82498   0.79466   0.00000  Uiso   1.00
C107   C     0.90660   0.90753   0.83239   0.00000  Uiso   1.00
C108   C     0.90544   0.00272   0.85497   0.00000  Uiso   1.00
C109   C     0.96940   0.06738   0.88846   0.00000  Uiso   1.00
C110   C     0.87957   0.72174   0.83180   0.00000  Uiso   1.00
C111   C     0.85567   0.66071   0.85387   0.00000  Uiso   1.00
C112   C     0.89687   0.56896   0.88685   0.00000  Uiso   1.00
C113   C     0.82157   0.80836   0.73304   0.00000  Uiso   1.00
C114   C     0.74892   0.82013   0.67208   0.00000  Uiso   1.00
C115   C     0.74129   0.80127   0.62191   0.00000  Uiso   1.00
H116   H     0.00738   0.74753   0.82214   0.00000  Uiso   1.00
H117   H     0.08199   0.91959   0.88445   0.00000  Uiso   1.00
H118   H     0.03222   0.57764   0.88334   0.00000  Uiso   1.00
H119   H     0.92549   0.73704   0.70158   0.00000  Uiso   1.00
H120   H     0.13702   0.12337   0.94893   0.00000  Uiso   1.00
H121   H     0.03207   0.40232   0.94656   0.00000  Uiso   1.00
H122   H     0.80699   0.73844   0.56329   0.00000  Uiso   1.00
H123   H     0.79392   0.84799   0.78650   0.00000  Uiso   1.00
H124   H     0.85682   0.02557   0.84685   0.00000  Uiso   1.00
H125   H     0.80706   0.68361   0.84574   0.00000  Uiso   1.00
H126   H     0.70032   0.84301   0.66398   0.00000  Uiso   1.00
H127   H     0.95427   0.20938   0.91841   0.00000  Uiso   1.00
H128   H     0.84932   0.48833   0.91604   0.00000  Uiso   1.00
H129   H     0.62424   0.82445   0.53277   0.00000  Uiso   1.00
O130   O     0.09089   0.28136   0.97403   0.00000  Uiso   1.00
O131   O     0.95319   0.33537   0.97092   0.00000  Uiso   1.00
O132   O     0.65789   0.77635   0.46808   0.00000  Uiso   1.00
N133   N     0.08537   0.11925   0.93345   0.00000  Uiso   1.00
N134   N     0.98726   0.44512   0.93125   0.00000  Uiso   1.00
N135   N     0.77683   0.75933   0.57292   0.00000  Uiso   1.00
N136   N     0.98703   0.16553   0.91703   0.00000  Uiso   1.00
N137   N     0.88892   0.49141   0.91483   0.00000  Uiso   1.00
N138   N     0.67849   0.80562   0.55650   0.00000  Uiso   1.00
C139   C     0.45847   0.27055   0.81398   0.00000  Uiso   1.00
C140   C     0.46941   0.37797   0.84288   0.00000  Uiso   1.00
C141   C     0.53339   0.44250   0.87634   0.00000  Uiso   1.00
C142   C     0.53233   0.53776   0.89897   0.00000  Uiso   1.00
C143   C     0.55888   0.70003   0.94547   0.00000  Uiso   1.00
C144   C     0.44238   0.19218   0.84229   0.00000  Uiso   1.00
C145   C     0.48362   0.10050   0.87524   0.00000  Uiso   1.00
C146   C     0.45980   0.03935   0.89735   0.00000  Uiso   1.00
C147   C     0.44435   0.91314   0.94289   0.00000  Uiso   1.00
C148   C     0.38439   0.27880   0.74353   0.00000  Uiso   1.00
C149   C     0.37686   0.25991   0.69345   0.00000  Uiso   1.00
C150   C     0.30421   0.27166   0.63242   0.00000  Uiso   1.00
C151   C     0.19872   0.27994   0.52463   0.00000  Uiso   1.00
C152   C     0.34283   0.32498   0.79466   0.00000  Uiso   1.00
C153   C     0.40660   0.40753   0.83239   0.00000  Uiso   1.00
C154   C     0.40544   0.50272   0.85497   0.00000  Uiso   1.00
C155   C     0.46940   0.56738   0.88846   0.00000  Uiso   1.00
C156   C     0.37957   0.22174   0.83180   0.00000  Uiso   1.00
C157   C     0.35567   0.16071   0.85387   0.00000  Uiso   1.00
C158   C     0.39687   0.06896   0.88685   0.00000  Uiso   1.00
C159   C     0.32157   0.30836   0.73304   0.00000  Uiso   1.00
C160   C     0.24892   0.32013   0.67208   0.00000  Uiso   1.00
C161   C     0.24129   0.30127   0.62191   0.00000  Uiso   1.00
H162   H     0.50738   0.24753   0.82214   0.00000  Uiso   1.00
H163   H     0.58199   0.41959   0.88445   0.00000  Uiso   1.00
H164   H     0.53222   0.07764   0.88334   0.00000  Uiso   1.00
H165   H     0.42549   0.23704   0.70158   0.00000  Uiso   1.00
H166   H     0.63702   0.62337   0.94893   0.00000  Uiso   1.00
H167   H     0.53207   0.90232   0.94656   0.00000  Uiso   1.00
H168   H     0.30699   0.23844   0.56329   0.00000  Uiso   1.00
H169   H     0.29392   0.34799   0.78650   0.00000  Uiso   1.00
H170   H     0.35682   0.52557   0.84685   0.00000  Uiso   1.00
H171   H     0.30706   0.18361   0.84574   0.00000  Uiso   1.00
H172   H     0.20032   0.34301   0.66398   0.00000  Uiso   1.00
H173   H     0.45427   0.70938   0.91841   0.00000  Uiso   1.00
H174   H     0.34932   0.98833   0.91604   0.00000  Uiso   1.00
H175   H     0.12424   0.32445   0.53277   0.00000  Uiso   1.00
O176   O     0.59089   0.78136   0.97403   0.00000  Uiso   1.00
O177   O     0.45319   0.83537   0.97092   0.00000  Uiso   1.00
O178   O     0.15789   0.27635   0.46808   0.00000  Uiso   1.00
N179   N     0.58537   0.61925   0.93345   0.00000  Uiso   1.00
N180   N     0.48726   0.94512   0.93125   0.00000  Uiso   1.00
N181   N     0.27683   0.25933   0.57292   0.00000  Uiso   1.00
N182   N     0.48703   0.66553   0.91703   0.00000  Uiso   1.00
N183   N     0.38892   0.99141   0.91483   0.00000  Uiso   1.00
N184   N     0.17849   0.30562   0.55650   0.00000  Uiso   1.00
C185   C     0.95847   0.22945   0.31398   0.00000  Uiso   1.00
C186   C     0.96941   0.12203   0.34288   0.00000  Uiso   1.00
C187   C     0.03339   0.05750   0.37634   0.00000  Uiso   1.00
C188   C     0.03233   0.96224   0.39897   0.00000  Uiso   1.00
C189   C     0.05888   0.79997   0.44547   0.00000  Uiso   1.00
C190   C     0.94238   0.30782   0.34229   0.00000  Uiso   1.00
C191   C     0.98362   0.39950   0.37524   0.00000  Uiso   1.00
C192   C     0.95980   0.46065   0.39735   0.00000  Uiso   1.00
C193   C     0.94435   0.58686   0.44289   0.00000  Uiso   1.00
C194   C     0.88439   0.22120   0.24353   0.00000  Uiso   1.00
C195   C     0.87686   0.24009   0.19345   0.00000  Uiso   1.00
C196   C     0.80421   0.22834   0.13242   0.00000  Uiso   1.00
C197   C     0.69872   0.22006   0.02463   0.00000  Uiso   1.00
C198   C     0.84283   0.17502   0.29466   0.00000  Uiso   1.00
C199   C     0.90660   0.09247   0.33239   0.00000  Uiso   1.00
C200   C     0.90544   0.99728   0.35497   0.00000  Uiso   1.00
C201   C     0.96940   0.93262   0.38846   0.00000  Uiso   1.00
C202   C     0.87957   0.27826   0.33180   0.00000  Uiso   1.00
C203   C     0.85567   0.33929   0.35387   0.00000  Uiso   1.00
C204   C     0.89687   0.43104   0.38685   0.00000  Uiso   1.00
C205   C     0.82157   0.19164   0.23304   0.00000  Uiso   1.00
C206   C     0.74892   0.17987   0.17208   0.00000  Uiso   1.00
C207   C     0.74129   0.19873   0.12191   0.00000  Uiso   1.00
H208   H     0.00738   0.25247   0.32214   0.00000  Uiso   1.00
H209   H     0.08199   0.08041   0.38445   0.00000  Uiso   1.00
H210   H     0.03222   0.42236   0.38334   0.00000  Uiso   1.00
H211   H     0.92549   0.26296   0.20158   0.00000  Uiso   1.00
H212   H     0.13702   0.87663   0.44893   0.00000  Uiso   1.00
H213   H     0.03207   0.59768   0.44656   0.00000  Uiso   1.00
H214   H     0.80699   0.26156   0.06329   0.00000  Uiso   1.00
H215   H     0.79392   0.15201   0.28650   0.00000  Uiso   1.00
H216   H     0.85682   0.97443   0.34685   0.00000  Uiso   1.00
H217   H     0.80706   0.31639   0.34574   0.00000  Uiso   1.00
H218   H     0.70032   0.15699   0.16398   0.00000  Uiso   1.00
H219   H     0.95427   0.79062   0.41841   0.00000  Uiso   1.00
H220   H     0.84932   0.51167   0.41604   0.00000  Uiso   1.00
H221   H     0.62424   0.17555   0.03277   0.00000  Uiso   1.00
O222   O     0.09089   0.71864   0.47403   0.00000  Uiso   1.00
O223   O     0.95319   0.66463   0.47092   0.00000  Uiso   1.00
O224   O     0.65789   0.22365   0.96808   0.00000  Uiso   1.00
N225   N     0.08537   0.88075   0.43345   0.00000  Uiso   1.00
N226   N     0.98726   0.55488   0.43125   0.00000  Uiso   1.00
N227   N     0.77683   0.24067   0.07292   0.00000  Uiso   1.00
N228   N     0.98703   0.83447   0.41703   0.00000  Uiso   1.00
N229   N     0.88892   0.50859   0.41483   0.00000  Uiso   1.00
N230   N     0.67849   0.19438   0.05650   0.00000  Uiso   1.00
C231   C     0.45847   0.72945   0.31398   0.00000  Uiso   1.00
C232   C     0.46941   0.62203   0.34288   0.00000  Uiso   1.00
C233   C     0.53339   0.55750   0.37634   0.00000  Uiso   1.00
C234   C     0.53233   0.46224   0.39897   0.00000  Uiso   1.00
C235   C     0.55888   0.29997   0.44547   0.00000  Uiso   1.00
C236   C     0.44238   0.80782   0.34229   0.00000  Uiso   1.00
C237   C     0.48362   0.89950   0.37524   0.00000  Uiso   1.00
C238   C     0.45980   0.96065   0.39735   0.00000  Uiso   1.00
C239   C     0.44435   0.08686   0.44289   0.00000  Uiso   1.00
C240   C     0.38439   0.72120   0.24353   0.00000  Uiso   1.00
C241   C     0.37686   0.74009   0.19345   0.00000  Uiso   1.00
C242   C     0.30421   0.72834   0.13242   0.00000  Uiso   1.00
C243   C     0.19872   0.72006   0.02463   0.00000  Uiso   1.00
C244   C     0.34283   0.67502   0.29466   0.00000  Uiso   1.00
C245   C     0.40660   0.59247   0.33239   0.00000  Uiso   1.00
C246   C     0.40544   0.49728   0.35497   0.00000  Uiso   1.00
C247   C     0.46940   0.43262   0.38846   0.00000  Uiso   1.00
C248   C     0.37957   0.77826   0.33180   0.00000  Uiso   1.00
C249   C     0.35567   0.83929   0.35387   0.00000  Uiso   1.00
C250   C     0.39687   0.93104   0.38685   0.00000  Uiso   1.00
C251   C     0.32157   0.69164   0.23304   0.00000  Uiso   1.00
C252   C     0.24892   0.67987   0.17208   0.00000  Uiso   1.00
C253   C     0.24129   0.69873   0.12191   0.00000  Uiso   1.00
H254   H     0.50738   0.75247   0.32214   0.00000  Uiso   1.00
H255   H     0.58199   0.58041   0.38445   0.00000  Uiso   1.00
H256   H     0.53222   0.92236   0.38334   0.00000  Uiso   1.00
H257   H     0.42549   0.76296   0.20158   0.00000  Uiso   1.00
H258   H     0.63702   0.37663   0.44893   0.00000  Uiso   1.00
H259   H     0.53207   0.09768   0.44656   0.00000  Uiso   1.00
H260   H     0.30699   0.76156   0.06329   0.00000  Uiso   1.00
H261   H     0.29392   0.65201   0.28650   0.00000  Uiso   1.00
H262   H     0.35682   0.47443   0.34685   0.00000  Uiso   1.00
H263   H     0.30706   0.81639   0.34574   0.00000  Uiso   1.00
H264   H     0.20032   0.65699   0.16398   0.00000  Uiso   1.00
H265   H     0.45427   0.29062   0.41841   0.00000  Uiso   1.00
H266   H     0.34932   0.01167   0.41604   0.00000  Uiso   1.00
H267   H     0.12424   0.67555   0.03277   0.00000  Uiso   1.00
O268   O     0.59089   0.21864   0.47403   0.00000  Uiso   1.00
O269   O     0.45319   0.16463   0.47092   0.00000  Uiso   1.00
O270   O     0.15789   0.72365   0.96808   0.00000  Uiso   1.00
N271   N     0.58537   0.38075   0.43345   0.00000  Uiso   1.00
N272   N     0.48726   0.05488   0.43125   0.00000  Uiso   1.00
N273   N     0.27683   0.74067   0.07292   0.00000  Uiso   1.00
N274   N     0.48703   0.33447   0.41703   0.00000  Uiso   1.00
N275   N     0.38892   0.00859   0.41483   0.00000  Uiso   1.00
N276   N     0.17849   0.69438   0.05650   0.00000  Uiso   1.00
C277   C     0.04153   0.22945   0.18602   0.00000  Uiso   1.00
C278   C     0.03059   0.12203   0.15712   0.00000  Uiso   1.00
C279   C     0.96661   0.05750   0.12366   0.00000  Uiso   1.00
C280   C     0.96767   0.96224   0.10103   0.00000  Uiso   1.00
C281   C     0.94112   0.79997   0.05453   0.00000  Uiso   1.00
C282   C     0.05762   0.30782   0.15771   0.00000  Uiso   1.00
C283   C     0.01638   0.39950   0.12476   0.00000  Uiso   1.00
C284   C     0.04020   0.46065   0.10265   0.00000  Uiso   1.00
C285   C     0.05565   0.58686   0.05711   0.00000  Uiso   1.00
C286   C     0.11561   0.22120   0.25647   0.00000  Uiso   1.00
C287   C     0.12314   0.24009   0.30655   0.00000  Uiso   1.00
C288   C     0.19579   0.22834   0.36758   0.00000  Uiso   1.00
C289   C     0.30128   0.22006   0.47537   0.00000  Uiso   1.00
C290   C     0.15717   0.17502   0.20534   0.00000  Uiso   1.00
C291   C     0.09340   0.09247   0.16761   0.00000  Uiso   1.00
C292   C     0.09456   0.99728   0.14503   0.00000  Uiso   1.00
C293   C     0.03060   0.93262   0.11154   0.00000  Uiso   1.00
C294   C     0.12043   0.27826   0.16820   0.00000  Uiso   1.00
C295   C     0.14433   0.33929   0.14613   0.00000  Uiso   1.00
C296   C     0.10313   0.43104   0.11315   0.00000  Uiso   1.00
C297   C     0.17843   0.19164   0.26696   0.00000  Uiso   1.00
C298   C     0.25108   0.17987   0.32792   0.00000  Uiso   1.00
C299   C     0.25871   0.19873   0.37809   0.00000  Uiso   1.00
H300   H     0.99262   0.25247   0.17786   0.00000  Uiso   1.00
H301   H     0.91801   0.08041   0.11555   0.00000  Uiso   1.00
H302   H     0.96778   0.42236   0.11666   0.00000  Uiso   1.00
H303   H     0.07451   0.26296   0.29842   0.00000  Uiso   1.00
H304   H     0.86298   0.87663   0.05107   0.00000  Uiso   1.00
H305   H     0.96793   0.59768   0.05344   0.00000  Uiso   1.00
H306   H     0.19301   0.26156   0.43671   0.00000  Uiso   1.00
H307   H     0.20608   0.15201   0.21350   0.00000  Uiso   1.00
H308   H     0.14318   0.97443   0.15315   0.00000  Uiso   1.00
H309   H     0.19294   0.31639   0.15426   0.00000  Uiso   1.00
H310   H     0.29968   0.15699   0.33602   0.00000  Uiso   1.00
H311   H     0.04573   0.79062   0.08159   0.00000  Uiso   1.00
H312   H     0.15068   0.51167   0.08396   0.00000  Uiso   1.00
H313   H     0.37576   0.17555   0.46723   0.00000  Uiso   1.00
O314   O     0.90911   0.71864   0.02597   0.00000  Uiso   1.00
O315   O     0.04681   0.66463   0.02908   0.00000  Uiso   1.00
O316   O     0.34211   0.22365   0.53192   0.00000  Uiso   1.00
N317   N     0.91463   0.88075   0.06655   0.00000  Uiso   1.00
N318   N     0.01274   0.55488   0.06875   0.00000  Uiso   1.00
N319   N     0.22317   0.24067   0.42708   0.00000  Uiso   1.00
N320   N     0.01297   0.83447   0.08297   0.00000  Uiso   1.00
N321   N     0.11108   0.50859   0.08517   0.00000  Uiso   1.00
N322   N     0.32151   0.19438   0.44350   0.00000  Uiso   1.00
C323   C     0.54153   0.72945   0.18602   0.00000  Uiso   1.00
C324   C     0.53059   0.62203   0.15712   0.00000  Uiso   1.00
C325   C     0.46661   0.55750   0.12366   0.00000  Uiso   1.00
C326   C     0.46767   0.46224   0.10103   0.00000  Uiso   1.00
C327   C     0.44112   0.29997   0.05453   0.00000  Uiso   1.00
C328   C     0.55762   0.80782   0.15771   0.00000  Uiso   1.00
C329   C     0.51638   0.89950   0.12476   0.00000  Uiso   1.00
C330   C     0.54020   0.96065   0.10265   0.00000  Uiso   1.00
C331   C     0.55565   0.08686   0.05711   0.00000  Uiso   1.00
C332   C     0.61561   0.72120   0.25647   0.00000  Uiso   1.00
C333   C     0.62314   0.74009   0.30655   0.00000  Uiso   1.00
C334   C     0.69579   0.72834   0.36758   0.00000  Uiso   1.00
C335   C     0.80128   0.72006   0.47537   0.00000  Uiso   1.00
C336   C     0.65717   0.67502   0.20534   0.00000  Uiso   1.00
C337   C     0.59340   0.59247   0.16761   0.00000  Uiso   1.00
C338   C     0.59456   0.49728   0.14503   0.00000  Uiso   1.00
C339   C     0.53060   0.43262   0.11154   0.00000  Uiso   1.00
C340   C     0.62043   0.77826   0.16820   0.00000  Uiso   1.00
C341   C     0.64433   0.83929   0.14613   0.00000  Uiso   1.00
C342   C     0.60313   0.93104   0.11315   0.00000  Uiso   1.00
C343   C     0.67843   0.69164   0.26696   0.00000  Uiso   1.00
C344   C     0.75108   0.67987   0.32792   0.00000  Uiso   1.00
C345   C     0.75871   0.69873   0.37809   0.00000  Uiso   1.00
H346   H     0.49262   0.75247   0.17786   0.00000  Uiso   1.00
H347   H     0.41801   0.58041   0.11555   0.00000  Uiso   1.00
H348   H     0.46778   0.92236   0.11666   0.00000  Uiso   1.00
H349   H     0.57451   0.76296   0.29842   0.00000  Uiso   1.00
H350   H     0.36298   0.37663   0.05107   0.00000  Uiso   1.00
H351   H     0.46793   0.09768   0.05344   0.00000  Uiso   1.00
H352   H     0.69301   0.76156   0.43671   0.00000  Uiso   1.00
H353   H     0.70608   0.65201   0.21350   0.00000  Uiso   1.00
H354   H     0.64318   0.47443   0.15315   0.00000  Uiso   1.00
H355   H     0.69294   0.81639   0.15426   0.00000  Uiso   1.00
H356   H     0.79968   0.65699   0.33602   0.00000  Uiso   1.00
H357   H     0.54573   0.29062   0.08159   0.00000  Uiso   1.00
H358   H     0.65068   0.01167   0.08396   0.00000  Uiso   1.00
H359   H     0.87576   0.67555   0.46723   0.00000  Uiso   1.00
O360   O     0.40911   0.21864   0.02597   0.00000  Uiso   1.00
O361   O     0.54681   0.16463   0.02908   0.00000  Uiso   1.00
O362   O     0.84211   0.72365   0.53192   0.00000  Uiso   1.00
N363   N     0.41463   0.38075   0.06655   0.00000  Uiso   1.00
N364   N     0.51274   0.05488   0.06875   0.00000  Uiso   1.00
N365   N     0.72317   0.74067   0.42708   0.00000  Uiso   1.00
N366   N     0.51297   0.33447   0.08297   0.00000  Uiso   1.00
N367   N     0.61108   0.00859   0.08517   0.00000  Uiso   1.00
N368   N     0.82151   0.69438   0.44350   0.00000  Uiso   1.00
