data_job_03974
_audit_creation_date              2018-12-19
_audit_creation_method            'Materials Studio'
_symmetry_space_group_name_H-M    'P1'
_symmetry_Int_Tables_number       1
_symmetry_cell_setting            triclinic
loop_
_symmetry_equiv_pos_as_xyz
  x,y,z
_cell_length_a                    23.3097
_cell_length_b                    10.2817
_cell_length_c                    14.1440
_cell_angle_alpha                 90.0000
_cell_angle_beta                  75.0205
_cell_angle_gamma                 90.0000
loop_
_atom_site_label
_atom_site_type_symbol
_atom_site_fract_x
_atom_site_fract_y
_atom_site_fract_z
_atom_site_U_iso_or_equiv
_atom_site_adp_type
_atom_site_occupancy
C1     C     0.24237   0.81811   0.05191   0.00000  Uiso   1.00
C2     C     0.19907   0.77392   0.99395   0.00000  Uiso   1.00
C3     C     0.14959   0.69582   0.02912   0.00000  Uiso   1.00
C4     C     0.11558   0.66627   0.96459   0.00000  Uiso   1.00
C5     C     0.04608   0.59046   0.88920   0.00000  Uiso   1.00
C6     C     0.30366   0.77335   0.99347   0.00000  Uiso   1.00
C7     C     0.34212   0.69478   0.02825   0.00000  Uiso   1.00
C8     C     0.39617   0.66476   0.96331   0.00000  Uiso   1.00
C9     C     0.48906   0.58814   0.88721   0.00000  Uiso   1.00
C10    C     0.24331   0.96627   0.04692   0.00000  Uiso   1.00
C11    C     0.23105   0.04993   0.12663   0.00000  Uiso   1.00
C12    C     0.23431   0.18235   0.10670   0.00000  Uiso   1.00
C13    C     0.23350   0.40527   0.11358   0.00000  Uiso   1.00
C14    C     0.26997   0.90452   0.87477   0.00000  Uiso   1.00
C15    C     0.21406   0.82085   0.89773   0.00000  Uiso   1.00
C16    C     0.18012   0.79142   0.83313   0.00000  Uiso   1.00
C17    C     0.13060   0.71329   0.86820   0.00000  Uiso   1.00
C18    C     0.31865   0.82028   0.89726   0.00000  Uiso   1.00
C19    C     0.37266   0.79038   0.83226   0.00000  Uiso   1.00
C20    C     0.41119   0.71178   0.86692   0.00000  Uiso   1.00
C21    C     0.25830   0.01321   0.95070   0.00000  Uiso   1.00
C22    C     0.26158   0.14553   0.93064   0.00000  Uiso   1.00
C23    C     0.24933   0.22937   0.01031   0.00000  Uiso   1.00
H24    H     0.23071   0.78157   0.12682   0.00000  Uiso   1.00
H25    H     0.13800   0.65951   0.10358   0.00000  Uiso   1.00
H26    H     0.33051   0.65848   0.10271   0.00000  Uiso   1.00
H27    H     0.21945   0.01357   0.20108   0.00000  Uiso   1.00
H28    H     0.04185   0.54484   0.03537   0.00000  Uiso   1.00
H29    H     0.44776   0.54271   0.03355   0.00000  Uiso   1.00
H30    H     0.21358   0.29149   0.24098   0.00000  Uiso   1.00
H31    H     0.28165   0.94106   0.79986   0.00000  Uiso   1.00
H32    H     0.19173   0.82776   0.75867   0.00000  Uiso   1.00
H33    H     0.38424   0.82672   0.75780   0.00000  Uiso   1.00
H34    H     0.27319   0.18181   0.85617   0.00000  Uiso   1.00
H35    H     0.08546   0.68139   0.75543   0.00000  Uiso   1.00
H36    H     0.49138   0.67926   0.75361   0.00000  Uiso   1.00
H37    H     0.25720   0.42804   0.96104   0.00000  Uiso   1.00
O38    O     0.00360   0.53567   0.87420   0.00000  Uiso   1.00
O39    O     0.53615   0.53289   0.87181   0.00000  Uiso   1.00
O40    O     0.22891   0.51527   0.14396   0.00000  Uiso   1.00
N41    N     0.06444   0.59255   0.97515   0.00000  Uiso   1.00
N42    N     0.44395   0.59054   0.97344   0.00000  Uiso   1.00
N43    N     0.22502   0.29059   0.16737   0.00000  Uiso   1.00
N44    N     0.08791   0.66603   0.82451   0.00000  Uiso   1.00
N45    N     0.46741   0.66401   0.82280   0.00000  Uiso   1.00
N46    N     0.24849   0.36406   0.01673   0.00000  Uiso   1.00
C47    C     0.75763   0.31811   0.44809   0.00000  Uiso   1.00
C48    C     0.80093   0.27392   0.50605   0.00000  Uiso   1.00
C49    C     0.85041   0.19582   0.47088   0.00000  Uiso   1.00
C50    C     0.88442   0.16627   0.53541   0.00000  Uiso   1.00
C51    C     0.95392   0.09046   0.61080   0.00000  Uiso   1.00
C52    C     0.69634   0.27335   0.50653   0.00000  Uiso   1.00
C53    C     0.65788   0.19478   0.47175   0.00000  Uiso   1.00
C54    C     0.60383   0.16476   0.53669   0.00000  Uiso   1.00
C55    C     0.51094   0.08814   0.61279   0.00000  Uiso   1.00
C56    C     0.75669   0.46627   0.45308   0.00000  Uiso   1.00
C57    C     0.76895   0.54993   0.37337   0.00000  Uiso   1.00
C58    C     0.76569   0.68235   0.39330   0.00000  Uiso   1.00
C59    C     0.76650   0.90527   0.38642   0.00000  Uiso   1.00
C60    C     0.73003   0.40452   0.62523   0.00000  Uiso   1.00
C61    C     0.78594   0.32085   0.60227   0.00000  Uiso   1.00
C62    C     0.81988   0.29142   0.66687   0.00000  Uiso   1.00
C63    C     0.86940   0.21329   0.63180   0.00000  Uiso   1.00
C64    C     0.68135   0.32028   0.60274   0.00000  Uiso   1.00
C65    C     0.62734   0.29038   0.66774   0.00000  Uiso   1.00
C66    C     0.58881   0.21178   0.63308   0.00000  Uiso   1.00
C67    C     0.74170   0.51321   0.54930   0.00000  Uiso   1.00
C68    C     0.73842   0.64553   0.56936   0.00000  Uiso   1.00
C69    C     0.75067   0.72937   0.48969   0.00000  Uiso   1.00
H70    H     0.76929   0.28157   0.37318   0.00000  Uiso   1.00
H71    H     0.86200   0.15951   0.39642   0.00000  Uiso   1.00
H72    H     0.66949   0.15848   0.39729   0.00000  Uiso   1.00
H73    H     0.78055   0.51357   0.29892   0.00000  Uiso   1.00
H74    H     0.95815   0.04484   0.46463   0.00000  Uiso   1.00
H75    H     0.55224   0.04271   0.46645   0.00000  Uiso   1.00
H76    H     0.78642   0.79149   0.25902   0.00000  Uiso   1.00
H77    H     0.71835   0.44106   0.70014   0.00000  Uiso   1.00
H78    H     0.80827   0.32776   0.74133   0.00000  Uiso   1.00
H79    H     0.61576   0.32672   0.74220   0.00000  Uiso   1.00
H80    H     0.72681   0.68181   0.64383   0.00000  Uiso   1.00
H81    H     0.91454   0.18139   0.74457   0.00000  Uiso   1.00
H82    H     0.50862   0.17926   0.74639   0.00000  Uiso   1.00
H83    H     0.74280   0.92804   0.53896   0.00000  Uiso   1.00
O84    O     0.99640   0.03567   0.62580   0.00000  Uiso   1.00
O85    O     0.46385   0.03289   0.62819   0.00000  Uiso   1.00
O86    O     0.77109   0.01527   0.35604   0.00000  Uiso   1.00
N87    N     0.93556   0.09255   0.52485   0.00000  Uiso   1.00
N88    N     0.55605   0.09054   0.52656   0.00000  Uiso   1.00
N89    N     0.77498   0.79059   0.33263   0.00000  Uiso   1.00
N90    N     0.91209   0.16603   0.67549   0.00000  Uiso   1.00
N91    N     0.53259   0.16401   0.67720   0.00000  Uiso   1.00
N92    N     0.75151   0.86406   0.48327   0.00000  Uiso   1.00
C93    C     0.75763   0.18189   0.94809   0.00000  Uiso   1.00
C94    C     0.80093   0.22608   0.00605   0.00000  Uiso   1.00
C95    C     0.85041   0.30418   0.97088   0.00000  Uiso   1.00
C96    C     0.88442   0.33373   0.03541   0.00000  Uiso   1.00
C97    C     0.95392   0.40954   0.11080   0.00000  Uiso   1.00
C98    C     0.69634   0.22665   0.00653   0.00000  Uiso   1.00
C99    C     0.65788   0.30522   0.97175   0.00000  Uiso   1.00
C100   C     0.60383   0.33524   0.03669   0.00000  Uiso   1.00
C101   C     0.51094   0.41186   0.11279   0.00000  Uiso   1.00
C102   C     0.75669   0.03373   0.95308   0.00000  Uiso   1.00
C103   C     0.76895   0.95007   0.87337   0.00000  Uiso   1.00
C104   C     0.76569   0.81765   0.89330   0.00000  Uiso   1.00
C105   C     0.76650   0.59473   0.88642   0.00000  Uiso   1.00
C106   C     0.73003   0.09548   0.12523   0.00000  Uiso   1.00
C107   C     0.78594   0.17915   0.10227   0.00000  Uiso   1.00
C108   C     0.81988   0.20858   0.16687   0.00000  Uiso   1.00
C109   C     0.86940   0.28671   0.13180   0.00000  Uiso   1.00
C110   C     0.68135   0.17972   0.10274   0.00000  Uiso   1.00
C111   C     0.62734   0.20962   0.16774   0.00000  Uiso   1.00
C112   C     0.58881   0.28822   0.13308   0.00000  Uiso   1.00
C113   C     0.74170   0.98679   0.04930   0.00000  Uiso   1.00
C114   C     0.73842   0.85447   0.06936   0.00000  Uiso   1.00
C115   C     0.75067   0.77063   0.98969   0.00000  Uiso   1.00
H116   H     0.76929   0.21843   0.87318   0.00000  Uiso   1.00
H117   H     0.86200   0.34049   0.89642   0.00000  Uiso   1.00
H118   H     0.66949   0.34152   0.89729   0.00000  Uiso   1.00
H119   H     0.78055   0.98643   0.79892   0.00000  Uiso   1.00
H120   H     0.95815   0.45516   0.96463   0.00000  Uiso   1.00
H121   H     0.55224   0.45729   0.96645   0.00000  Uiso   1.00
H122   H     0.78642   0.70851   0.75902   0.00000  Uiso   1.00
H123   H     0.71835   0.05894   0.20014   0.00000  Uiso   1.00
H124   H     0.80827   0.17224   0.24133   0.00000  Uiso   1.00
H125   H     0.61576   0.17328   0.24220   0.00000  Uiso   1.00
H126   H     0.72681   0.81819   0.14383   0.00000  Uiso   1.00
H127   H     0.91454   0.31861   0.24457   0.00000  Uiso   1.00
H128   H     0.50862   0.32074   0.24639   0.00000  Uiso   1.00
H129   H     0.74280   0.57196   0.03896   0.00000  Uiso   1.00
O130   O     0.99640   0.46433   0.12580   0.00000  Uiso   1.00
O131   O     0.46385   0.46711   0.12819   0.00000  Uiso   1.00
O132   O     0.77109   0.48473   0.85604   0.00000  Uiso   1.00
N133   N     0.93556   0.40745   0.02485   0.00000  Uiso   1.00
N134   N     0.55605   0.40946   0.02656   0.00000  Uiso   1.00
N135   N     0.77498   0.70941   0.83263   0.00000  Uiso   1.00
N136   N     0.91209   0.33397   0.17549   0.00000  Uiso   1.00
N137   N     0.53259   0.33599   0.17720   0.00000  Uiso   1.00
N138   N     0.75151   0.63594   0.98327   0.00000  Uiso   1.00
C139   C     0.24237   0.68189   0.55191   0.00000  Uiso   1.00
C140   C     0.19907   0.72608   0.49395   0.00000  Uiso   1.00
C141   C     0.14959   0.80418   0.52912   0.00000  Uiso   1.00
C142   C     0.11558   0.83373   0.46459   0.00000  Uiso   1.00
C143   C     0.04608   0.90954   0.38920   0.00000  Uiso   1.00
C144   C     0.30366   0.72665   0.49347   0.00000  Uiso   1.00
C145   C     0.34212   0.80522   0.52825   0.00000  Uiso   1.00
C146   C     0.39617   0.83524   0.46331   0.00000  Uiso   1.00
C147   C     0.48906   0.91186   0.38721   0.00000  Uiso   1.00
C148   C     0.24331   0.53373   0.54692   0.00000  Uiso   1.00
C149   C     0.23105   0.45007   0.62663   0.00000  Uiso   1.00
C150   C     0.23431   0.31765   0.60670   0.00000  Uiso   1.00
C151   C     0.23350   0.09473   0.61358   0.00000  Uiso   1.00
C152   C     0.26997   0.59548   0.37477   0.00000  Uiso   1.00
C153   C     0.21406   0.67915   0.39773   0.00000  Uiso   1.00
C154   C     0.18012   0.70858   0.33313   0.00000  Uiso   1.00
C155   C     0.13060   0.78671   0.36820   0.00000  Uiso   1.00
C156   C     0.31865   0.67972   0.39726   0.00000  Uiso   1.00
C157   C     0.37266   0.70962   0.33226   0.00000  Uiso   1.00
C158   C     0.41119   0.78822   0.36692   0.00000  Uiso   1.00
C159   C     0.25830   0.48679   0.45070   0.00000  Uiso   1.00
C160   C     0.26158   0.35447   0.43064   0.00000  Uiso   1.00
C161   C     0.24933   0.27063   0.51031   0.00000  Uiso   1.00
H162   H     0.23071   0.71843   0.62682   0.00000  Uiso   1.00
H163   H     0.13800   0.84049   0.60358   0.00000  Uiso   1.00
H164   H     0.33051   0.84152   0.60271   0.00000  Uiso   1.00
H165   H     0.21945   0.48643   0.70108   0.00000  Uiso   1.00
H166   H     0.04185   0.95516   0.53537   0.00000  Uiso   1.00
H167   H     0.44776   0.95729   0.53355   0.00000  Uiso   1.00
H168   H     0.21358   0.20851   0.74098   0.00000  Uiso   1.00
H169   H     0.28165   0.55894   0.29986   0.00000  Uiso   1.00
H170   H     0.19173   0.67224   0.25867   0.00000  Uiso   1.00
H171   H     0.38424   0.67328   0.25780   0.00000  Uiso   1.00
H172   H     0.27319   0.31819   0.35617   0.00000  Uiso   1.00
H173   H     0.08546   0.81861   0.25543   0.00000  Uiso   1.00
H174   H     0.49138   0.82074   0.25361   0.00000  Uiso   1.00
H175   H     0.25720   0.07196   0.46104   0.00000  Uiso   1.00
O176   O     0.00360   0.96433   0.37420   0.00000  Uiso   1.00
O177   O     0.53615   0.96711   0.37181   0.00000  Uiso   1.00
O178   O     0.22891   0.98473   0.64396   0.00000  Uiso   1.00
N179   N     0.06444   0.90745   0.47515   0.00000  Uiso   1.00
N180   N     0.44395   0.90946   0.47344   0.00000  Uiso   1.00
N181   N     0.22502   0.20941   0.66737   0.00000  Uiso   1.00
N182   N     0.08791   0.83397   0.32451   0.00000  Uiso   1.00
N183   N     0.46741   0.83599   0.32280   0.00000  Uiso   1.00
N184   N     0.24849   0.13594   0.51673   0.00000  Uiso   1.00
