data_job_03388
_audit_creation_date              2018-12-19
_audit_creation_method            'Materials Studio'
_symmetry_space_group_name_H-M    'P1'
_symmetry_Int_Tables_number       1
_symmetry_cell_setting            triclinic
loop_
_symmetry_equiv_pos_as_xyz
  x,y,z
_cell_length_a                    19.6180
_cell_length_b                    19.6180
_cell_length_c                    13.1253
_cell_angle_alpha                 90.0000
_cell_angle_beta                  90.0000
_cell_angle_gamma                 90.0000
loop_
_atom_site_label
_atom_site_type_symbol
_atom_site_fract_x
_atom_site_fract_y
_atom_site_fract_z
_atom_site_U_iso_or_equiv
_atom_site_adp_type
_atom_site_occupancy
C1     C     0.73194   0.72725   0.62934   0.00000  Uiso   1.00
C2     C     0.74112   0.67630   0.54267   0.00000  Uiso   1.00
C3     C     0.80302   0.65402   0.50381   0.00000  Uiso   1.00
C4     C     0.80060   0.60729   0.42446   0.00000  Uiso   1.00
C5     C     0.82431   0.53180   0.29578   0.00000  Uiso   1.00
C6     C     0.68771   0.78447   0.58675   0.00000  Uiso   1.00
C7     C     0.70471   0.85313   0.58496   0.00000  Uiso   1.00
C8     C     0.65732   0.89746   0.54272   0.00000  Uiso   1.00
C9     C     0.59809   0.98990   0.48254   0.00000  Uiso   1.00
C10    C     0.68859   0.69126   0.70938   0.00000  Uiso   1.00
C11    C     0.70631   0.68156   0.81072   0.00000  Uiso   1.00
C12    C     0.65965   0.64741   0.87173   0.00000  Uiso   1.00
C13    C     0.60179   0.59512   0.00195   0.00000  Uiso   1.00
C14    C     0.61756   0.68388   0.55752   0.00000  Uiso   1.00
C15    C     0.67899   0.65275   0.50366   0.00000  Uiso   1.00
C16    C     0.67648   0.60604   0.42434   0.00000  Uiso   1.00
C17    C     0.73836   0.58369   0.38537   0.00000  Uiso   1.00
C18    C     0.62559   0.76092   0.54774   0.00000  Uiso   1.00
C19    C     0.57816   0.80515   0.50550   0.00000  Uiso   1.00
C20    C     0.59508   0.87386   0.50364   0.00000  Uiso   1.00
C21    C     0.62646   0.66770   0.67037   0.00000  Uiso   1.00
C22    C     0.57977   0.63357   0.73124   0.00000  Uiso   1.00
C23    C     0.59741   0.62381   0.83264   0.00000  Uiso   1.00
H24    H     0.78030   0.74559   0.65972   0.00000  Uiso   1.00
H25    H     0.85109   0.67227   0.53402   0.00000  Uiso   1.00
H26    H     0.75278   0.87135   0.61517   0.00000  Uiso   1.00
H27    H     0.75439   0.69979   0.84088   0.00000  Uiso   1.00
H28    H     0.90217   0.58061   0.37743   0.00000  Uiso   1.00
H29    H     0.69488   0.00038   0.54857   0.00000  Uiso   1.00
H30    H     0.69827   0.63863   0.02453   0.00000  Uiso   1.00
H31    H     0.56919   0.66554   0.52714   0.00000  Uiso   1.00
H32    H     0.62839   0.58782   0.39417   0.00000  Uiso   1.00
H33    H     0.53009   0.78690   0.47532   0.00000  Uiso   1.00
H34    H     0.53170   0.61535   0.70102   0.00000  Uiso   1.00
H35    H     0.72143   0.51206   0.26392   0.00000  Uiso   1.00
H36    H     0.51413   0.93184   0.43506   0.00000  Uiso   1.00
H37    H     0.51752   0.57008   0.91101   0.00000  Uiso   1.00
O38    O     0.85456   0.49667   0.23557   0.00000  Uiso   1.00
O39    O     0.58259   0.04740   0.46012   0.00000  Uiso   1.00
O40    O     0.58704   0.57278   0.08456   0.00000  Uiso   1.00
N41    N     0.85151   0.57513   0.36898   0.00000  Uiso   1.00
N42    N     0.65771   0.96759   0.52897   0.00000  Uiso   1.00
N43    N     0.66087   0.62940   0.97395   0.00000  Uiso   1.00
N44    N     0.75425   0.53825   0.30790   0.00000  Uiso   1.00
N45    N     0.56045   0.93071   0.46789   0.00000  Uiso   1.00
N46    N     0.56361   0.59252   0.91287   0.00000  Uiso   1.00
C47    C     0.26806   0.27275   0.62934   0.00000  Uiso   1.00
C48    C     0.25888   0.32370   0.54267   0.00000  Uiso   1.00
C49    C     0.19698   0.34598   0.50381   0.00000  Uiso   1.00
C50    C     0.19940   0.39271   0.42446   0.00000  Uiso   1.00
C51    C     0.17569   0.46820   0.29578   0.00000  Uiso   1.00
C52    C     0.31229   0.21553   0.58675   0.00000  Uiso   1.00
C53    C     0.29529   0.14687   0.58496   0.00000  Uiso   1.00
C54    C     0.34268   0.10254   0.54272   0.00000  Uiso   1.00
C55    C     0.40191   0.01010   0.48254   0.00000  Uiso   1.00
C56    C     0.31141   0.30874   0.70938   0.00000  Uiso   1.00
C57    C     0.29369   0.31844   0.81072   0.00000  Uiso   1.00
C58    C     0.34035   0.35259   0.87173   0.00000  Uiso   1.00
C59    C     0.39821   0.40488   0.00195   0.00000  Uiso   1.00
C60    C     0.38244   0.31612   0.55752   0.00000  Uiso   1.00
C61    C     0.32101   0.34725   0.50366   0.00000  Uiso   1.00
C62    C     0.32352   0.39396   0.42434   0.00000  Uiso   1.00
C63    C     0.26164   0.41631   0.38537   0.00000  Uiso   1.00
C64    C     0.37441   0.23908   0.54774   0.00000  Uiso   1.00
C65    C     0.42184   0.19485   0.50550   0.00000  Uiso   1.00
C66    C     0.40492   0.12614   0.50364   0.00000  Uiso   1.00
C67    C     0.37354   0.33230   0.67037   0.00000  Uiso   1.00
C68    C     0.42023   0.36643   0.73124   0.00000  Uiso   1.00
C69    C     0.40259   0.37619   0.83264   0.00000  Uiso   1.00
H70    H     0.21970   0.25441   0.65972   0.00000  Uiso   1.00
H71    H     0.14891   0.32773   0.53402   0.00000  Uiso   1.00
H72    H     0.24722   0.12865   0.61517   0.00000  Uiso   1.00
H73    H     0.24561   0.30021   0.84088   0.00000  Uiso   1.00
H74    H     0.09783   0.41939   0.37743   0.00000  Uiso   1.00
H75    H     0.30512   0.99962   0.54857   0.00000  Uiso   1.00
H76    H     0.30173   0.36137   0.02453   0.00000  Uiso   1.00
H77    H     0.43081   0.33446   0.52714   0.00000  Uiso   1.00
H78    H     0.37161   0.41218   0.39417   0.00000  Uiso   1.00
H79    H     0.46991   0.21310   0.47532   0.00000  Uiso   1.00
H80    H     0.46830   0.38465   0.70102   0.00000  Uiso   1.00
H81    H     0.27857   0.48794   0.26392   0.00000  Uiso   1.00
H82    H     0.48587   0.06816   0.43506   0.00000  Uiso   1.00
H83    H     0.48248   0.42992   0.91101   0.00000  Uiso   1.00
O84    O     0.14544   0.50333   0.23557   0.00000  Uiso   1.00
O85    O     0.41741   0.95260   0.46012   0.00000  Uiso   1.00
O86    O     0.41296   0.42722   0.08456   0.00000  Uiso   1.00
N87    N     0.14849   0.42487   0.36898   0.00000  Uiso   1.00
N88    N     0.34229   0.03241   0.52897   0.00000  Uiso   1.00
N89    N     0.33913   0.37060   0.97395   0.00000  Uiso   1.00
N90    N     0.24575   0.46175   0.30790   0.00000  Uiso   1.00
N91    N     0.43955   0.06929   0.46789   0.00000  Uiso   1.00
N92    N     0.43639   0.40748   0.91287   0.00000  Uiso   1.00
C93    C     0.72725   0.26806   0.37066   0.00000  Uiso   1.00
C94    C     0.67630   0.25888   0.45733   0.00000  Uiso   1.00
C95    C     0.65402   0.19698   0.49619   0.00000  Uiso   1.00
C96    C     0.60729   0.19940   0.57554   0.00000  Uiso   1.00
C97    C     0.53180   0.17569   0.70422   0.00000  Uiso   1.00
C98    C     0.78447   0.31229   0.41325   0.00000  Uiso   1.00
C99    C     0.85313   0.29529   0.41504   0.00000  Uiso   1.00
C100   C     0.89746   0.34268   0.45728   0.00000  Uiso   1.00
C101   C     0.98990   0.40191   0.51746   0.00000  Uiso   1.00
C102   C     0.69126   0.31141   0.29062   0.00000  Uiso   1.00
C103   C     0.68156   0.29369   0.18928   0.00000  Uiso   1.00
C104   C     0.64741   0.34035   0.12827   0.00000  Uiso   1.00
C105   C     0.59512   0.39821   0.99805   0.00000  Uiso   1.00
C106   C     0.68388   0.38244   0.44248   0.00000  Uiso   1.00
C107   C     0.65275   0.32101   0.49634   0.00000  Uiso   1.00
C108   C     0.60604   0.32352   0.57566   0.00000  Uiso   1.00
C109   C     0.58369   0.26164   0.61463   0.00000  Uiso   1.00
C110   C     0.76092   0.37441   0.45226   0.00000  Uiso   1.00
C111   C     0.80515   0.42184   0.49450   0.00000  Uiso   1.00
C112   C     0.87386   0.40492   0.49636   0.00000  Uiso   1.00
C113   C     0.66770   0.37354   0.32963   0.00000  Uiso   1.00
C114   C     0.63357   0.42023   0.26876   0.00000  Uiso   1.00
C115   C     0.62381   0.40259   0.16736   0.00000  Uiso   1.00
H116   H     0.74559   0.21970   0.34028   0.00000  Uiso   1.00
H117   H     0.67227   0.14891   0.46598   0.00000  Uiso   1.00
H118   H     0.87135   0.24722   0.38483   0.00000  Uiso   1.00
H119   H     0.69979   0.24561   0.15912   0.00000  Uiso   1.00
H120   H     0.58061   0.09783   0.62257   0.00000  Uiso   1.00
H121   H     0.00038   0.30512   0.45143   0.00000  Uiso   1.00
H122   H     0.63863   0.30173   0.97547   0.00000  Uiso   1.00
H123   H     0.66554   0.43081   0.47286   0.00000  Uiso   1.00
H124   H     0.58782   0.37161   0.60583   0.00000  Uiso   1.00
H125   H     0.78690   0.46991   0.52468   0.00000  Uiso   1.00
H126   H     0.61535   0.46830   0.29898   0.00000  Uiso   1.00
H127   H     0.51206   0.27857   0.73608   0.00000  Uiso   1.00
H128   H     0.93184   0.48587   0.56494   0.00000  Uiso   1.00
H129   H     0.57008   0.48248   0.08899   0.00000  Uiso   1.00
O130   O     0.49667   0.14544   0.76443   0.00000  Uiso   1.00
O131   O     0.04740   0.41741   0.53988   0.00000  Uiso   1.00
O132   O     0.57278   0.41296   0.91544   0.00000  Uiso   1.00
N133   N     0.57513   0.14849   0.63102   0.00000  Uiso   1.00
N134   N     0.96759   0.34229   0.47103   0.00000  Uiso   1.00
N135   N     0.62940   0.33913   0.02605   0.00000  Uiso   1.00
N136   N     0.53825   0.24575   0.69210   0.00000  Uiso   1.00
N137   N     0.93071   0.43955   0.53211   0.00000  Uiso   1.00
N138   N     0.59252   0.43639   0.08713   0.00000  Uiso   1.00
C139   C     0.27275   0.73194   0.37066   0.00000  Uiso   1.00
C140   C     0.32370   0.74112   0.45733   0.00000  Uiso   1.00
C141   C     0.34598   0.80302   0.49619   0.00000  Uiso   1.00
C142   C     0.39271   0.80060   0.57554   0.00000  Uiso   1.00
C143   C     0.46820   0.82431   0.70422   0.00000  Uiso   1.00
C144   C     0.21553   0.68771   0.41325   0.00000  Uiso   1.00
C145   C     0.14687   0.70471   0.41504   0.00000  Uiso   1.00
C146   C     0.10254   0.65732   0.45728   0.00000  Uiso   1.00
C147   C     0.01010   0.59809   0.51746   0.00000  Uiso   1.00
C148   C     0.30874   0.68859   0.29062   0.00000  Uiso   1.00
C149   C     0.31844   0.70631   0.18928   0.00000  Uiso   1.00
C150   C     0.35259   0.65965   0.12827   0.00000  Uiso   1.00
C151   C     0.40488   0.60179   0.99805   0.00000  Uiso   1.00
C152   C     0.31612   0.61756   0.44248   0.00000  Uiso   1.00
C153   C     0.34725   0.67899   0.49634   0.00000  Uiso   1.00
C154   C     0.39396   0.67648   0.57566   0.00000  Uiso   1.00
C155   C     0.41631   0.73836   0.61463   0.00000  Uiso   1.00
C156   C     0.23908   0.62559   0.45226   0.00000  Uiso   1.00
C157   C     0.19485   0.57816   0.49450   0.00000  Uiso   1.00
C158   C     0.12614   0.59508   0.49636   0.00000  Uiso   1.00
C159   C     0.33230   0.62646   0.32963   0.00000  Uiso   1.00
C160   C     0.36643   0.57977   0.26876   0.00000  Uiso   1.00
C161   C     0.37619   0.59741   0.16736   0.00000  Uiso   1.00
H162   H     0.25441   0.78030   0.34028   0.00000  Uiso   1.00
H163   H     0.32773   0.85109   0.46598   0.00000  Uiso   1.00
H164   H     0.12865   0.75278   0.38483   0.00000  Uiso   1.00
H165   H     0.30021   0.75439   0.15912   0.00000  Uiso   1.00
H166   H     0.41939   0.90217   0.62257   0.00000  Uiso   1.00
H167   H     0.99962   0.69488   0.45143   0.00000  Uiso   1.00
H168   H     0.36137   0.69827   0.97547   0.00000  Uiso   1.00
H169   H     0.33446   0.56919   0.47286   0.00000  Uiso   1.00
H170   H     0.41218   0.62839   0.60583   0.00000  Uiso   1.00
H171   H     0.21310   0.53009   0.52468   0.00000  Uiso   1.00
H172   H     0.38465   0.53170   0.29898   0.00000  Uiso   1.00
H173   H     0.48794   0.72143   0.73608   0.00000  Uiso   1.00
H174   H     0.06816   0.51413   0.56494   0.00000  Uiso   1.00
H175   H     0.42992   0.51752   0.08899   0.00000  Uiso   1.00
O176   O     0.50333   0.85456   0.76443   0.00000  Uiso   1.00
O177   O     0.95260   0.58259   0.53988   0.00000  Uiso   1.00
O178   O     0.42722   0.58704   0.91544   0.00000  Uiso   1.00
N179   N     0.42487   0.85151   0.63102   0.00000  Uiso   1.00
N180   N     0.03241   0.65771   0.47103   0.00000  Uiso   1.00
N181   N     0.37060   0.66087   0.02605   0.00000  Uiso   1.00
N182   N     0.46175   0.75425   0.69210   0.00000  Uiso   1.00
N183   N     0.06929   0.56045   0.53211   0.00000  Uiso   1.00
N184   N     0.40748   0.56361   0.08713   0.00000  Uiso   1.00
C185   C     0.76806   0.22725   0.87066   0.00000  Uiso   1.00
C186   C     0.75888   0.17630   0.95733   0.00000  Uiso   1.00
C187   C     0.69698   0.15402   0.99619   0.00000  Uiso   1.00
C188   C     0.69940   0.10729   0.07554   0.00000  Uiso   1.00
C189   C     0.67569   0.03180   0.20422   0.00000  Uiso   1.00
C190   C     0.81229   0.28447   0.91325   0.00000  Uiso   1.00
C191   C     0.79529   0.35313   0.91504   0.00000  Uiso   1.00
C192   C     0.84268   0.39746   0.95728   0.00000  Uiso   1.00
C193   C     0.90191   0.48990   0.01746   0.00000  Uiso   1.00
C194   C     0.81141   0.19126   0.79062   0.00000  Uiso   1.00
C195   C     0.79369   0.18156   0.68928   0.00000  Uiso   1.00
C196   C     0.84035   0.14741   0.62827   0.00000  Uiso   1.00
C197   C     0.89821   0.09512   0.49805   0.00000  Uiso   1.00
C198   C     0.88244   0.18388   0.94248   0.00000  Uiso   1.00
C199   C     0.82101   0.15275   0.99634   0.00000  Uiso   1.00
C200   C     0.82352   0.10604   0.07566   0.00000  Uiso   1.00
C201   C     0.76164   0.08369   0.11463   0.00000  Uiso   1.00
C202   C     0.87441   0.26092   0.95226   0.00000  Uiso   1.00
C203   C     0.92184   0.30515   0.99450   0.00000  Uiso   1.00
C204   C     0.90492   0.37386   0.99636   0.00000  Uiso   1.00
C205   C     0.87354   0.16770   0.82963   0.00000  Uiso   1.00
C206   C     0.92023   0.13357   0.76876   0.00000  Uiso   1.00
C207   C     0.90259   0.12381   0.66736   0.00000  Uiso   1.00
H208   H     0.71970   0.24559   0.84028   0.00000  Uiso   1.00
H209   H     0.64891   0.17227   0.96598   0.00000  Uiso   1.00
H210   H     0.74722   0.37135   0.88483   0.00000  Uiso   1.00
H211   H     0.74561   0.19979   0.65912   0.00000  Uiso   1.00
H212   H     0.59783   0.08061   0.12257   0.00000  Uiso   1.00
H213   H     0.80512   0.50038   0.95143   0.00000  Uiso   1.00
H214   H     0.80173   0.13863   0.47547   0.00000  Uiso   1.00
H215   H     0.93081   0.16554   0.97286   0.00000  Uiso   1.00
H216   H     0.87161   0.08782   0.10583   0.00000  Uiso   1.00
H217   H     0.96991   0.28690   0.02468   0.00000  Uiso   1.00
H218   H     0.96830   0.11535   0.79898   0.00000  Uiso   1.00
H219   H     0.77857   0.01206   0.23608   0.00000  Uiso   1.00
H220   H     0.98587   0.43184   0.06494   0.00000  Uiso   1.00
H221   H     0.98248   0.07008   0.58899   0.00000  Uiso   1.00
O222   O     0.64544   0.99667   0.26443   0.00000  Uiso   1.00
O223   O     0.91741   0.54740   0.03988   0.00000  Uiso   1.00
O224   O     0.91296   0.07278   0.41544   0.00000  Uiso   1.00
N225   N     0.64849   0.07513   0.13102   0.00000  Uiso   1.00
N226   N     0.84229   0.46759   0.97103   0.00000  Uiso   1.00
N227   N     0.83913   0.12940   0.52605   0.00000  Uiso   1.00
N228   N     0.74575   0.03825   0.19210   0.00000  Uiso   1.00
N229   N     0.93955   0.43071   0.03211   0.00000  Uiso   1.00
N230   N     0.93639   0.09252   0.58713   0.00000  Uiso   1.00
C231   C     0.23194   0.77275   0.87066   0.00000  Uiso   1.00
C232   C     0.24112   0.82370   0.95733   0.00000  Uiso   1.00
C233   C     0.30302   0.84598   0.99619   0.00000  Uiso   1.00
C234   C     0.30060   0.89271   0.07554   0.00000  Uiso   1.00
C235   C     0.32431   0.96820   0.20422   0.00000  Uiso   1.00
C236   C     0.18771   0.71553   0.91325   0.00000  Uiso   1.00
C237   C     0.20471   0.64687   0.91504   0.00000  Uiso   1.00
C238   C     0.15732   0.60254   0.95728   0.00000  Uiso   1.00
C239   C     0.09809   0.51010   0.01746   0.00000  Uiso   1.00
C240   C     0.18859   0.80874   0.79062   0.00000  Uiso   1.00
C241   C     0.20631   0.81844   0.68928   0.00000  Uiso   1.00
C242   C     0.15965   0.85259   0.62827   0.00000  Uiso   1.00
C243   C     0.10179   0.90488   0.49805   0.00000  Uiso   1.00
C244   C     0.11756   0.81612   0.94248   0.00000  Uiso   1.00
C245   C     0.17899   0.84725   0.99634   0.00000  Uiso   1.00
C246   C     0.17648   0.89396   0.07566   0.00000  Uiso   1.00
C247   C     0.23836   0.91631   0.11463   0.00000  Uiso   1.00
C248   C     0.12559   0.73908   0.95226   0.00000  Uiso   1.00
C249   C     0.07816   0.69485   0.99450   0.00000  Uiso   1.00
C250   C     0.09508   0.62614   0.99636   0.00000  Uiso   1.00
C251   C     0.12646   0.83230   0.82963   0.00000  Uiso   1.00
C252   C     0.07977   0.86643   0.76876   0.00000  Uiso   1.00
C253   C     0.09741   0.87619   0.66736   0.00000  Uiso   1.00
H254   H     0.28030   0.75441   0.84028   0.00000  Uiso   1.00
H255   H     0.35109   0.82773   0.96598   0.00000  Uiso   1.00
H256   H     0.25278   0.62865   0.88483   0.00000  Uiso   1.00
H257   H     0.25439   0.80021   0.65912   0.00000  Uiso   1.00
H258   H     0.40217   0.91939   0.12257   0.00000  Uiso   1.00
H259   H     0.19488   0.49962   0.95143   0.00000  Uiso   1.00
H260   H     0.19827   0.86137   0.47547   0.00000  Uiso   1.00
H261   H     0.06919   0.83446   0.97286   0.00000  Uiso   1.00
H262   H     0.12839   0.91218   0.10583   0.00000  Uiso   1.00
H263   H     0.03009   0.71310   0.02468   0.00000  Uiso   1.00
H264   H     0.03170   0.88465   0.79898   0.00000  Uiso   1.00
H265   H     0.22143   0.98794   0.23608   0.00000  Uiso   1.00
H266   H     0.01413   0.56816   0.06494   0.00000  Uiso   1.00
H267   H     0.01752   0.92992   0.58899   0.00000  Uiso   1.00
O268   O     0.35456   0.00333   0.26443   0.00000  Uiso   1.00
O269   O     0.08259   0.45260   0.03988   0.00000  Uiso   1.00
O270   O     0.08704   0.92722   0.41544   0.00000  Uiso   1.00
N271   N     0.35151   0.92487   0.13102   0.00000  Uiso   1.00
N272   N     0.15771   0.53241   0.97103   0.00000  Uiso   1.00
N273   N     0.16087   0.87060   0.52605   0.00000  Uiso   1.00
N274   N     0.25425   0.96175   0.19210   0.00000  Uiso   1.00
N275   N     0.06045   0.56929   0.03211   0.00000  Uiso   1.00
N276   N     0.06361   0.90748   0.58713   0.00000  Uiso   1.00
C277   C     0.77275   0.76806   0.12934   0.00000  Uiso   1.00
C278   C     0.82370   0.75888   0.04267   0.00000  Uiso   1.00
C279   C     0.84598   0.69698   0.00381   0.00000  Uiso   1.00
C280   C     0.89271   0.69940   0.92446   0.00000  Uiso   1.00
C281   C     0.96820   0.67569   0.79578   0.00000  Uiso   1.00
C282   C     0.71553   0.81229   0.08675   0.00000  Uiso   1.00
C283   C     0.64687   0.79529   0.08496   0.00000  Uiso   1.00
C284   C     0.60254   0.84268   0.04272   0.00000  Uiso   1.00
C285   C     0.51010   0.90191   0.98254   0.00000  Uiso   1.00
C286   C     0.80874   0.81141   0.20938   0.00000  Uiso   1.00
C287   C     0.81844   0.79369   0.31072   0.00000  Uiso   1.00
C288   C     0.85259   0.84035   0.37173   0.00000  Uiso   1.00
C289   C     0.90488   0.89821   0.50195   0.00000  Uiso   1.00
C290   C     0.81612   0.88244   0.05752   0.00000  Uiso   1.00
C291   C     0.84725   0.82101   0.00366   0.00000  Uiso   1.00
C292   C     0.89396   0.82352   0.92434   0.00000  Uiso   1.00
C293   C     0.91631   0.76164   0.88537   0.00000  Uiso   1.00
C294   C     0.73908   0.87441   0.04774   0.00000  Uiso   1.00
C295   C     0.69485   0.92184   0.00550   0.00000  Uiso   1.00
C296   C     0.62614   0.90492   0.00364   0.00000  Uiso   1.00
C297   C     0.83230   0.87354   0.17037   0.00000  Uiso   1.00
C298   C     0.86643   0.92023   0.23124   0.00000  Uiso   1.00
C299   C     0.87619   0.90259   0.33264   0.00000  Uiso   1.00
H300   H     0.75441   0.71970   0.15972   0.00000  Uiso   1.00
H301   H     0.82773   0.64891   0.03402   0.00000  Uiso   1.00
H302   H     0.62865   0.74722   0.11517   0.00000  Uiso   1.00
H303   H     0.80021   0.74561   0.34088   0.00000  Uiso   1.00
H304   H     0.91939   0.59783   0.87743   0.00000  Uiso   1.00
H305   H     0.49962   0.80512   0.04857   0.00000  Uiso   1.00
H306   H     0.86137   0.80173   0.52453   0.00000  Uiso   1.00
H307   H     0.83446   0.93081   0.02714   0.00000  Uiso   1.00
H308   H     0.91218   0.87161   0.89417   0.00000  Uiso   1.00
H309   H     0.71310   0.96991   0.97532   0.00000  Uiso   1.00
H310   H     0.88465   0.96830   0.20102   0.00000  Uiso   1.00
H311   H     0.98794   0.77857   0.76392   0.00000  Uiso   1.00
H312   H     0.56816   0.98587   0.93506   0.00000  Uiso   1.00
H313   H     0.92992   0.98248   0.41101   0.00000  Uiso   1.00
O314   O     0.00333   0.64544   0.73557   0.00000  Uiso   1.00
O315   O     0.45260   0.91741   0.96012   0.00000  Uiso   1.00
O316   O     0.92722   0.91296   0.58456   0.00000  Uiso   1.00
N317   N     0.92487   0.64849   0.86898   0.00000  Uiso   1.00
N318   N     0.53241   0.84229   0.02897   0.00000  Uiso   1.00
N319   N     0.87060   0.83913   0.47395   0.00000  Uiso   1.00
N320   N     0.96175   0.74575   0.80790   0.00000  Uiso   1.00
N321   N     0.56929   0.93955   0.96789   0.00000  Uiso   1.00
N322   N     0.90748   0.93639   0.41287   0.00000  Uiso   1.00
C323   C     0.22725   0.23194   0.12934   0.00000  Uiso   1.00
C324   C     0.17630   0.24112   0.04267   0.00000  Uiso   1.00
C325   C     0.15402   0.30302   0.00381   0.00000  Uiso   1.00
C326   C     0.10729   0.30060   0.92446   0.00000  Uiso   1.00
C327   C     0.03180   0.32431   0.79578   0.00000  Uiso   1.00
C328   C     0.28447   0.18771   0.08675   0.00000  Uiso   1.00
C329   C     0.35313   0.20471   0.08496   0.00000  Uiso   1.00
C330   C     0.39746   0.15732   0.04272   0.00000  Uiso   1.00
C331   C     0.48990   0.09809   0.98254   0.00000  Uiso   1.00
C332   C     0.19126   0.18859   0.20938   0.00000  Uiso   1.00
C333   C     0.18156   0.20631   0.31072   0.00000  Uiso   1.00
C334   C     0.14741   0.15965   0.37173   0.00000  Uiso   1.00
C335   C     0.09512   0.10179   0.50195   0.00000  Uiso   1.00
C336   C     0.18388   0.11756   0.05752   0.00000  Uiso   1.00
C337   C     0.15275   0.17899   0.00366   0.00000  Uiso   1.00
C338   C     0.10604   0.17648   0.92434   0.00000  Uiso   1.00
C339   C     0.08369   0.23836   0.88537   0.00000  Uiso   1.00
C340   C     0.26092   0.12559   0.04774   0.00000  Uiso   1.00
C341   C     0.30515   0.07816   0.00550   0.00000  Uiso   1.00
C342   C     0.37386   0.09508   0.00364   0.00000  Uiso   1.00
C343   C     0.16770   0.12646   0.17037   0.00000  Uiso   1.00
C344   C     0.13357   0.07977   0.23124   0.00000  Uiso   1.00
C345   C     0.12381   0.09741   0.33264   0.00000  Uiso   1.00
H346   H     0.24559   0.28030   0.15972   0.00000  Uiso   1.00
H347   H     0.17227   0.35109   0.03402   0.00000  Uiso   1.00
H348   H     0.37135   0.25278   0.11517   0.00000  Uiso   1.00
H349   H     0.19979   0.25439   0.34088   0.00000  Uiso   1.00
H350   H     0.08061   0.40217   0.87743   0.00000  Uiso   1.00
H351   H     0.50038   0.19488   0.04857   0.00000  Uiso   1.00
H352   H     0.13863   0.19827   0.52453   0.00000  Uiso   1.00
H353   H     0.16554   0.06919   0.02714   0.00000  Uiso   1.00
H354   H     0.08782   0.12839   0.89417   0.00000  Uiso   1.00
H355   H     0.28690   0.03009   0.97532   0.00000  Uiso   1.00
H356   H     0.11535   0.03170   0.20102   0.00000  Uiso   1.00
H357   H     0.01206   0.22143   0.76392   0.00000  Uiso   1.00
H358   H     0.43184   0.01413   0.93506   0.00000  Uiso   1.00
H359   H     0.07008   0.01752   0.41101   0.00000  Uiso   1.00
O360   O     0.99667   0.35456   0.73557   0.00000  Uiso   1.00
O361   O     0.54740   0.08259   0.96012   0.00000  Uiso   1.00
O362   O     0.07278   0.08704   0.58456   0.00000  Uiso   1.00
N363   N     0.07513   0.35151   0.86898   0.00000  Uiso   1.00
N364   N     0.46759   0.15771   0.02897   0.00000  Uiso   1.00
N365   N     0.12940   0.16087   0.47395   0.00000  Uiso   1.00
N366   N     0.03825   0.25425   0.80790   0.00000  Uiso   1.00
N367   N     0.43071   0.06045   0.96789   0.00000  Uiso   1.00
N368   N     0.09252   0.06361   0.41287   0.00000  Uiso   1.00
