data_job_05893
_audit_creation_date              2018-12-19
_audit_creation_method            'Materials Studio'
_symmetry_space_group_name_H-M    'P1'
_symmetry_Int_Tables_number       1
_symmetry_cell_setting            triclinic
loop_
_symmetry_equiv_pos_as_xyz
  x,y,z
_cell_length_a                    14.8998
_cell_length_b                    9.2860
_cell_length_c                    23.3390
_cell_angle_alpha                 90.0000
_cell_angle_beta                  90.0000
_cell_angle_gamma                 90.0000
loop_
_atom_site_label
_atom_site_type_symbol
_atom_site_fract_x
_atom_site_fract_y
_atom_site_fract_z
_atom_site_U_iso_or_equiv
_atom_site_adp_type
_atom_site_occupancy
C1     C     0.93649   0.48140   0.06383   0.00000  Uiso   1.00
C2     C     0.94744   0.38419   0.11603   0.00000  Uiso   1.00
C3     C     0.88544   0.36758   0.15990   0.00000  Uiso   1.00
C4     C     0.90801   0.27355   0.20385   0.00000  Uiso   1.00
C5     C     0.91261   0.13402   0.28491   0.00000  Uiso   1.00
C6     C     0.01757   0.58161   0.06385   0.00000  Uiso   1.00
C7     C     0.01452   0.73099   0.06385   0.00000  Uiso   1.00
C8     C     0.09614   0.80316   0.06388   0.00000  Uiso   1.00
C9     C     0.20961   0.97013   0.06389   0.00000  Uiso   1.00
C10    C     0.94750   0.38422   0.01164   0.00000  Uiso   1.00
C11    C     0.88556   0.36764   0.96772   0.00000  Uiso   1.00
C12    C     0.90819   0.27364   0.92377   0.00000  Uiso   1.00
C13    C     0.91287   0.13412   0.84271   0.00000  Uiso   1.00
C14    C     0.08684   0.34396   0.06386   0.00000  Uiso   1.00
C15    C     0.02911   0.30954   0.11604   0.00000  Uiso   1.00
C16    C     0.05178   0.21551   0.15993   0.00000  Uiso   1.00
C17    C     0.98982   0.19876   0.20387   0.00000  Uiso   1.00
C18    C     0.09923   0.50697   0.06387   0.00000  Uiso   1.00
C19    C     0.18087   0.57893   0.06389   0.00000  Uiso   1.00
C20    C     0.17795   0.72837   0.06389   0.00000  Uiso   1.00
C21    C     0.02917   0.30956   0.01165   0.00000  Uiso   1.00
C22    C     0.05190   0.21557   0.96776   0.00000  Uiso   1.00
C23    C     0.99000   0.19885   0.92379   0.00000  Uiso   1.00
H24    H     0.87291   0.53953   0.06382   0.00000  Uiso   1.00
H25    H     0.82225   0.42538   0.15988   0.00000  Uiso   1.00
H26    H     0.95131   0.78873   0.06384   0.00000  Uiso   1.00
H27    H     0.82237   0.42543   0.96772   0.00000  Uiso   1.00
H28    H     0.80210   0.26594   0.26639   0.00000  Uiso   1.00
H29    H     0.07425   0.03209   0.06387   0.00000  Uiso   1.00
H30    H     0.80233   0.26601   0.86119   0.00000  Uiso   1.00
H31    H     0.15043   0.28584   0.06387   0.00000  Uiso   1.00
H32    H     0.11499   0.15776   0.15994   0.00000  Uiso   1.00
H33    H     0.24406   0.52112   0.06390   0.00000  Uiso   1.00
H34    H     0.11511   0.15782   0.96779   0.00000  Uiso   1.00
H35    H     0.03970   0.04874   0.26644   0.00000  Uiso   1.00
H36    H     0.31185   0.81489   0.06392   0.00000  Uiso   1.00
H37    H     0.03994   0.04881   0.86124   0.00000  Uiso   1.00
O38    O     0.89259   0.07770   0.32962   0.00000  Uiso   1.00
O39    O     0.24963   0.08286   0.06390   0.00000  Uiso   1.00
O40    O     0.89289   0.07778   0.79800   0.00000  Uiso   1.00
N41    N     0.86288   0.23238   0.25321   0.00000  Uiso   1.00
N42    N     0.11732   0.94869   0.06388   0.00000  Uiso   1.00
N43    N     0.86311   0.23249   0.87439   0.00000  Uiso   1.00
N44    N     0.99073   0.11550   0.25324   0.00000  Uiso   1.00
N45    N     0.24517   0.83181   0.06390   0.00000  Uiso   1.00
N46    N     0.99096   0.11561   0.87441   0.00000  Uiso   1.00
C47    C     0.06351   0.51860   0.56383   0.00000  Uiso   1.00
C48    C     0.05256   0.61581   0.61603   0.00000  Uiso   1.00
C49    C     0.11456   0.63242   0.65990   0.00000  Uiso   1.00
C50    C     0.09199   0.72645   0.70385   0.00000  Uiso   1.00
C51    C     0.08739   0.86598   0.78491   0.00000  Uiso   1.00
C52    C     0.98243   0.41839   0.56385   0.00000  Uiso   1.00
C53    C     0.98548   0.26901   0.56385   0.00000  Uiso   1.00
C54    C     0.90386   0.19684   0.56388   0.00000  Uiso   1.00
C55    C     0.79039   0.02987   0.56389   0.00000  Uiso   1.00
C56    C     0.05250   0.61578   0.51164   0.00000  Uiso   1.00
C57    C     0.11444   0.63236   0.46772   0.00000  Uiso   1.00
C58    C     0.09181   0.72636   0.42377   0.00000  Uiso   1.00
C59    C     0.08713   0.86588   0.34271   0.00000  Uiso   1.00
C60    C     0.91316   0.65604   0.56386   0.00000  Uiso   1.00
C61    C     0.97089   0.69046   0.61604   0.00000  Uiso   1.00
C62    C     0.94822   0.78449   0.65993   0.00000  Uiso   1.00
C63    C     0.01018   0.80124   0.70387   0.00000  Uiso   1.00
C64    C     0.90077   0.49303   0.56387   0.00000  Uiso   1.00
C65    C     0.81913   0.42107   0.56389   0.00000  Uiso   1.00
C66    C     0.82205   0.27163   0.56389   0.00000  Uiso   1.00
C67    C     0.97083   0.69044   0.51165   0.00000  Uiso   1.00
C68    C     0.94810   0.78443   0.46776   0.00000  Uiso   1.00
C69    C     0.01000   0.80115   0.42379   0.00000  Uiso   1.00
H70    H     0.12709   0.46047   0.56382   0.00000  Uiso   1.00
H71    H     0.17775   0.57462   0.65988   0.00000  Uiso   1.00
H72    H     0.04869   0.21127   0.56384   0.00000  Uiso   1.00
H73    H     0.17763   0.57457   0.46772   0.00000  Uiso   1.00
H74    H     0.19790   0.73406   0.76639   0.00000  Uiso   1.00
H75    H     0.92575   0.96791   0.56387   0.00000  Uiso   1.00
H76    H     0.19767   0.73399   0.36119   0.00000  Uiso   1.00
H77    H     0.84957   0.71416   0.56387   0.00000  Uiso   1.00
H78    H     0.88501   0.84224   0.65994   0.00000  Uiso   1.00
H79    H     0.75594   0.47888   0.56390   0.00000  Uiso   1.00
H80    H     0.88489   0.84218   0.46779   0.00000  Uiso   1.00
H81    H     0.96030   0.95126   0.76644   0.00000  Uiso   1.00
H82    H     0.68815   0.18511   0.56392   0.00000  Uiso   1.00
H83    H     0.96006   0.95119   0.36124   0.00000  Uiso   1.00
O84    O     0.10741   0.92230   0.82962   0.00000  Uiso   1.00
O85    O     0.75037   0.91714   0.56390   0.00000  Uiso   1.00
O86    O     0.10711   0.92222   0.29800   0.00000  Uiso   1.00
N87    N     0.13712   0.76762   0.75321   0.00000  Uiso   1.00
N88    N     0.88268   0.05131   0.56388   0.00000  Uiso   1.00
N89    N     0.13689   0.76751   0.37439   0.00000  Uiso   1.00
N90    N     0.00927   0.88450   0.75324   0.00000  Uiso   1.00
N91    N     0.75483   0.16819   0.56390   0.00000  Uiso   1.00
N92    N     0.00904   0.88439   0.37441   0.00000  Uiso   1.00
C93    C     0.43649   0.51860   0.06383   0.00000  Uiso   1.00
C94    C     0.44744   0.61581   0.11603   0.00000  Uiso   1.00
C95    C     0.38544   0.63242   0.15990   0.00000  Uiso   1.00
C96    C     0.40801   0.72645   0.20385   0.00000  Uiso   1.00
C97    C     0.41261   0.86598   0.28491   0.00000  Uiso   1.00
C98    C     0.51757   0.41839   0.06385   0.00000  Uiso   1.00
C99    C     0.51452   0.26901   0.06385   0.00000  Uiso   1.00
C100   C     0.59614   0.19684   0.06388   0.00000  Uiso   1.00
C101   C     0.70961   0.02987   0.06389   0.00000  Uiso   1.00
C102   C     0.44750   0.61578   0.01164   0.00000  Uiso   1.00
C103   C     0.38556   0.63236   0.96772   0.00000  Uiso   1.00
C104   C     0.40819   0.72636   0.92377   0.00000  Uiso   1.00
C105   C     0.41287   0.86588   0.84271   0.00000  Uiso   1.00
C106   C     0.58684   0.65604   0.06386   0.00000  Uiso   1.00
C107   C     0.52911   0.69046   0.11604   0.00000  Uiso   1.00
C108   C     0.55178   0.78449   0.15993   0.00000  Uiso   1.00
C109   C     0.48982   0.80124   0.20387   0.00000  Uiso   1.00
C110   C     0.59923   0.49303   0.06387   0.00000  Uiso   1.00
C111   C     0.68087   0.42107   0.06389   0.00000  Uiso   1.00
C112   C     0.67795   0.27163   0.06389   0.00000  Uiso   1.00
C113   C     0.52917   0.69044   0.01165   0.00000  Uiso   1.00
C114   C     0.55190   0.78443   0.96776   0.00000  Uiso   1.00
C115   C     0.49000   0.80115   0.92379   0.00000  Uiso   1.00
H116   H     0.37291   0.46047   0.06382   0.00000  Uiso   1.00
H117   H     0.32225   0.57462   0.15988   0.00000  Uiso   1.00
H118   H     0.45131   0.21127   0.06384   0.00000  Uiso   1.00
H119   H     0.32237   0.57457   0.96772   0.00000  Uiso   1.00
H120   H     0.30210   0.73406   0.26639   0.00000  Uiso   1.00
H121   H     0.57425   0.96791   0.06387   0.00000  Uiso   1.00
H122   H     0.30233   0.73399   0.86119   0.00000  Uiso   1.00
H123   H     0.65043   0.71416   0.06387   0.00000  Uiso   1.00
H124   H     0.61499   0.84224   0.15994   0.00000  Uiso   1.00
H125   H     0.74406   0.47888   0.06390   0.00000  Uiso   1.00
H126   H     0.61511   0.84218   0.96779   0.00000  Uiso   1.00
H127   H     0.53970   0.95126   0.26644   0.00000  Uiso   1.00
H128   H     0.81185   0.18511   0.06392   0.00000  Uiso   1.00
H129   H     0.53994   0.95119   0.86124   0.00000  Uiso   1.00
O130   O     0.39259   0.92230   0.32962   0.00000  Uiso   1.00
O131   O     0.74963   0.91714   0.06390   0.00000  Uiso   1.00
O132   O     0.39289   0.92222   0.79800   0.00000  Uiso   1.00
N133   N     0.36288   0.76762   0.25321   0.00000  Uiso   1.00
N134   N     0.61732   0.05131   0.06388   0.00000  Uiso   1.00
N135   N     0.36311   0.76751   0.87439   0.00000  Uiso   1.00
N136   N     0.49073   0.88450   0.25324   0.00000  Uiso   1.00
N137   N     0.74517   0.16819   0.06390   0.00000  Uiso   1.00
N138   N     0.49096   0.88439   0.87441   0.00000  Uiso   1.00
C139   C     0.56351   0.48140   0.56383   0.00000  Uiso   1.00
C140   C     0.55256   0.38419   0.61603   0.00000  Uiso   1.00
C141   C     0.61456   0.36758   0.65990   0.00000  Uiso   1.00
C142   C     0.59199   0.27355   0.70385   0.00000  Uiso   1.00
C143   C     0.58739   0.13402   0.78491   0.00000  Uiso   1.00
C144   C     0.48243   0.58161   0.56385   0.00000  Uiso   1.00
C145   C     0.48548   0.73099   0.56385   0.00000  Uiso   1.00
C146   C     0.40386   0.80316   0.56388   0.00000  Uiso   1.00
C147   C     0.29039   0.97013   0.56389   0.00000  Uiso   1.00
C148   C     0.55250   0.38422   0.51164   0.00000  Uiso   1.00
C149   C     0.61444   0.36764   0.46772   0.00000  Uiso   1.00
C150   C     0.59181   0.27364   0.42377   0.00000  Uiso   1.00
C151   C     0.58713   0.13412   0.34271   0.00000  Uiso   1.00
C152   C     0.41316   0.34396   0.56386   0.00000  Uiso   1.00
C153   C     0.47089   0.30954   0.61604   0.00000  Uiso   1.00
C154   C     0.44822   0.21551   0.65993   0.00000  Uiso   1.00
C155   C     0.51018   0.19876   0.70387   0.00000  Uiso   1.00
C156   C     0.40077   0.50697   0.56387   0.00000  Uiso   1.00
C157   C     0.31913   0.57893   0.56389   0.00000  Uiso   1.00
C158   C     0.32205   0.72837   0.56389   0.00000  Uiso   1.00
C159   C     0.47083   0.30956   0.51165   0.00000  Uiso   1.00
C160   C     0.44810   0.21557   0.46776   0.00000  Uiso   1.00
C161   C     0.51000   0.19885   0.42379   0.00000  Uiso   1.00
H162   H     0.62709   0.53953   0.56382   0.00000  Uiso   1.00
H163   H     0.67775   0.42538   0.65988   0.00000  Uiso   1.00
H164   H     0.54869   0.78873   0.56384   0.00000  Uiso   1.00
H165   H     0.67763   0.42543   0.46772   0.00000  Uiso   1.00
H166   H     0.69790   0.26594   0.76639   0.00000  Uiso   1.00
H167   H     0.42575   0.03209   0.56387   0.00000  Uiso   1.00
H168   H     0.69767   0.26601   0.36119   0.00000  Uiso   1.00
H169   H     0.34957   0.28584   0.56387   0.00000  Uiso   1.00
H170   H     0.38501   0.15776   0.65994   0.00000  Uiso   1.00
H171   H     0.25594   0.52112   0.56390   0.00000  Uiso   1.00
H172   H     0.38489   0.15782   0.46779   0.00000  Uiso   1.00
H173   H     0.46030   0.04874   0.76644   0.00000  Uiso   1.00
H174   H     0.18815   0.81489   0.56392   0.00000  Uiso   1.00
H175   H     0.46006   0.04881   0.36124   0.00000  Uiso   1.00
O176   O     0.60741   0.07770   0.82962   0.00000  Uiso   1.00
O177   O     0.25037   0.08286   0.56390   0.00000  Uiso   1.00
O178   O     0.60711   0.07778   0.29800   0.00000  Uiso   1.00
N179   N     0.63712   0.23238   0.75321   0.00000  Uiso   1.00
N180   N     0.38268   0.94869   0.56388   0.00000  Uiso   1.00
N181   N     0.63689   0.23249   0.37439   0.00000  Uiso   1.00
N182   N     0.50927   0.11550   0.75324   0.00000  Uiso   1.00
N183   N     0.25483   0.83181   0.56390   0.00000  Uiso   1.00
N184   N     0.50904   0.11561   0.37441   0.00000  Uiso   1.00
