data_job_06316
_audit_creation_date              2018-12-19
_audit_creation_method            'Materials Studio'
_symmetry_space_group_name_H-M    'P1'
_symmetry_Int_Tables_number       1
_symmetry_cell_setting            triclinic
loop_
_symmetry_equiv_pos_as_xyz
  x,y,z
_cell_length_a                    12.3918
_cell_length_b                    22.4710
_cell_length_c                    23.6246
_cell_angle_alpha                 116.5240
_cell_angle_beta                  77.3611
_cell_angle_gamma                 86.3526
loop_
_atom_site_label
_atom_site_type_symbol
_atom_site_fract_x
_atom_site_fract_y
_atom_site_fract_z
_atom_site_U_iso_or_equiv
_atom_site_adp_type
_atom_site_occupancy
C1     C     0.50188   0.23762   0.72979   0.00000  Uiso   1.00
C2     C     0.39303   0.20994   0.72569   0.00000  Uiso   1.00
C3     C     0.29930   0.22729   0.77835   0.00000  Uiso   1.00
C4     C     0.20809   0.19636   0.76438   0.00000  Uiso   1.00
C5     C     0.03871   0.16044   0.76779   0.00000  Uiso   1.00
C6     C     0.59589   0.17614   0.69954   0.00000  Uiso   1.00
C7     C     0.67272   0.16508   0.73022   0.00000  Uiso   1.00
C8     C     0.75229   0.10571   0.69423   0.00000  Uiso   1.00
C9     C     0.89790   0.01734   0.65704   0.00000  Uiso   1.00
C10    C     0.51994   0.26800   0.68296   0.00000  Uiso   1.00
C11    C     0.53294   0.33416   0.69970   0.00000  Uiso   1.00
C12    C     0.54859   0.35211   0.64975   0.00000  Uiso   1.00
C13    C     0.57628   0.40636   0.58683   0.00000  Uiso   1.00
C14    C     0.50659   0.15185   0.61132   0.00000  Uiso   1.00
C15    C     0.39560   0.16335   0.66134   0.00000  Uiso   1.00
C16    C     0.30450   0.13239   0.64728   0.00000  Uiso   1.00
C17    C     0.21065   0.14969   0.69991   0.00000  Uiso   1.00
C18    C     0.59845   0.12956   0.63519   0.00000  Uiso   1.00
C19    C     0.67793   0.07019   0.59915   0.00000  Uiso   1.00
C20    C     0.75485   0.05903   0.62976   0.00000  Uiso   1.00
C21    C     0.52250   0.22141   0.61862   0.00000  Uiso   1.00
C22    C     0.53814   0.23926   0.56863   0.00000  Uiso   1.00
C23    C     0.55116   0.30544   0.58529   0.00000  Uiso   1.00
H24    H     0.49989   0.27389   0.77989   0.00000  Uiso   1.00
H25    H     0.29735   0.26334   0.82814   0.00000  Uiso   1.00
H26    H     0.67073   0.20115   0.78001   0.00000  Uiso   1.00
H27    H     0.53096   0.37020   0.74950   0.00000  Uiso   1.00
H28    H     0.07394   0.23108   0.85326   0.00000  Uiso   1.00
H29    H     0.86124   0.09995   0.75178   0.00000  Uiso   1.00
H30    H     0.56652   0.45643   0.68744   0.00000  Uiso   1.00
H31    H     0.50858   0.11558   0.56122   0.00000  Uiso   1.00
H32    H     0.30651   0.09634   0.59748   0.00000  Uiso   1.00
H33    H     0.67988   0.03415   0.54935   0.00000  Uiso   1.00
H34    H     0.54012   0.20320   0.51884   0.00000  Uiso   1.00
H35    H     0.08138   0.09553   0.66605   0.00000  Uiso   1.00
H36    H     0.86868   0.96441   0.56456   0.00000  Uiso   1.00
H37    H     0.57396   0.32089   0.50022   0.00000  Uiso   1.00
O38    O     0.94459   0.15349   0.78746   0.00000  Uiso   1.00
O39    O     0.97750   0.98147   0.65430   0.00000  Uiso   1.00
O40    O     0.59084   0.44916   0.56989   0.00000  Uiso   1.00
N41    N     0.10342   0.20183   0.80423   0.00000  Uiso   1.00
N42    N     0.83948   0.07923   0.70934   0.00000  Uiso   1.00
N43    N     0.56398   0.41250   0.64919   0.00000  Uiso   1.00
N44    N     0.10742   0.12889   0.70349   0.00000  Uiso   1.00
N45    N     0.84348   0.00629   0.60860   0.00000  Uiso   1.00
N46    N     0.56797   0.33957   0.54845   0.00000  Uiso   1.00
C47    C     0.22744   0.28397   0.49840   0.00000  Uiso   1.00
C48    C     0.11709   0.28287   0.47967   0.00000  Uiso   1.00
C49    C     0.07327   0.22549   0.44776   0.00000  Uiso   1.00
C50    C     0.97120   0.23514   0.43502   0.00000  Uiso   1.00
C51    C     0.80841   0.22359   0.40309   0.00000  Uiso   1.00
C52    C     0.29702   0.32012   0.46644   0.00000  Uiso   1.00
C53    C     0.40448   0.29406   0.42341   0.00000  Uiso   1.00
C54    C     0.45387   0.33509   0.39954   0.00000  Uiso   1.00
C55    C     0.57045   0.38139   0.34711   0.00000  Uiso   1.00
C56    C     0.19741   0.33059   0.57245   0.00000  Uiso   1.00
C57    C     0.22115   0.31334   0.61856   0.00000  Uiso   1.00
C58    C     0.18670   0.36319   0.68394   0.00000  Uiso   1.00
C59    C     0.14864   0.42574   0.79610   0.00000  Uiso   1.00
C60    C     0.12410   0.40316   0.53251   0.00000  Uiso   1.00
C61    C     0.06096   0.34761   0.49820   0.00000  Uiso   1.00
C62    C     0.95892   0.35736   0.48550   0.00000  Uiso   1.00
C63    C     0.91495   0.30000   0.45358   0.00000  Uiso   1.00
C64    C     0.24089   0.38486   0.48497   0.00000  Uiso   1.00
C65    C     0.29013   0.42594   0.46115   0.00000  Uiso   1.00
C66    C     0.39763   0.39995   0.41810   0.00000  Uiso   1.00
C67    C     0.14127   0.39533   0.59098   0.00000  Uiso   1.00
C68    C     0.10680   0.44522   0.65630   0.00000  Uiso   1.00
C69    C     0.13047   0.42804   0.70250   0.00000  Uiso   1.00
H70    H     0.27115   0.23356   0.48397   0.00000  Uiso   1.00
H71    H     0.11674   0.17539   0.43342   0.00000  Uiso   1.00
H72    H     0.44790   0.24396   0.40909   0.00000  Uiso   1.00
H73    H     0.26459   0.26323   0.60420   0.00000  Uiso   1.00
H74    H     0.92081   0.13944   0.38554   0.00000  Uiso   1.00
H75    H     0.61909   0.28404   0.33424   0.00000  Uiso   1.00
H76    H     0.23256   0.32468   0.74567   0.00000  Uiso   1.00
H77    H     0.08039   0.45357   0.54694   0.00000  Uiso   1.00
H78    H     0.91550   0.40747   0.49985   0.00000  Uiso   1.00
H79    H     0.24667   0.47604   0.47551   0.00000  Uiso   1.00
H80    H     0.06336   0.49531   0.67062   0.00000  Uiso   1.00
H81    H     0.75748   0.32781   0.43945   0.00000  Uiso   1.00
H82    H     0.45577   0.47241   0.38815   0.00000  Uiso   1.00
H83    H     0.06923   0.51304   0.79958   0.00000  Uiso   1.00
O84    O     0.73413   0.19933   0.38036   0.00000  Uiso   1.00
O85    O     0.65027   0.38904   0.31307   0.00000  Uiso   1.00
O86    O     0.14313   0.44235   0.85286   0.00000  Uiso   1.00
N87    N     0.90499   0.19010   0.40470   0.00000  Uiso   1.00
N88    N     0.55784   0.32529   0.35673   0.00000  Uiso   1.00
N89    N     0.19648   0.36329   0.74138   0.00000  Uiso   1.00
N90    N     0.81710   0.29146   0.43371   0.00000  Uiso   1.00
N91    N     0.46995   0.42665   0.38573   0.00000  Uiso   1.00
N92    N     0.10860   0.46465   0.77039   0.00000  Uiso   1.00
C93    C     0.72802   0.51782   0.77660   0.00000  Uiso   1.00
C94    C     0.59972   0.53055   0.79748   0.00000  Uiso   1.00
C95    C     0.52972   0.56099   0.77557   0.00000  Uiso   1.00
C96    C     0.41461   0.56802   0.80056   0.00000  Uiso   1.00
C97    C     0.22200   0.59125   0.82613   0.00000  Uiso   1.00
C98    C     0.76339   0.55234   0.83992   0.00000  Uiso   1.00
C99    C     0.83101   0.60110   0.85368   0.00000  Uiso   1.00
C100   C     0.85368   0.62645   0.91439   0.00000  Uiso   1.00
C101   C     0.91524   0.68347   0.00583   0.00000  Uiso   1.00
C102   C     0.76615   0.44203   0.74952   0.00000  Uiso   1.00
C103   C     0.83613   0.39805   0.68727   0.00000  Uiso   1.00
C104   C     0.86116   0.33054   0.67188   0.00000  Uiso   1.00
C105   C     0.92701   0.21630   0.62295   0.00000  Uiso   1.00
C106   C     0.64807   0.47615   0.85995   0.00000  Uiso   1.00
C107   C     0.55630   0.50791   0.84276   0.00000  Uiso   1.00
C108   C     0.44126   0.51489   0.86779   0.00000  Uiso   1.00
C109   C     0.37110   0.54534   0.84591   0.00000  Uiso   1.00
C110   C     0.71996   0.52970   0.88519   0.00000  Uiso   1.00
C111   C     0.74255   0.55499   0.94590   0.00000  Uiso   1.00
C112   C     0.81018   0.60377   0.95975   0.00000  Uiso   1.00
C113   C     0.72273   0.41940   0.79479   0.00000  Uiso   1.00
C114   C     0.74766   0.35194   0.77950   0.00000  Uiso   1.00
C115   C     0.81766   0.30786   0.71724   0.00000  Uiso   1.00
H116   H     0.76183   0.53545   0.74135   0.00000  Uiso   1.00
H117   H     0.56336   0.57851   0.74053   0.00000  Uiso   1.00
H118   H     0.86461   0.61860   0.81863   0.00000  Uiso   1.00
H119   H     0.86972   0.41558   0.65225   0.00000  Uiso   1.00
H120   H     0.32417   0.61629   0.75961   0.00000  Uiso   1.00
H121   H     0.95940   0.70080   0.92428   0.00000  Uiso   1.00
H122   H     0.97018   0.27271   0.57342   0.00000  Uiso   1.00
H123   H     0.61426   0.45853   0.89520   0.00000  Uiso   1.00
H124   H     0.40768   0.49736   0.90282   0.00000  Uiso   1.00
H125   H     0.70894   0.53746   0.98092   0.00000  Uiso   1.00
H126   H     0.71404   0.33444   0.81454   0.00000  Uiso   1.00
H127   H     0.19781   0.55044   0.89134   0.00000  Uiso   1.00
H128   H     0.83305   0.63494   0.05600   0.00000  Uiso   1.00
H129   H     0.84383   0.20685   0.70515   0.00000  Uiso   1.00
O130   O     0.12776   0.61033   0.82773   0.00000  Uiso   1.00
O131   O     0.96118   0.72119   0.04375   0.00000  Uiso   1.00
O132   O     0.97532   0.15954   0.58345   0.00000  Uiso   1.00
N133   N     0.32278   0.59545   0.78956   0.00000  Uiso   1.00
N134   N     0.91667   0.67447   0.94351   0.00000  Uiso   1.00
N135   N     0.92677   0.27424   0.61550   0.00000  Uiso   1.00
N136   N     0.25479   0.56001   0.86044   0.00000  Uiso   1.00
N137   N     0.84868   0.63903   0.01439   0.00000  Uiso   1.00
N138   N     0.85878   0.23880   0.68638   0.00000  Uiso   1.00
C139   C     0.49812   0.76238   0.27021   0.00000  Uiso   1.00
C140   C     0.60697   0.79006   0.27431   0.00000  Uiso   1.00
C141   C     0.70070   0.77271   0.22165   0.00000  Uiso   1.00
C142   C     0.79191   0.80364   0.23562   0.00000  Uiso   1.00
C143   C     0.96129   0.83956   0.23221   0.00000  Uiso   1.00
C144   C     0.40411   0.82386   0.30046   0.00000  Uiso   1.00
C145   C     0.32728   0.83492   0.26978   0.00000  Uiso   1.00
C146   C     0.24771   0.89429   0.30577   0.00000  Uiso   1.00
C147   C     0.10210   0.98266   0.34296   0.00000  Uiso   1.00
C148   C     0.48006   0.73200   0.31704   0.00000  Uiso   1.00
C149   C     0.46706   0.66584   0.30030   0.00000  Uiso   1.00
C150   C     0.45141   0.64789   0.35025   0.00000  Uiso   1.00
C151   C     0.42372   0.59364   0.41318   0.00000  Uiso   1.00
C152   C     0.49341   0.84815   0.38868   0.00000  Uiso   1.00
C153   C     0.60440   0.83665   0.33866   0.00000  Uiso   1.00
C154   C     0.69550   0.86761   0.35272   0.00000  Uiso   1.00
C155   C     0.78935   0.85031   0.30009   0.00000  Uiso   1.00
C156   C     0.40155   0.87044   0.36481   0.00000  Uiso   1.00
C157   C     0.32207   0.92981   0.40085   0.00000  Uiso   1.00
C158   C     0.24515   0.94097   0.37024   0.00000  Uiso   1.00
C159   C     0.47750   0.77859   0.38138   0.00000  Uiso   1.00
C160   C     0.46186   0.76074   0.43137   0.00000  Uiso   1.00
C161   C     0.44884   0.69456   0.41471   0.00000  Uiso   1.00
H162   H     0.50011   0.72611   0.22011   0.00000  Uiso   1.00
H163   H     0.70265   0.73666   0.17186   0.00000  Uiso   1.00
H164   H     0.32927   0.79885   0.21999   0.00000  Uiso   1.00
H165   H     0.46904   0.62980   0.25050   0.00000  Uiso   1.00
H166   H     0.92606   0.76892   0.14674   0.00000  Uiso   1.00
H167   H     0.13876   0.90005   0.24822   0.00000  Uiso   1.00
H168   H     0.43348   0.54357   0.31256   0.00000  Uiso   1.00
H169   H     0.49142   0.88442   0.43878   0.00000  Uiso   1.00
H170   H     0.69349   0.90366   0.40252   0.00000  Uiso   1.00
H171   H     0.32012   0.96585   0.45065   0.00000  Uiso   1.00
H172   H     0.45988   0.79680   0.48116   0.00000  Uiso   1.00
H173   H     0.91862   0.90447   0.33395   0.00000  Uiso   1.00
H174   H     0.13132   0.03559   0.43544   0.00000  Uiso   1.00
H175   H     0.42604   0.67912   0.49978   0.00000  Uiso   1.00
O176   O     0.05541   0.84651   0.21254   0.00000  Uiso   1.00
O177   O     0.02250   0.01853   0.34570   0.00000  Uiso   1.00
O178   O     0.40916   0.55084   0.43011   0.00000  Uiso   1.00
N179   N     0.89658   0.79817   0.19577   0.00000  Uiso   1.00
N180   N     0.16052   0.92077   0.29066   0.00000  Uiso   1.00
N181   N     0.43603   0.58750   0.35081   0.00000  Uiso   1.00
N182   N     0.89259   0.87111   0.29651   0.00000  Uiso   1.00
N183   N     0.15652   0.99371   0.39140   0.00000  Uiso   1.00
N184   N     0.43203   0.66043   0.45155   0.00000  Uiso   1.00
C185   C     0.77256   0.71603   0.50160   0.00000  Uiso   1.00
C186   C     0.88291   0.71713   0.52033   0.00000  Uiso   1.00
C187   C     0.92673   0.77452   0.55224   0.00000  Uiso   1.00
C188   C     0.02880   0.76486   0.56498   0.00000  Uiso   1.00
C189   C     0.19159   0.77641   0.59691   0.00000  Uiso   1.00
C190   C     0.70298   0.67988   0.53356   0.00000  Uiso   1.00
C191   C     0.59552   0.70594   0.57659   0.00000  Uiso   1.00
C192   C     0.54613   0.66491   0.60046   0.00000  Uiso   1.00
C193   C     0.42955   0.61861   0.65289   0.00000  Uiso   1.00
C194   C     0.80259   0.66941   0.42755   0.00000  Uiso   1.00
C195   C     0.77885   0.68666   0.38144   0.00000  Uiso   1.00
C196   C     0.81330   0.63681   0.31606   0.00000  Uiso   1.00
C197   C     0.85136   0.57426   0.20390   0.00000  Uiso   1.00
C198   C     0.87590   0.59684   0.46749   0.00000  Uiso   1.00
C199   C     0.93904   0.65239   0.50180   0.00000  Uiso   1.00
C200   C     0.04108   0.64264   0.51450   0.00000  Uiso   1.00
C201   C     0.08505   0.70000   0.54642   0.00000  Uiso   1.00
C202   C     0.75911   0.61514   0.51503   0.00000  Uiso   1.00
C203   C     0.70987   0.57406   0.53885   0.00000  Uiso   1.00
C204   C     0.60237   0.60005   0.58190   0.00000  Uiso   1.00
C205   C     0.85873   0.60467   0.40902   0.00000  Uiso   1.00
C206   C     0.89320   0.55478   0.34370   0.00000  Uiso   1.00
C207   C     0.86953   0.57196   0.29750   0.00000  Uiso   1.00
H208   H     0.72885   0.76644   0.51603   0.00000  Uiso   1.00
H209   H     0.88326   0.82461   0.56658   0.00000  Uiso   1.00
H210   H     0.55210   0.75604   0.59091   0.00000  Uiso   1.00
H211   H     0.73541   0.73677   0.39580   0.00000  Uiso   1.00
H212   H     0.07919   0.86056   0.61447   0.00000  Uiso   1.00
H213   H     0.38091   0.71596   0.66576   0.00000  Uiso   1.00
H214   H     0.76744   0.67532   0.25433   0.00000  Uiso   1.00
H215   H     0.91961   0.54643   0.45306   0.00000  Uiso   1.00
H216   H     0.08450   0.59253   0.50015   0.00000  Uiso   1.00
H217   H     0.75333   0.52396   0.52449   0.00000  Uiso   1.00
H218   H     0.93664   0.50469   0.32938   0.00000  Uiso   1.00
H219   H     0.24252   0.67219   0.56056   0.00000  Uiso   1.00
H220   H     0.54423   0.52759   0.61185   0.00000  Uiso   1.00
H221   H     0.93077   0.48696   0.20042   0.00000  Uiso   1.00
O222   O     0.26587   0.80067   0.61964   0.00000  Uiso   1.00
O223   O     0.34973   0.61096   0.68693   0.00000  Uiso   1.00
O224   O     0.85687   0.55765   0.14714   0.00000  Uiso   1.00
N225   N     0.09501   0.80990   0.59530   0.00000  Uiso   1.00
N226   N     0.44217   0.67471   0.64327   0.00000  Uiso   1.00
N227   N     0.80352   0.63671   0.25862   0.00000  Uiso   1.00
N228   N     0.18290   0.70854   0.56629   0.00000  Uiso   1.00
N229   N     0.53005   0.57335   0.61427   0.00000  Uiso   1.00
N230   N     0.89141   0.53536   0.22961   0.00000  Uiso   1.00
C231   C     0.27198   0.48218   0.22340   0.00000  Uiso   1.00
C232   C     0.40028   0.46945   0.20252   0.00000  Uiso   1.00
C233   C     0.47028   0.43901   0.22443   0.00000  Uiso   1.00
C234   C     0.58539   0.43198   0.19944   0.00000  Uiso   1.00
C235   C     0.77800   0.40875   0.17387   0.00000  Uiso   1.00
C236   C     0.23661   0.44766   0.16008   0.00000  Uiso   1.00
C237   C     0.16899   0.39891   0.14632   0.00000  Uiso   1.00
C238   C     0.14632   0.37355   0.08561   0.00000  Uiso   1.00
C239   C     0.08476   0.31653   0.99417   0.00000  Uiso   1.00
C240   C     0.23385   0.55797   0.25048   0.00000  Uiso   1.00
C241   C     0.16387   0.60195   0.31273   0.00000  Uiso   1.00
C242   C     0.13884   0.66946   0.32812   0.00000  Uiso   1.00
C243   C     0.07299   0.78370   0.37705   0.00000  Uiso   1.00
C244   C     0.35193   0.52385   0.14005   0.00000  Uiso   1.00
C245   C     0.44370   0.49209   0.15724   0.00000  Uiso   1.00
C246   C     0.55874   0.48511   0.13221   0.00000  Uiso   1.00
C247   C     0.62890   0.45466   0.15409   0.00000  Uiso   1.00
C248   C     0.28004   0.47030   0.11481   0.00000  Uiso   1.00
C249   C     0.25745   0.44501   0.05410   0.00000  Uiso   1.00
C250   C     0.18982   0.39623   0.04025   0.00000  Uiso   1.00
C251   C     0.27727   0.58060   0.20521   0.00000  Uiso   1.00
C252   C     0.25234   0.64806   0.22050   0.00000  Uiso   1.00
C253   C     0.18234   0.69214   0.28276   0.00000  Uiso   1.00
H254   H     0.23817   0.46455   0.25865   0.00000  Uiso   1.00
H255   H     0.43664   0.42149   0.25947   0.00000  Uiso   1.00
H256   H     0.13539   0.38140   0.18137   0.00000  Uiso   1.00
H257   H     0.13028   0.58442   0.34775   0.00000  Uiso   1.00
H258   H     0.67583   0.38371   0.24039   0.00000  Uiso   1.00
H259   H     0.04060   0.29920   0.07572   0.00000  Uiso   1.00
H260   H     0.02982   0.72729   0.42658   0.00000  Uiso   1.00
H261   H     0.38574   0.54148   0.10480   0.00000  Uiso   1.00
H262   H     0.59232   0.50264   0.09718   0.00000  Uiso   1.00
H263   H     0.29106   0.46255   0.01908   0.00000  Uiso   1.00
H264   H     0.28596   0.66556   0.18546   0.00000  Uiso   1.00
H265   H     0.80219   0.44956   0.10866   0.00000  Uiso   1.00
H266   H     0.16695   0.36506   0.94400   0.00000  Uiso   1.00
H267   H     0.15617   0.79315   0.29485   0.00000  Uiso   1.00
O268   O     0.87224   0.38967   0.17227   0.00000  Uiso   1.00
O269   O     0.03882   0.27881   0.95625   0.00000  Uiso   1.00
O270   O     0.02468   0.84046   0.41655   0.00000  Uiso   1.00
N271   N     0.67722   0.40455   0.21044   0.00000  Uiso   1.00
N272   N     0.08333   0.32553   0.05649   0.00000  Uiso   1.00
N273   N     0.07323   0.72576   0.38450   0.00000  Uiso   1.00
N274   N     0.74521   0.43999   0.13956   0.00000  Uiso   1.00
N275   N     0.15132   0.36097   0.98561   0.00000  Uiso   1.00
N276   N     0.14122   0.76120   0.31362   0.00000  Uiso   1.00
