data_job_05859
_audit_creation_date              2018-12-19
_audit_creation_method            'Materials Studio'
_symmetry_space_group_name_H-M    'P1'
_symmetry_Int_Tables_number       1
_symmetry_cell_setting            triclinic
loop_
_symmetry_equiv_pos_as_xyz
  x,y,z
_cell_length_a                    18.7064
_cell_length_b                    12.1477
_cell_length_c                    10.5758
_cell_angle_alpha                 90.0000
_cell_angle_beta                  90.0000
_cell_angle_gamma                 90.0000
loop_
_atom_site_label
_atom_site_type_symbol
_atom_site_fract_x
_atom_site_fract_y
_atom_site_fract_z
_atom_site_U_iso_or_equiv
_atom_site_adp_type
_atom_site_occupancy
C1     C     0.87717   0.22871   0.36349   0.00000  Uiso   1.00
C2     C     0.90693   0.22974   0.49772   0.00000  Uiso   1.00
C3     C     0.97561   0.19916   0.53271   0.00000  Uiso   1.00
C4     C     0.99248   0.20591   0.66032   0.00000  Uiso   1.00
C5     C     0.04630   0.20198   0.85517   0.00000  Uiso   1.00
C6     C     0.81054   0.15647   0.36766   0.00000  Uiso   1.00
C7     C     0.79818   0.06429   0.29328   0.00000  Uiso   1.00
C8     C     0.73390   0.00936   0.31140   0.00000  Uiso   1.00
C9     C     0.63805   0.89172   0.30426   0.00000  Uiso   1.00
C10    C     0.85085   0.34538   0.33775   0.00000  Uiso   1.00
C11    C     0.87237   0.41203   0.23820   0.00000  Uiso   1.00
C12    C     0.84202   0.51616   0.23112   0.00000  Uiso   1.00
C13    C     0.80876   0.69183   0.17755   0.00000  Uiso   1.00
C14    C     0.78497   0.29508   0.52790   0.00000  Uiso   1.00
C15    C     0.85685   0.26579   0.58702   0.00000  Uiso   1.00
C16    C     0.87362   0.27260   0.71461   0.00000  Uiso   1.00
C17    C     0.94232   0.24203   0.74978   0.00000  Uiso   1.00
C18    C     0.76046   0.19251   0.45696   0.00000  Uiso   1.00
C19    C     0.69618   0.13772   0.47518   0.00000  Uiso   1.00
C20    C     0.68374   0.04548   0.40086   0.00000  Uiso   1.00
C21    C     0.80078   0.38144   0.42706   0.00000  Uiso   1.00
C22    C     0.77038   0.48547   0.42012   0.00000  Uiso   1.00
C23    C     0.79185   0.55227   0.32059   0.00000  Uiso   1.00
H24    H     0.91615   0.20063   0.29396   0.00000  Uiso   1.00
H25    H     0.01435   0.17125   0.46357   0.00000  Uiso   1.00
H26    H     0.83694   0.03641   0.22417   0.00000  Uiso   1.00
H27    H     0.91112   0.38411   0.16912   0.00000  Uiso   1.00
H28    H     0.10113   0.15455   0.69101   0.00000  Uiso   1.00
H29    H     0.72705   0.87024   0.18619   0.00000  Uiso   1.00
H30    H     0.88348   0.60342   0.07009   0.00000  Uiso   1.00
H31    H     0.74599   0.32315   0.59743   0.00000  Uiso   1.00
H32    H     0.83485   0.30050   0.78370   0.00000  Uiso   1.00
H33    H     0.65745   0.16565   0.54429   0.00000  Uiso   1.00
H34    H     0.73163   0.51334   0.48924   0.00000  Uiso   1.00
H35    H     0.95545   0.25944   0.95083   0.00000  Uiso   1.00
H36    H     0.58136   0.97513   0.44601   0.00000  Uiso   1.00
H37    H     0.73779   0.70831   0.32991   0.00000  Uiso   1.00
O38    O     0.08981   0.18984   0.93798   0.00000  Uiso   1.00
O39    O     0.59902   0.81686   0.27566   0.00000  Uiso   1.00
O40    O     0.80426   0.77878   0.12335   0.00000  Uiso   1.00
N41    N     0.05466   0.18236   0.72659   0.00000  Uiso   1.00
N42    N     0.70491   0.91654   0.25463   0.00000  Uiso   1.00
N43    N     0.85114   0.60200   0.14606   0.00000  Uiso   1.00
N44    N     0.97626   0.23880   0.86640   0.00000  Uiso   1.00
N45    N     0.62652   0.97299   0.39444   0.00000  Uiso   1.00
N46    N     0.77275   0.65844   0.28587   0.00000  Uiso   1.00
C47    C     0.12283   0.77129   0.86349   0.00000  Uiso   1.00
C48    C     0.09307   0.77026   0.99772   0.00000  Uiso   1.00
C49    C     0.02439   0.80084   0.03271   0.00000  Uiso   1.00
C50    C     0.00752   0.79409   0.16032   0.00000  Uiso   1.00
C51    C     0.95370   0.79802   0.35517   0.00000  Uiso   1.00
C52    C     0.18946   0.84353   0.86766   0.00000  Uiso   1.00
C53    C     0.20182   0.93571   0.79328   0.00000  Uiso   1.00
C54    C     0.26610   0.99064   0.81140   0.00000  Uiso   1.00
C55    C     0.36195   0.10828   0.80426   0.00000  Uiso   1.00
C56    C     0.14915   0.65462   0.83775   0.00000  Uiso   1.00
C57    C     0.12763   0.58797   0.73820   0.00000  Uiso   1.00
C58    C     0.15798   0.48384   0.73112   0.00000  Uiso   1.00
C59    C     0.19124   0.30817   0.67755   0.00000  Uiso   1.00
C60    C     0.21503   0.70492   0.02790   0.00000  Uiso   1.00
C61    C     0.14315   0.73421   0.08702   0.00000  Uiso   1.00
C62    C     0.12638   0.72740   0.21461   0.00000  Uiso   1.00
C63    C     0.05768   0.75797   0.24978   0.00000  Uiso   1.00
C64    C     0.23954   0.80749   0.95696   0.00000  Uiso   1.00
C65    C     0.30382   0.86228   0.97518   0.00000  Uiso   1.00
C66    C     0.31626   0.95452   0.90086   0.00000  Uiso   1.00
C67    C     0.19922   0.61856   0.92706   0.00000  Uiso   1.00
C68    C     0.22962   0.51453   0.92012   0.00000  Uiso   1.00
C69    C     0.20815   0.44773   0.82059   0.00000  Uiso   1.00
H70    H     0.08385   0.79937   0.79396   0.00000  Uiso   1.00
H71    H     0.98565   0.82875   0.96357   0.00000  Uiso   1.00
H72    H     0.16306   0.96359   0.72417   0.00000  Uiso   1.00
H73    H     0.08888   0.61589   0.66912   0.00000  Uiso   1.00
H74    H     0.89887   0.84545   0.19101   0.00000  Uiso   1.00
H75    H     0.27295   0.12976   0.68619   0.00000  Uiso   1.00
H76    H     0.11652   0.39658   0.57009   0.00000  Uiso   1.00
H77    H     0.25401   0.67685   0.09743   0.00000  Uiso   1.00
H78    H     0.16515   0.69950   0.28370   0.00000  Uiso   1.00
H79    H     0.34255   0.83435   0.04429   0.00000  Uiso   1.00
H80    H     0.26837   0.48666   0.98924   0.00000  Uiso   1.00
H81    H     0.04455   0.74056   0.45083   0.00000  Uiso   1.00
H82    H     0.41864   0.02487   0.94601   0.00000  Uiso   1.00
H83    H     0.26221   0.29169   0.82991   0.00000  Uiso   1.00
O84    O     0.91019   0.81016   0.43798   0.00000  Uiso   1.00
O85    O     0.40098   0.18314   0.77566   0.00000  Uiso   1.00
O86    O     0.19574   0.22122   0.62335   0.00000  Uiso   1.00
N87    N     0.94534   0.81764   0.22659   0.00000  Uiso   1.00
N88    N     0.29509   0.08346   0.75463   0.00000  Uiso   1.00
N89    N     0.14886   0.39800   0.64606   0.00000  Uiso   1.00
N90    N     0.02374   0.76120   0.36640   0.00000  Uiso   1.00
N91    N     0.37348   0.02701   0.89444   0.00000  Uiso   1.00
N92    N     0.22725   0.34156   0.78587   0.00000  Uiso   1.00
C93    C     0.37717   0.77129   0.36349   0.00000  Uiso   1.00
C94    C     0.40693   0.77026   0.49772   0.00000  Uiso   1.00
C95    C     0.47561   0.80084   0.53271   0.00000  Uiso   1.00
C96    C     0.49248   0.79409   0.66032   0.00000  Uiso   1.00
C97    C     0.54630   0.79802   0.85517   0.00000  Uiso   1.00
C98    C     0.31054   0.84353   0.36766   0.00000  Uiso   1.00
C99    C     0.29818   0.93571   0.29328   0.00000  Uiso   1.00
C100   C     0.23390   0.99064   0.31140   0.00000  Uiso   1.00
C101   C     0.13805   0.10828   0.30426   0.00000  Uiso   1.00
C102   C     0.35085   0.65462   0.33775   0.00000  Uiso   1.00
C103   C     0.37237   0.58797   0.23820   0.00000  Uiso   1.00
C104   C     0.34202   0.48384   0.23112   0.00000  Uiso   1.00
C105   C     0.30876   0.30817   0.17755   0.00000  Uiso   1.00
C106   C     0.28497   0.70492   0.52790   0.00000  Uiso   1.00
C107   C     0.35685   0.73421   0.58702   0.00000  Uiso   1.00
C108   C     0.37362   0.72740   0.71461   0.00000  Uiso   1.00
C109   C     0.44232   0.75797   0.74978   0.00000  Uiso   1.00
C110   C     0.26046   0.80749   0.45696   0.00000  Uiso   1.00
C111   C     0.19618   0.86228   0.47518   0.00000  Uiso   1.00
C112   C     0.18374   0.95452   0.40086   0.00000  Uiso   1.00
C113   C     0.30078   0.61856   0.42706   0.00000  Uiso   1.00
C114   C     0.27038   0.51453   0.42012   0.00000  Uiso   1.00
C115   C     0.29185   0.44773   0.32059   0.00000  Uiso   1.00
H116   H     0.41615   0.79937   0.29396   0.00000  Uiso   1.00
H117   H     0.51435   0.82875   0.46357   0.00000  Uiso   1.00
H118   H     0.33694   0.96359   0.22417   0.00000  Uiso   1.00
H119   H     0.41112   0.61589   0.16912   0.00000  Uiso   1.00
H120   H     0.60113   0.84545   0.69101   0.00000  Uiso   1.00
H121   H     0.22705   0.12976   0.18619   0.00000  Uiso   1.00
H122   H     0.38348   0.39658   0.07009   0.00000  Uiso   1.00
H123   H     0.24599   0.67685   0.59743   0.00000  Uiso   1.00
H124   H     0.33485   0.69950   0.78370   0.00000  Uiso   1.00
H125   H     0.15745   0.83435   0.54429   0.00000  Uiso   1.00
H126   H     0.23163   0.48666   0.48924   0.00000  Uiso   1.00
H127   H     0.45545   0.74056   0.95083   0.00000  Uiso   1.00
H128   H     0.08136   0.02487   0.44601   0.00000  Uiso   1.00
H129   H     0.23779   0.29169   0.32991   0.00000  Uiso   1.00
O130   O     0.58981   0.81016   0.93798   0.00000  Uiso   1.00
O131   O     0.09902   0.18314   0.27566   0.00000  Uiso   1.00
O132   O     0.30426   0.22122   0.12335   0.00000  Uiso   1.00
N133   N     0.55466   0.81764   0.72659   0.00000  Uiso   1.00
N134   N     0.20491   0.08346   0.25463   0.00000  Uiso   1.00
N135   N     0.35114   0.39800   0.14606   0.00000  Uiso   1.00
N136   N     0.47626   0.76120   0.86640   0.00000  Uiso   1.00
N137   N     0.12652   0.02701   0.39444   0.00000  Uiso   1.00
N138   N     0.27275   0.34156   0.28587   0.00000  Uiso   1.00
C139   C     0.62283   0.22871   0.86349   0.00000  Uiso   1.00
C140   C     0.59307   0.22974   0.99772   0.00000  Uiso   1.00
C141   C     0.52439   0.19916   0.03271   0.00000  Uiso   1.00
C142   C     0.50752   0.20591   0.16032   0.00000  Uiso   1.00
C143   C     0.45370   0.20198   0.35517   0.00000  Uiso   1.00
C144   C     0.68946   0.15647   0.86766   0.00000  Uiso   1.00
C145   C     0.70182   0.06429   0.79328   0.00000  Uiso   1.00
C146   C     0.76610   0.00936   0.81140   0.00000  Uiso   1.00
C147   C     0.86195   0.89172   0.80426   0.00000  Uiso   1.00
C148   C     0.64915   0.34538   0.83775   0.00000  Uiso   1.00
C149   C     0.62763   0.41203   0.73820   0.00000  Uiso   1.00
C150   C     0.65798   0.51616   0.73112   0.00000  Uiso   1.00
C151   C     0.69124   0.69183   0.67755   0.00000  Uiso   1.00
C152   C     0.71503   0.29508   0.02790   0.00000  Uiso   1.00
C153   C     0.64315   0.26579   0.08702   0.00000  Uiso   1.00
C154   C     0.62638   0.27260   0.21461   0.00000  Uiso   1.00
C155   C     0.55768   0.24203   0.24978   0.00000  Uiso   1.00
C156   C     0.73954   0.19251   0.95696   0.00000  Uiso   1.00
C157   C     0.80382   0.13772   0.97518   0.00000  Uiso   1.00
C158   C     0.81626   0.04548   0.90086   0.00000  Uiso   1.00
C159   C     0.69922   0.38144   0.92706   0.00000  Uiso   1.00
C160   C     0.72962   0.48547   0.92012   0.00000  Uiso   1.00
C161   C     0.70815   0.55227   0.82059   0.00000  Uiso   1.00
H162   H     0.58385   0.20063   0.79396   0.00000  Uiso   1.00
H163   H     0.48565   0.17125   0.96357   0.00000  Uiso   1.00
H164   H     0.66306   0.03641   0.72417   0.00000  Uiso   1.00
H165   H     0.58888   0.38411   0.66912   0.00000  Uiso   1.00
H166   H     0.39887   0.15455   0.19101   0.00000  Uiso   1.00
H167   H     0.77295   0.87024   0.68619   0.00000  Uiso   1.00
H168   H     0.61652   0.60342   0.57009   0.00000  Uiso   1.00
H169   H     0.75401   0.32315   0.09743   0.00000  Uiso   1.00
H170   H     0.66515   0.30050   0.28370   0.00000  Uiso   1.00
H171   H     0.84255   0.16565   0.04429   0.00000  Uiso   1.00
H172   H     0.76837   0.51334   0.98924   0.00000  Uiso   1.00
H173   H     0.54455   0.25944   0.45083   0.00000  Uiso   1.00
H174   H     0.91864   0.97513   0.94601   0.00000  Uiso   1.00
H175   H     0.76221   0.70831   0.82991   0.00000  Uiso   1.00
O176   O     0.41019   0.18984   0.43798   0.00000  Uiso   1.00
O177   O     0.90098   0.81686   0.77566   0.00000  Uiso   1.00
O178   O     0.69574   0.77878   0.62335   0.00000  Uiso   1.00
N179   N     0.44534   0.18236   0.22659   0.00000  Uiso   1.00
N180   N     0.79509   0.91654   0.75463   0.00000  Uiso   1.00
N181   N     0.64886   0.60200   0.64606   0.00000  Uiso   1.00
N182   N     0.52374   0.23880   0.36640   0.00000  Uiso   1.00
N183   N     0.87348   0.97299   0.89444   0.00000  Uiso   1.00
N184   N     0.72725   0.65844   0.78587   0.00000  Uiso   1.00
