data_job_05353
_audit_creation_date              2018-12-19
_audit_creation_method            'Materials Studio'
_symmetry_space_group_name_H-M    'P1'
_symmetry_Int_Tables_number       1
_symmetry_cell_setting            triclinic
loop_
_symmetry_equiv_pos_as_xyz
  x,y,z
_cell_length_a                    14.1295
_cell_length_b                    23.2207
_cell_length_c                    23.7684
_cell_angle_alpha                 90.0000
_cell_angle_beta                  90.0000
_cell_angle_gamma                 90.0000
loop_
_atom_site_label
_atom_site_type_symbol
_atom_site_fract_x
_atom_site_fract_y
_atom_site_fract_z
_atom_site_U_iso_or_equiv
_atom_site_adp_type
_atom_site_occupancy
C1     C     0.53398   0.46313   0.64869   0.00000  Uiso   1.00
C2     C     0.57993   0.43563   0.59723   0.00000  Uiso   1.00
C3     C     0.53225   0.41277   0.55133   0.00000  Uiso   1.00
C4     C     0.58711   0.38956   0.50850   0.00000  Uiso   1.00
C5     C     0.64341   0.34689   0.42814   0.00000  Uiso   1.00
C6     C     0.57107   0.42988   0.69944   0.00000  Uiso   1.00
C7     C     0.51594   0.40219   0.73948   0.00000  Uiso   1.00
C8     C     0.56336   0.37416   0.78270   0.00000  Uiso   1.00
C9     C     0.60590   0.32260   0.86105   0.00000  Uiso   1.00
C10    C     0.57581   0.52348   0.65322   0.00000  Uiso   1.00
C11    C     0.52467   0.57449   0.65441   0.00000  Uiso   1.00
C12    C     0.57607   0.62526   0.65873   0.00000  Uiso   1.00
C13    C     0.62597   0.71903   0.66532   0.00000  Uiso   1.00
C14    C     0.71621   0.46258   0.65424   0.00000  Uiso   1.00
C15    C     0.67891   0.43534   0.60024   0.00000  Uiso   1.00
C16    C     0.73387   0.41216   0.55747   0.00000  Uiso   1.00
C17    C     0.68627   0.38927   0.51152   0.00000  Uiso   1.00
C18    C     0.67005   0.42959   0.70245   0.00000  Uiso   1.00
C19    C     0.71756   0.40159   0.74562   0.00000  Uiso   1.00
C20    C     0.66252   0.37386   0.78572   0.00000  Uiso   1.00
C21    C     0.67480   0.52319   0.65623   0.00000  Uiso   1.00
C22    C     0.72629   0.57389   0.66055   0.00000  Uiso   1.00
C23    C     0.67523   0.62496   0.66175   0.00000  Uiso   1.00
H24    H     0.45692   0.46336   0.64635   0.00000  Uiso   1.00
H25    H     0.45564   0.41300   0.54901   0.00000  Uiso   1.00
H26    H     0.43934   0.40244   0.73714   0.00000  Uiso   1.00
H27    H     0.44807   0.57471   0.65208   0.00000  Uiso   1.00
H28    H     0.49788   0.35702   0.44244   0.00000  Uiso   1.00
H29    H     0.46351   0.33476   0.83912   0.00000  Uiso   1.00
H30    H     0.48191   0.69803   0.65976   0.00000  Uiso   1.00
H31    H     0.79328   0.46235   0.65659   0.00000  Uiso   1.00
H32    H     0.81047   0.41194   0.55982   0.00000  Uiso   1.00
H33    H     0.79416   0.40137   0.74795   0.00000  Uiso   1.00
H34    H     0.80289   0.57364   0.66289   0.00000  Uiso   1.00
H35    H     0.78587   0.35616   0.45121   0.00000  Uiso   1.00
H36    H     0.75150   0.33390   0.84790   0.00000  Uiso   1.00
H37    H     0.76990   0.69716   0.66853   0.00000  Uiso   1.00
O38    O     0.64711   0.32343   0.38299   0.00000  Uiso   1.00
O39    O     0.60202   0.29423   0.90343   0.00000  Uiso   1.00
O40    O     0.62616   0.77083   0.66811   0.00000  Uiso   1.00
N41    N     0.56330   0.36375   0.45778   0.00000  Uiso   1.00
N42    N     0.53117   0.34293   0.82865   0.00000  Uiso   1.00
N43    N     0.54837   0.68255   0.66098   0.00000  Uiso   1.00
N44    N     0.71827   0.36328   0.46250   0.00000  Uiso   1.00
N45    N     0.68613   0.34246   0.83337   0.00000  Uiso   1.00
N46    N     0.70333   0.68209   0.66570   0.00000  Uiso   1.00
C47    C     0.96602   0.03687   0.64869   0.00000  Uiso   1.00
C48    C     0.92007   0.06437   0.59723   0.00000  Uiso   1.00
C49    C     0.96775   0.08723   0.55133   0.00000  Uiso   1.00
C50    C     0.91289   0.11044   0.50850   0.00000  Uiso   1.00
C51    C     0.85659   0.15311   0.42814   0.00000  Uiso   1.00
C52    C     0.92893   0.07012   0.69944   0.00000  Uiso   1.00
C53    C     0.98406   0.09781   0.73948   0.00000  Uiso   1.00
C54    C     0.93664   0.12584   0.78270   0.00000  Uiso   1.00
C55    C     0.89410   0.17740   0.86105   0.00000  Uiso   1.00
C56    C     0.92419   0.97652   0.65322   0.00000  Uiso   1.00
C57    C     0.97533   0.92551   0.65441   0.00000  Uiso   1.00
C58    C     0.92393   0.87474   0.65873   0.00000  Uiso   1.00
C59    C     0.87403   0.78097   0.66532   0.00000  Uiso   1.00
C60    C     0.78379   0.03742   0.65424   0.00000  Uiso   1.00
C61    C     0.82109   0.06466   0.60024   0.00000  Uiso   1.00
C62    C     0.76613   0.08784   0.55747   0.00000  Uiso   1.00
C63    C     0.81373   0.11073   0.51152   0.00000  Uiso   1.00
C64    C     0.82995   0.07041   0.70245   0.00000  Uiso   1.00
C65    C     0.78244   0.09841   0.74562   0.00000  Uiso   1.00
C66    C     0.83748   0.12614   0.78572   0.00000  Uiso   1.00
C67    C     0.82520   0.97681   0.65623   0.00000  Uiso   1.00
C68    C     0.77371   0.92611   0.66055   0.00000  Uiso   1.00
C69    C     0.82477   0.87504   0.66175   0.00000  Uiso   1.00
H70    H     0.04308   0.03664   0.64635   0.00000  Uiso   1.00
H71    H     0.04436   0.08700   0.54901   0.00000  Uiso   1.00
H72    H     0.06066   0.09756   0.73714   0.00000  Uiso   1.00
H73    H     0.05193   0.92529   0.65208   0.00000  Uiso   1.00
H74    H     0.00212   0.14298   0.44244   0.00000  Uiso   1.00
H75    H     0.03649   0.16524   0.83912   0.00000  Uiso   1.00
H76    H     0.01809   0.80197   0.65976   0.00000  Uiso   1.00
H77    H     0.70672   0.03765   0.65659   0.00000  Uiso   1.00
H78    H     0.68953   0.08806   0.55982   0.00000  Uiso   1.00
H79    H     0.70584   0.09863   0.74795   0.00000  Uiso   1.00
H80    H     0.69711   0.92636   0.66289   0.00000  Uiso   1.00
H81    H     0.71413   0.14384   0.45121   0.00000  Uiso   1.00
H82    H     0.74850   0.16610   0.84790   0.00000  Uiso   1.00
H83    H     0.73010   0.80284   0.66853   0.00000  Uiso   1.00
O84    O     0.85289   0.17657   0.38299   0.00000  Uiso   1.00
O85    O     0.89798   0.20577   0.90343   0.00000  Uiso   1.00
O86    O     0.87384   0.72917   0.66811   0.00000  Uiso   1.00
N87    N     0.93670   0.13625   0.45778   0.00000  Uiso   1.00
N88    N     0.96883   0.15707   0.82865   0.00000  Uiso   1.00
N89    N     0.95163   0.81745   0.66098   0.00000  Uiso   1.00
N90    N     0.78173   0.13672   0.46250   0.00000  Uiso   1.00
N91    N     0.81387   0.15754   0.83337   0.00000  Uiso   1.00
N92    N     0.79667   0.81791   0.66570   0.00000  Uiso   1.00
C93    C     0.46602   0.96313   0.85131   0.00000  Uiso   1.00
C94    C     0.42007   0.93563   0.90277   0.00000  Uiso   1.00
C95    C     0.46775   0.91277   0.94867   0.00000  Uiso   1.00
C96    C     0.41289   0.88956   0.99150   0.00000  Uiso   1.00
C97    C     0.35659   0.84689   0.07186   0.00000  Uiso   1.00
C98    C     0.42893   0.92988   0.80056   0.00000  Uiso   1.00
C99    C     0.48406   0.90219   0.76052   0.00000  Uiso   1.00
C100   C     0.43664   0.87416   0.71730   0.00000  Uiso   1.00
C101   C     0.39410   0.82260   0.63895   0.00000  Uiso   1.00
C102   C     0.42419   0.02348   0.84678   0.00000  Uiso   1.00
C103   C     0.47533   0.07449   0.84559   0.00000  Uiso   1.00
C104   C     0.42393   0.12526   0.84127   0.00000  Uiso   1.00
C105   C     0.37403   0.21903   0.83468   0.00000  Uiso   1.00
C106   C     0.28379   0.96258   0.84576   0.00000  Uiso   1.00
C107   C     0.32109   0.93534   0.89976   0.00000  Uiso   1.00
C108   C     0.26613   0.91216   0.94253   0.00000  Uiso   1.00
C109   C     0.31373   0.88927   0.98848   0.00000  Uiso   1.00
C110   C     0.32995   0.92959   0.79755   0.00000  Uiso   1.00
C111   C     0.28244   0.90159   0.75438   0.00000  Uiso   1.00
C112   C     0.33748   0.87386   0.71428   0.00000  Uiso   1.00
C113   C     0.32520   0.02319   0.84377   0.00000  Uiso   1.00
C114   C     0.27371   0.07389   0.83945   0.00000  Uiso   1.00
C115   C     0.32477   0.12496   0.83825   0.00000  Uiso   1.00
H116   H     0.54308   0.96336   0.85365   0.00000  Uiso   1.00
H117   H     0.54436   0.91300   0.95099   0.00000  Uiso   1.00
H118   H     0.56066   0.90244   0.76286   0.00000  Uiso   1.00
H119   H     0.55193   0.07471   0.84792   0.00000  Uiso   1.00
H120   H     0.50212   0.85702   0.05756   0.00000  Uiso   1.00
H121   H     0.53649   0.83476   0.66088   0.00000  Uiso   1.00
H122   H     0.51809   0.19803   0.84024   0.00000  Uiso   1.00
H123   H     0.20672   0.96235   0.84341   0.00000  Uiso   1.00
H124   H     0.18953   0.91194   0.94018   0.00000  Uiso   1.00
H125   H     0.20584   0.90137   0.75205   0.00000  Uiso   1.00
H126   H     0.19711   0.07364   0.83711   0.00000  Uiso   1.00
H127   H     0.21413   0.85616   0.04879   0.00000  Uiso   1.00
H128   H     0.24850   0.83390   0.65210   0.00000  Uiso   1.00
H129   H     0.23010   0.19716   0.83147   0.00000  Uiso   1.00
O130   O     0.35289   0.82343   0.11701   0.00000  Uiso   1.00
O131   O     0.39798   0.79423   0.59657   0.00000  Uiso   1.00
O132   O     0.37384   0.27083   0.83189   0.00000  Uiso   1.00
N133   N     0.43670   0.86375   0.04222   0.00000  Uiso   1.00
N134   N     0.46883   0.84293   0.67135   0.00000  Uiso   1.00
N135   N     0.45163   0.18255   0.83902   0.00000  Uiso   1.00
N136   N     0.28173   0.86328   0.03750   0.00000  Uiso   1.00
N137   N     0.31387   0.84246   0.66663   0.00000  Uiso   1.00
N138   N     0.29667   0.18209   0.83430   0.00000  Uiso   1.00
C139   C     0.03398   0.53687   0.85131   0.00000  Uiso   1.00
C140   C     0.07993   0.56437   0.90277   0.00000  Uiso   1.00
C141   C     0.03225   0.58723   0.94867   0.00000  Uiso   1.00
C142   C     0.08711   0.61044   0.99150   0.00000  Uiso   1.00
C143   C     0.14341   0.65311   0.07186   0.00000  Uiso   1.00
C144   C     0.07107   0.57012   0.80056   0.00000  Uiso   1.00
C145   C     0.01594   0.59781   0.76052   0.00000  Uiso   1.00
C146   C     0.06336   0.62584   0.71730   0.00000  Uiso   1.00
C147   C     0.10590   0.67740   0.63895   0.00000  Uiso   1.00
C148   C     0.07581   0.47652   0.84678   0.00000  Uiso   1.00
C149   C     0.02467   0.42551   0.84559   0.00000  Uiso   1.00
C150   C     0.07607   0.37474   0.84127   0.00000  Uiso   1.00
C151   C     0.12597   0.28097   0.83468   0.00000  Uiso   1.00
C152   C     0.21621   0.53742   0.84576   0.00000  Uiso   1.00
C153   C     0.17891   0.56466   0.89976   0.00000  Uiso   1.00
C154   C     0.23387   0.58784   0.94253   0.00000  Uiso   1.00
C155   C     0.18627   0.61073   0.98848   0.00000  Uiso   1.00
C156   C     0.17005   0.57041   0.79755   0.00000  Uiso   1.00
C157   C     0.21756   0.59841   0.75438   0.00000  Uiso   1.00
C158   C     0.16252   0.62614   0.71428   0.00000  Uiso   1.00
C159   C     0.17480   0.47681   0.84377   0.00000  Uiso   1.00
C160   C     0.22629   0.42611   0.83945   0.00000  Uiso   1.00
C161   C     0.17523   0.37504   0.83825   0.00000  Uiso   1.00
H162   H     0.95692   0.53664   0.85365   0.00000  Uiso   1.00
H163   H     0.95564   0.58700   0.95099   0.00000  Uiso   1.00
H164   H     0.93934   0.59756   0.76286   0.00000  Uiso   1.00
H165   H     0.94807   0.42529   0.84792   0.00000  Uiso   1.00
H166   H     0.99788   0.64298   0.05756   0.00000  Uiso   1.00
H167   H     0.96351   0.66524   0.66088   0.00000  Uiso   1.00
H168   H     0.98191   0.30197   0.84024   0.00000  Uiso   1.00
H169   H     0.29328   0.53765   0.84341   0.00000  Uiso   1.00
H170   H     0.31047   0.58806   0.94018   0.00000  Uiso   1.00
H171   H     0.29416   0.59863   0.75205   0.00000  Uiso   1.00
H172   H     0.30289   0.42636   0.83711   0.00000  Uiso   1.00
H173   H     0.28587   0.64384   0.04879   0.00000  Uiso   1.00
H174   H     0.25150   0.66610   0.65210   0.00000  Uiso   1.00
H175   H     0.26990   0.30284   0.83147   0.00000  Uiso   1.00
O176   O     0.14711   0.67657   0.11701   0.00000  Uiso   1.00
O177   O     0.10202   0.70577   0.59657   0.00000  Uiso   1.00
O178   O     0.12616   0.22917   0.83189   0.00000  Uiso   1.00
N179   N     0.06330   0.63625   0.04222   0.00000  Uiso   1.00
N180   N     0.03117   0.65707   0.67135   0.00000  Uiso   1.00
N181   N     0.04837   0.31745   0.83902   0.00000  Uiso   1.00
N182   N     0.21827   0.63672   0.03750   0.00000  Uiso   1.00
N183   N     0.18613   0.65754   0.66663   0.00000  Uiso   1.00
N184   N     0.20333   0.31791   0.83430   0.00000  Uiso   1.00
C185   C     0.46602   0.53687   0.35131   0.00000  Uiso   1.00
C186   C     0.42007   0.56437   0.40277   0.00000  Uiso   1.00
C187   C     0.46775   0.58723   0.44867   0.00000  Uiso   1.00
C188   C     0.41289   0.61044   0.49150   0.00000  Uiso   1.00
C189   C     0.35659   0.65311   0.57186   0.00000  Uiso   1.00
C190   C     0.42893   0.57012   0.30056   0.00000  Uiso   1.00
C191   C     0.48406   0.59781   0.26052   0.00000  Uiso   1.00
C192   C     0.43664   0.62584   0.21730   0.00000  Uiso   1.00
C193   C     0.39410   0.67740   0.13895   0.00000  Uiso   1.00
C194   C     0.42419   0.47652   0.34678   0.00000  Uiso   1.00
C195   C     0.47533   0.42551   0.34559   0.00000  Uiso   1.00
C196   C     0.42393   0.37474   0.34127   0.00000  Uiso   1.00
C197   C     0.37403   0.28097   0.33468   0.00000  Uiso   1.00
C198   C     0.28379   0.53742   0.34576   0.00000  Uiso   1.00
C199   C     0.32109   0.56466   0.39976   0.00000  Uiso   1.00
C200   C     0.26613   0.58784   0.44253   0.00000  Uiso   1.00
C201   C     0.31373   0.61073   0.48848   0.00000  Uiso   1.00
C202   C     0.32995   0.57041   0.29755   0.00000  Uiso   1.00
C203   C     0.28244   0.59841   0.25438   0.00000  Uiso   1.00
C204   C     0.33748   0.62614   0.21428   0.00000  Uiso   1.00
C205   C     0.32520   0.47681   0.34377   0.00000  Uiso   1.00
C206   C     0.27371   0.42611   0.33945   0.00000  Uiso   1.00
C207   C     0.32477   0.37504   0.33825   0.00000  Uiso   1.00
H208   H     0.54308   0.53664   0.35365   0.00000  Uiso   1.00
H209   H     0.54436   0.58700   0.45099   0.00000  Uiso   1.00
H210   H     0.56066   0.59756   0.26286   0.00000  Uiso   1.00
H211   H     0.55193   0.42529   0.34792   0.00000  Uiso   1.00
H212   H     0.50212   0.64298   0.55756   0.00000  Uiso   1.00
H213   H     0.53649   0.66524   0.16088   0.00000  Uiso   1.00
H214   H     0.51809   0.30197   0.34024   0.00000  Uiso   1.00
H215   H     0.20672   0.53765   0.34341   0.00000  Uiso   1.00
H216   H     0.18953   0.58806   0.44018   0.00000  Uiso   1.00
H217   H     0.20584   0.59863   0.25205   0.00000  Uiso   1.00
H218   H     0.19711   0.42636   0.33711   0.00000  Uiso   1.00
H219   H     0.21413   0.64384   0.54879   0.00000  Uiso   1.00
H220   H     0.24850   0.66610   0.15210   0.00000  Uiso   1.00
H221   H     0.23010   0.30284   0.33147   0.00000  Uiso   1.00
O222   O     0.35289   0.67657   0.61701   0.00000  Uiso   1.00
O223   O     0.39798   0.70577   0.09657   0.00000  Uiso   1.00
O224   O     0.37384   0.22917   0.33189   0.00000  Uiso   1.00
N225   N     0.43670   0.63625   0.54222   0.00000  Uiso   1.00
N226   N     0.46883   0.65707   0.17135   0.00000  Uiso   1.00
N227   N     0.45163   0.31745   0.33902   0.00000  Uiso   1.00
N228   N     0.28173   0.63672   0.53750   0.00000  Uiso   1.00
N229   N     0.31387   0.65754   0.16663   0.00000  Uiso   1.00
N230   N     0.29667   0.31791   0.33430   0.00000  Uiso   1.00
C231   C     0.03398   0.96313   0.35131   0.00000  Uiso   1.00
C232   C     0.07993   0.93563   0.40277   0.00000  Uiso   1.00
C233   C     0.03225   0.91277   0.44867   0.00000  Uiso   1.00
C234   C     0.08711   0.88956   0.49150   0.00000  Uiso   1.00
C235   C     0.14341   0.84689   0.57186   0.00000  Uiso   1.00
C236   C     0.07107   0.92988   0.30056   0.00000  Uiso   1.00
C237   C     0.01594   0.90219   0.26052   0.00000  Uiso   1.00
C238   C     0.06336   0.87416   0.21730   0.00000  Uiso   1.00
C239   C     0.10590   0.82260   0.13895   0.00000  Uiso   1.00
C240   C     0.07581   0.02348   0.34678   0.00000  Uiso   1.00
C241   C     0.02467   0.07449   0.34559   0.00000  Uiso   1.00
C242   C     0.07607   0.12526   0.34127   0.00000  Uiso   1.00
C243   C     0.12597   0.21903   0.33468   0.00000  Uiso   1.00
C244   C     0.21621   0.96258   0.34576   0.00000  Uiso   1.00
C245   C     0.17891   0.93534   0.39976   0.00000  Uiso   1.00
C246   C     0.23387   0.91216   0.44253   0.00000  Uiso   1.00
C247   C     0.18627   0.88927   0.48848   0.00000  Uiso   1.00
C248   C     0.17005   0.92959   0.29755   0.00000  Uiso   1.00
C249   C     0.21756   0.90159   0.25438   0.00000  Uiso   1.00
C250   C     0.16252   0.87386   0.21428   0.00000  Uiso   1.00
C251   C     0.17480   0.02319   0.34377   0.00000  Uiso   1.00
C252   C     0.22629   0.07389   0.33945   0.00000  Uiso   1.00
C253   C     0.17523   0.12496   0.33825   0.00000  Uiso   1.00
H254   H     0.95692   0.96336   0.35365   0.00000  Uiso   1.00
H255   H     0.95564   0.91300   0.45099   0.00000  Uiso   1.00
H256   H     0.93934   0.90244   0.26286   0.00000  Uiso   1.00
H257   H     0.94807   0.07471   0.34792   0.00000  Uiso   1.00
H258   H     0.99788   0.85702   0.55756   0.00000  Uiso   1.00
H259   H     0.96351   0.83476   0.16088   0.00000  Uiso   1.00
H260   H     0.98191   0.19803   0.34024   0.00000  Uiso   1.00
H261   H     0.29328   0.96235   0.34341   0.00000  Uiso   1.00
H262   H     0.31047   0.91194   0.44018   0.00000  Uiso   1.00
H263   H     0.29416   0.90137   0.25205   0.00000  Uiso   1.00
H264   H     0.30289   0.07364   0.33711   0.00000  Uiso   1.00
H265   H     0.28587   0.85616   0.54879   0.00000  Uiso   1.00
H266   H     0.25150   0.83390   0.15210   0.00000  Uiso   1.00
H267   H     0.26990   0.19716   0.33147   0.00000  Uiso   1.00
O268   O     0.14711   0.82343   0.61701   0.00000  Uiso   1.00
O269   O     0.10202   0.79423   0.09657   0.00000  Uiso   1.00
O270   O     0.12616   0.27083   0.33189   0.00000  Uiso   1.00
N271   N     0.06330   0.86375   0.54222   0.00000  Uiso   1.00
N272   N     0.03117   0.84293   0.17135   0.00000  Uiso   1.00
N273   N     0.04837   0.18255   0.33902   0.00000  Uiso   1.00
N274   N     0.21827   0.86328   0.53750   0.00000  Uiso   1.00
N275   N     0.18613   0.84246   0.16663   0.00000  Uiso   1.00
N276   N     0.20333   0.18209   0.33430   0.00000  Uiso   1.00
C277   C     0.53398   0.03687   0.14869   0.00000  Uiso   1.00
C278   C     0.57993   0.06437   0.09723   0.00000  Uiso   1.00
C279   C     0.53225   0.08723   0.05133   0.00000  Uiso   1.00
C280   C     0.58711   0.11044   0.00850   0.00000  Uiso   1.00
C281   C     0.64341   0.15311   0.92814   0.00000  Uiso   1.00
C282   C     0.57107   0.07012   0.19944   0.00000  Uiso   1.00
C283   C     0.51594   0.09781   0.23948   0.00000  Uiso   1.00
C284   C     0.56336   0.12584   0.28270   0.00000  Uiso   1.00
C285   C     0.60590   0.17740   0.36105   0.00000  Uiso   1.00
C286   C     0.57581   0.97652   0.15322   0.00000  Uiso   1.00
C287   C     0.52467   0.92551   0.15441   0.00000  Uiso   1.00
C288   C     0.57607   0.87474   0.15873   0.00000  Uiso   1.00
C289   C     0.62597   0.78097   0.16532   0.00000  Uiso   1.00
C290   C     0.71621   0.03742   0.15424   0.00000  Uiso   1.00
C291   C     0.67891   0.06466   0.10024   0.00000  Uiso   1.00
C292   C     0.73387   0.08784   0.05747   0.00000  Uiso   1.00
C293   C     0.68627   0.11073   0.01152   0.00000  Uiso   1.00
C294   C     0.67005   0.07041   0.20245   0.00000  Uiso   1.00
C295   C     0.71756   0.09841   0.24562   0.00000  Uiso   1.00
C296   C     0.66252   0.12614   0.28572   0.00000  Uiso   1.00
C297   C     0.67480   0.97681   0.15623   0.00000  Uiso   1.00
C298   C     0.72629   0.92611   0.16055   0.00000  Uiso   1.00
C299   C     0.67523   0.87504   0.16175   0.00000  Uiso   1.00
H300   H     0.45692   0.03664   0.14635   0.00000  Uiso   1.00
H301   H     0.45564   0.08700   0.04901   0.00000  Uiso   1.00
H302   H     0.43934   0.09756   0.23714   0.00000  Uiso   1.00
H303   H     0.44807   0.92529   0.15208   0.00000  Uiso   1.00
H304   H     0.49788   0.14298   0.94244   0.00000  Uiso   1.00
H305   H     0.46351   0.16524   0.33912   0.00000  Uiso   1.00
H306   H     0.48191   0.80197   0.15976   0.00000  Uiso   1.00
H307   H     0.79328   0.03765   0.15659   0.00000  Uiso   1.00
H308   H     0.81047   0.08806   0.05982   0.00000  Uiso   1.00
H309   H     0.79416   0.09863   0.24795   0.00000  Uiso   1.00
H310   H     0.80289   0.92636   0.16289   0.00000  Uiso   1.00
H311   H     0.78587   0.14384   0.95121   0.00000  Uiso   1.00
H312   H     0.75150   0.16610   0.34790   0.00000  Uiso   1.00
H313   H     0.76990   0.80284   0.16853   0.00000  Uiso   1.00
O314   O     0.64711   0.17657   0.88299   0.00000  Uiso   1.00
O315   O     0.60202   0.20577   0.40343   0.00000  Uiso   1.00
O316   O     0.62616   0.72917   0.16811   0.00000  Uiso   1.00
N317   N     0.56330   0.13625   0.95778   0.00000  Uiso   1.00
N318   N     0.53117   0.15707   0.32865   0.00000  Uiso   1.00
N319   N     0.54837   0.81745   0.16098   0.00000  Uiso   1.00
N320   N     0.71827   0.13672   0.96250   0.00000  Uiso   1.00
N321   N     0.68613   0.15754   0.33337   0.00000  Uiso   1.00
N322   N     0.70333   0.81791   0.16570   0.00000  Uiso   1.00
C323   C     0.96602   0.46313   0.14869   0.00000  Uiso   1.00
C324   C     0.92007   0.43563   0.09723   0.00000  Uiso   1.00
C325   C     0.96775   0.41277   0.05133   0.00000  Uiso   1.00
C326   C     0.91289   0.38956   0.00850   0.00000  Uiso   1.00
C327   C     0.85659   0.34689   0.92814   0.00000  Uiso   1.00
C328   C     0.92893   0.42988   0.19944   0.00000  Uiso   1.00
C329   C     0.98406   0.40219   0.23948   0.00000  Uiso   1.00
C330   C     0.93664   0.37416   0.28270   0.00000  Uiso   1.00
C331   C     0.89410   0.32260   0.36105   0.00000  Uiso   1.00
C332   C     0.92419   0.52348   0.15322   0.00000  Uiso   1.00
C333   C     0.97533   0.57449   0.15441   0.00000  Uiso   1.00
C334   C     0.92393   0.62526   0.15873   0.00000  Uiso   1.00
C335   C     0.87403   0.71903   0.16532   0.00000  Uiso   1.00
C336   C     0.78379   0.46258   0.15424   0.00000  Uiso   1.00
C337   C     0.82109   0.43534   0.10024   0.00000  Uiso   1.00
C338   C     0.76613   0.41216   0.05747   0.00000  Uiso   1.00
C339   C     0.81373   0.38927   0.01152   0.00000  Uiso   1.00
C340   C     0.82995   0.42959   0.20245   0.00000  Uiso   1.00
C341   C     0.78244   0.40159   0.24562   0.00000  Uiso   1.00
C342   C     0.83748   0.37386   0.28572   0.00000  Uiso   1.00
C343   C     0.82520   0.52319   0.15623   0.00000  Uiso   1.00
C344   C     0.77371   0.57389   0.16055   0.00000  Uiso   1.00
C345   C     0.82477   0.62496   0.16175   0.00000  Uiso   1.00
H346   H     0.04308   0.46336   0.14635   0.00000  Uiso   1.00
H347   H     0.04436   0.41300   0.04901   0.00000  Uiso   1.00
H348   H     0.06066   0.40244   0.23714   0.00000  Uiso   1.00
H349   H     0.05193   0.57471   0.15208   0.00000  Uiso   1.00
H350   H     0.00212   0.35702   0.94244   0.00000  Uiso   1.00
H351   H     0.03649   0.33476   0.33912   0.00000  Uiso   1.00
H352   H     0.01809   0.69803   0.15976   0.00000  Uiso   1.00
H353   H     0.70672   0.46235   0.15659   0.00000  Uiso   1.00
H354   H     0.68953   0.41194   0.05982   0.00000  Uiso   1.00
H355   H     0.70584   0.40137   0.24795   0.00000  Uiso   1.00
H356   H     0.69711   0.57364   0.16289   0.00000  Uiso   1.00
H357   H     0.71413   0.35616   0.95121   0.00000  Uiso   1.00
H358   H     0.74850   0.33390   0.34790   0.00000  Uiso   1.00
H359   H     0.73010   0.69716   0.16853   0.00000  Uiso   1.00
O360   O     0.85289   0.32343   0.88299   0.00000  Uiso   1.00
O361   O     0.89798   0.29423   0.40343   0.00000  Uiso   1.00
O362   O     0.87384   0.77083   0.16811   0.00000  Uiso   1.00
N363   N     0.93670   0.36375   0.95778   0.00000  Uiso   1.00
N364   N     0.96883   0.34293   0.32865   0.00000  Uiso   1.00
N365   N     0.95163   0.68255   0.16098   0.00000  Uiso   1.00
N366   N     0.78173   0.36328   0.96250   0.00000  Uiso   1.00
N367   N     0.81387   0.34246   0.33337   0.00000  Uiso   1.00
N368   N     0.79667   0.68209   0.16570   0.00000  Uiso   1.00
