data_job_01759
_audit_creation_date              2018-12-19
_audit_creation_method            'Materials Studio'
_symmetry_space_group_name_H-M    'P1'
_symmetry_Int_Tables_number       1
_symmetry_cell_setting            triclinic
loop_
_symmetry_equiv_pos_as_xyz
  x,y,z
_cell_length_a                    18.7112
_cell_length_b                    16.1156
_cell_length_c                    17.2264
_cell_angle_alpha                 90.0000
_cell_angle_beta                  90.0000
_cell_angle_gamma                 90.0000
loop_
_atom_site_label
_atom_site_type_symbol
_atom_site_fract_x
_atom_site_fract_y
_atom_site_fract_z
_atom_site_U_iso_or_equiv
_atom_site_adp_type
_atom_site_occupancy
C1     C     0.79470   0.38665   0.33433   0.00000  Uiso   1.00
C2     C     0.71977   0.36985   0.36539   0.00000  Uiso   1.00
C3     C     0.65627   0.39130   0.32891   0.00000  Uiso   1.00
C4     C     0.59328   0.37050   0.36680   0.00000  Uiso   1.00
C5     C     0.47684   0.35065   0.40412   0.00000  Uiso   1.00
C6     C     0.83307   0.43607   0.39728   0.00000  Uiso   1.00
C7     C     0.86485   0.51320   0.38759   0.00000  Uiso   1.00
C8     C     0.89725   0.54814   0.45232   0.00000  Uiso   1.00
C9     C     0.95676   0.63107   0.53913   0.00000  Uiso   1.00
C10    C     0.83197   0.30259   0.33091   0.00000  Uiso   1.00
C11    C     0.86285   0.26748   0.26543   0.00000  Uiso   1.00
C12    C     0.89434   0.19004   0.27429   0.00000  Uiso   1.00
C13    C     0.95215   0.06572   0.25806   0.00000  Uiso   1.00
C14    C     0.79574   0.31157   0.46650   0.00000  Uiso   1.00
C15    C     0.72033   0.32907   0.43718   0.00000  Uiso   1.00
C16    C     0.65742   0.30822   0.47513   0.00000  Uiso   1.00
C17    C     0.59384   0.32964   0.43871   0.00000  Uiso   1.00
C18    C     0.83364   0.39529   0.46906   0.00000  Uiso   1.00
C19    C     0.86600   0.43012   0.53381   0.00000  Uiso   1.00
C20    C     0.89781   0.50728   0.52424   0.00000  Uiso   1.00
C21    C     0.83254   0.26180   0.40269   0.00000  Uiso   1.00
C22    C     0.86399   0.18441   0.41165   0.00000  Uiso   1.00
C23    C     0.89490   0.14918   0.34620   0.00000  Uiso   1.00
H24    H     0.79427   0.41841   0.27845   0.00000  Uiso   1.00
H25    H     0.65586   0.42287   0.27336   0.00000  Uiso   1.00
H26    H     0.86441   0.54474   0.33204   0.00000  Uiso   1.00
H27    H     0.86240   0.29906   0.20989   0.00000  Uiso   1.00
H28    H     0.50266   0.40985   0.29938   0.00000  Uiso   1.00
H29    H     0.94243   0.66681   0.42310   0.00000  Uiso   1.00
H30    H     0.93819   0.14875   0.16554   0.00000  Uiso   1.00
H31    H     0.79618   0.27982   0.52239   0.00000  Uiso   1.00
H32    H     0.65787   0.27667   0.53068   0.00000  Uiso   1.00
H33    H     0.86643   0.39854   0.58935   0.00000  Uiso   1.00
H34    H     0.86442   0.15286   0.46721   0.00000  Uiso   1.00
H35    H     0.50429   0.29119   0.50824   0.00000  Uiso   1.00
H36    H     0.94406   0.54816   0.63195   0.00000  Uiso   1.00
H37    H     0.93982   0.03009   0.37439   0.00000  Uiso   1.00
O38    O     0.41246   0.35098   0.40488   0.00000  Uiso   1.00
O39    O     0.98943   0.68809   0.56718   0.00000  Uiso   1.00
O40    O     0.98387   0.00841   0.22927   0.00000  Uiso   1.00
N41    N     0.52203   0.38234   0.34739   0.00000  Uiso   1.00
N42    N     0.93317   0.62259   0.46306   0.00000  Uiso   1.00
N43    N     0.92923   0.13826   0.22227   0.00000  Uiso   1.00
N44    N     0.52290   0.31849   0.45977   0.00000  Uiso   1.00
N45    N     0.93405   0.55875   0.57544   0.00000  Uiso   1.00
N46    N     0.93011   0.07441   0.33465   0.00000  Uiso   1.00
C47    C     0.70530   0.61335   0.83433   0.00000  Uiso   1.00
C48    C     0.78023   0.63015   0.86539   0.00000  Uiso   1.00
C49    C     0.84373   0.60870   0.82891   0.00000  Uiso   1.00
C50    C     0.90672   0.62950   0.86680   0.00000  Uiso   1.00
C51    C     0.02316   0.64935   0.90412   0.00000  Uiso   1.00
C52    C     0.66693   0.56393   0.89728   0.00000  Uiso   1.00
C53    C     0.63515   0.48680   0.88759   0.00000  Uiso   1.00
C54    C     0.60275   0.45186   0.95232   0.00000  Uiso   1.00
C55    C     0.54324   0.36893   0.03913   0.00000  Uiso   1.00
C56    C     0.66803   0.69741   0.83091   0.00000  Uiso   1.00
C57    C     0.63715   0.73252   0.76543   0.00000  Uiso   1.00
C58    C     0.60566   0.80996   0.77429   0.00000  Uiso   1.00
C59    C     0.54785   0.93428   0.75806   0.00000  Uiso   1.00
C60    C     0.70426   0.68843   0.96650   0.00000  Uiso   1.00
C61    C     0.77967   0.67093   0.93718   0.00000  Uiso   1.00
C62    C     0.84258   0.69178   0.97513   0.00000  Uiso   1.00
C63    C     0.90616   0.67036   0.93871   0.00000  Uiso   1.00
C64    C     0.66636   0.60471   0.96906   0.00000  Uiso   1.00
C65    C     0.63400   0.56988   0.03381   0.00000  Uiso   1.00
C66    C     0.60219   0.49272   0.02424   0.00000  Uiso   1.00
C67    C     0.66746   0.73820   0.90269   0.00000  Uiso   1.00
C68    C     0.63601   0.81559   0.91165   0.00000  Uiso   1.00
C69    C     0.60510   0.85082   0.84620   0.00000  Uiso   1.00
H70    H     0.70573   0.58159   0.77845   0.00000  Uiso   1.00
H71    H     0.84414   0.57713   0.77336   0.00000  Uiso   1.00
H72    H     0.63559   0.45526   0.83204   0.00000  Uiso   1.00
H73    H     0.63760   0.70094   0.70989   0.00000  Uiso   1.00
H74    H     0.99734   0.59015   0.79938   0.00000  Uiso   1.00
H75    H     0.55757   0.33319   0.92310   0.00000  Uiso   1.00
H76    H     0.56181   0.85125   0.66554   0.00000  Uiso   1.00
H77    H     0.70382   0.72018   0.02239   0.00000  Uiso   1.00
H78    H     0.84213   0.72333   0.03068   0.00000  Uiso   1.00
H79    H     0.63357   0.60146   0.08935   0.00000  Uiso   1.00
H80    H     0.63558   0.84714   0.96721   0.00000  Uiso   1.00
H81    H     0.99571   0.70881   0.00824   0.00000  Uiso   1.00
H82    H     0.55594   0.45184   0.13195   0.00000  Uiso   1.00
H83    H     0.56018   0.96991   0.87439   0.00000  Uiso   1.00
O84    O     0.08754   0.64902   0.90488   0.00000  Uiso   1.00
O85    O     0.51057   0.31191   0.06718   0.00000  Uiso   1.00
O86    O     0.51613   0.99159   0.72927   0.00000  Uiso   1.00
N87    N     0.97797   0.61766   0.84739   0.00000  Uiso   1.00
N88    N     0.56683   0.37741   0.96306   0.00000  Uiso   1.00
N89    N     0.57077   0.86174   0.72227   0.00000  Uiso   1.00
N90    N     0.97710   0.68151   0.95977   0.00000  Uiso   1.00
N91    N     0.56595   0.44125   0.07544   0.00000  Uiso   1.00
N92    N     0.56989   0.92559   0.83465   0.00000  Uiso   1.00
C93    C     0.20530   0.88665   0.16567   0.00000  Uiso   1.00
C94    C     0.28023   0.86985   0.13461   0.00000  Uiso   1.00
C95    C     0.34373   0.89130   0.17109   0.00000  Uiso   1.00
C96    C     0.40672   0.87050   0.13320   0.00000  Uiso   1.00
C97    C     0.52316   0.85065   0.09588   0.00000  Uiso   1.00
C98    C     0.16693   0.93607   0.10272   0.00000  Uiso   1.00
C99    C     0.13515   0.01320   0.11241   0.00000  Uiso   1.00
C100   C     0.10275   0.04814   0.04768   0.00000  Uiso   1.00
C101   C     0.04324   0.13107   0.96087   0.00000  Uiso   1.00
C102   C     0.16803   0.80259   0.16909   0.00000  Uiso   1.00
C103   C     0.13715   0.76748   0.23457   0.00000  Uiso   1.00
C104   C     0.10566   0.69004   0.22571   0.00000  Uiso   1.00
C105   C     0.04785   0.56572   0.24194   0.00000  Uiso   1.00
C106   C     0.20426   0.81157   0.03350   0.00000  Uiso   1.00
C107   C     0.27967   0.82907   0.06282   0.00000  Uiso   1.00
C108   C     0.34258   0.80822   0.02487   0.00000  Uiso   1.00
C109   C     0.40616   0.82964   0.06129   0.00000  Uiso   1.00
C110   C     0.16636   0.89529   0.03094   0.00000  Uiso   1.00
C111   C     0.13400   0.93012   0.96619   0.00000  Uiso   1.00
C112   C     0.10219   0.00728   0.97576   0.00000  Uiso   1.00
C113   C     0.16746   0.76180   0.09731   0.00000  Uiso   1.00
C114   C     0.13601   0.68441   0.08835   0.00000  Uiso   1.00
C115   C     0.10510   0.64918   0.15380   0.00000  Uiso   1.00
H116   H     0.20573   0.91841   0.22155   0.00000  Uiso   1.00
H117   H     0.34414   0.92287   0.22664   0.00000  Uiso   1.00
H118   H     0.13559   0.04474   0.16796   0.00000  Uiso   1.00
H119   H     0.13760   0.79906   0.29011   0.00000  Uiso   1.00
H120   H     0.49734   0.90985   0.20062   0.00000  Uiso   1.00
H121   H     0.05757   0.16681   0.07690   0.00000  Uiso   1.00
H122   H     0.06181   0.64875   0.33446   0.00000  Uiso   1.00
H123   H     0.20382   0.77982   0.97761   0.00000  Uiso   1.00
H124   H     0.34213   0.77667   0.96932   0.00000  Uiso   1.00
H125   H     0.13357   0.89854   0.91065   0.00000  Uiso   1.00
H126   H     0.13558   0.65286   0.03279   0.00000  Uiso   1.00
H127   H     0.49571   0.79119   0.99176   0.00000  Uiso   1.00
H128   H     0.05594   0.04816   0.86805   0.00000  Uiso   1.00
H129   H     0.06018   0.53009   0.12561   0.00000  Uiso   1.00
O130   O     0.58754   0.85098   0.09512   0.00000  Uiso   1.00
O131   O     0.01057   0.18809   0.93282   0.00000  Uiso   1.00
O132   O     0.01613   0.50841   0.27073   0.00000  Uiso   1.00
N133   N     0.47797   0.88234   0.15261   0.00000  Uiso   1.00
N134   N     0.06683   0.12259   0.03694   0.00000  Uiso   1.00
N135   N     0.07077   0.63826   0.27773   0.00000  Uiso   1.00
N136   N     0.47710   0.81849   0.04023   0.00000  Uiso   1.00
N137   N     0.06595   0.05875   0.92456   0.00000  Uiso   1.00
N138   N     0.06989   0.57441   0.16535   0.00000  Uiso   1.00
C139   C     0.29470   0.11335   0.66567   0.00000  Uiso   1.00
C140   C     0.21977   0.13015   0.63461   0.00000  Uiso   1.00
C141   C     0.15627   0.10870   0.67109   0.00000  Uiso   1.00
C142   C     0.09328   0.12950   0.63320   0.00000  Uiso   1.00
C143   C     0.97684   0.14935   0.59588   0.00000  Uiso   1.00
C144   C     0.33307   0.06393   0.60272   0.00000  Uiso   1.00
C145   C     0.36485   0.98680   0.61241   0.00000  Uiso   1.00
C146   C     0.39725   0.95186   0.54768   0.00000  Uiso   1.00
C147   C     0.45676   0.86893   0.46087   0.00000  Uiso   1.00
C148   C     0.33197   0.19741   0.66909   0.00000  Uiso   1.00
C149   C     0.36285   0.23252   0.73457   0.00000  Uiso   1.00
C150   C     0.39434   0.30996   0.72571   0.00000  Uiso   1.00
C151   C     0.45215   0.43428   0.74194   0.00000  Uiso   1.00
C152   C     0.29574   0.18843   0.53350   0.00000  Uiso   1.00
C153   C     0.22033   0.17093   0.56282   0.00000  Uiso   1.00
C154   C     0.15742   0.19178   0.52487   0.00000  Uiso   1.00
C155   C     0.09384   0.17036   0.56129   0.00000  Uiso   1.00
C156   C     0.33364   0.10471   0.53094   0.00000  Uiso   1.00
C157   C     0.36600   0.06988   0.46619   0.00000  Uiso   1.00
C158   C     0.39781   0.99272   0.47576   0.00000  Uiso   1.00
C159   C     0.33254   0.23820   0.59731   0.00000  Uiso   1.00
C160   C     0.36399   0.31559   0.58835   0.00000  Uiso   1.00
C161   C     0.39490   0.35082   0.65380   0.00000  Uiso   1.00
H162   H     0.29427   0.08159   0.72155   0.00000  Uiso   1.00
H163   H     0.15586   0.07713   0.72664   0.00000  Uiso   1.00
H164   H     0.36441   0.95526   0.66796   0.00000  Uiso   1.00
H165   H     0.36240   0.20094   0.79011   0.00000  Uiso   1.00
H166   H     0.00266   0.09015   0.70062   0.00000  Uiso   1.00
H167   H     0.44243   0.83319   0.57690   0.00000  Uiso   1.00
H168   H     0.43819   0.35125   0.83446   0.00000  Uiso   1.00
H169   H     0.29618   0.22018   0.47761   0.00000  Uiso   1.00
H170   H     0.15787   0.22333   0.46932   0.00000  Uiso   1.00
H171   H     0.36643   0.10146   0.41065   0.00000  Uiso   1.00
H172   H     0.36442   0.34714   0.53279   0.00000  Uiso   1.00
H173   H     0.00429   0.20881   0.49176   0.00000  Uiso   1.00
H174   H     0.44406   0.95184   0.36805   0.00000  Uiso   1.00
H175   H     0.43982   0.46991   0.62561   0.00000  Uiso   1.00
O176   O     0.91246   0.14902   0.59512   0.00000  Uiso   1.00
O177   O     0.48943   0.81191   0.43282   0.00000  Uiso   1.00
O178   O     0.48387   0.49159   0.77073   0.00000  Uiso   1.00
N179   N     0.02203   0.11766   0.65261   0.00000  Uiso   1.00
N180   N     0.43317   0.87741   0.53694   0.00000  Uiso   1.00
N181   N     0.42923   0.36174   0.77773   0.00000  Uiso   1.00
N182   N     0.02290   0.18151   0.54023   0.00000  Uiso   1.00
N183   N     0.43405   0.94125   0.42456   0.00000  Uiso   1.00
N184   N     0.43011   0.42559   0.66535   0.00000  Uiso   1.00
C185   C     0.20530   0.61335   0.66567   0.00000  Uiso   1.00
C186   C     0.28023   0.63015   0.63461   0.00000  Uiso   1.00
C187   C     0.34373   0.60870   0.67109   0.00000  Uiso   1.00
C188   C     0.40672   0.62950   0.63320   0.00000  Uiso   1.00
C189   C     0.52316   0.64935   0.59588   0.00000  Uiso   1.00
C190   C     0.16693   0.56393   0.60272   0.00000  Uiso   1.00
C191   C     0.13515   0.48680   0.61241   0.00000  Uiso   1.00
C192   C     0.10275   0.45186   0.54768   0.00000  Uiso   1.00
C193   C     0.04324   0.36893   0.46087   0.00000  Uiso   1.00
C194   C     0.16803   0.69741   0.66909   0.00000  Uiso   1.00
C195   C     0.13715   0.73252   0.73457   0.00000  Uiso   1.00
C196   C     0.10566   0.80996   0.72571   0.00000  Uiso   1.00
C197   C     0.04785   0.93428   0.74194   0.00000  Uiso   1.00
C198   C     0.20426   0.68843   0.53350   0.00000  Uiso   1.00
C199   C     0.27967   0.67093   0.56282   0.00000  Uiso   1.00
C200   C     0.34258   0.69178   0.52487   0.00000  Uiso   1.00
C201   C     0.40616   0.67036   0.56129   0.00000  Uiso   1.00
C202   C     0.16636   0.60471   0.53094   0.00000  Uiso   1.00
C203   C     0.13400   0.56988   0.46619   0.00000  Uiso   1.00
C204   C     0.10219   0.49272   0.47576   0.00000  Uiso   1.00
C205   C     0.16746   0.73820   0.59731   0.00000  Uiso   1.00
C206   C     0.13601   0.81559   0.58835   0.00000  Uiso   1.00
C207   C     0.10510   0.85082   0.65380   0.00000  Uiso   1.00
H208   H     0.20573   0.58159   0.72155   0.00000  Uiso   1.00
H209   H     0.34414   0.57713   0.72664   0.00000  Uiso   1.00
H210   H     0.13559   0.45526   0.66796   0.00000  Uiso   1.00
H211   H     0.13760   0.70094   0.79011   0.00000  Uiso   1.00
H212   H     0.49734   0.59015   0.70062   0.00000  Uiso   1.00
H213   H     0.05757   0.33319   0.57690   0.00000  Uiso   1.00
H214   H     0.06181   0.85125   0.83446   0.00000  Uiso   1.00
H215   H     0.20382   0.72018   0.47761   0.00000  Uiso   1.00
H216   H     0.34213   0.72333   0.46932   0.00000  Uiso   1.00
H217   H     0.13357   0.60146   0.41065   0.00000  Uiso   1.00
H218   H     0.13558   0.84714   0.53279   0.00000  Uiso   1.00
H219   H     0.49571   0.70881   0.49176   0.00000  Uiso   1.00
H220   H     0.05594   0.45184   0.36805   0.00000  Uiso   1.00
H221   H     0.06018   0.96991   0.62561   0.00000  Uiso   1.00
O222   O     0.58754   0.64902   0.59512   0.00000  Uiso   1.00
O223   O     0.01057   0.31191   0.43282   0.00000  Uiso   1.00
O224   O     0.01613   0.99159   0.77073   0.00000  Uiso   1.00
N225   N     0.47797   0.61766   0.65261   0.00000  Uiso   1.00
N226   N     0.06683   0.37741   0.53694   0.00000  Uiso   1.00
N227   N     0.07077   0.86174   0.77773   0.00000  Uiso   1.00
N228   N     0.47710   0.68151   0.54023   0.00000  Uiso   1.00
N229   N     0.06595   0.44125   0.42456   0.00000  Uiso   1.00
N230   N     0.06989   0.92559   0.66535   0.00000  Uiso   1.00
C231   C     0.29470   0.38665   0.16567   0.00000  Uiso   1.00
C232   C     0.21977   0.36985   0.13461   0.00000  Uiso   1.00
C233   C     0.15627   0.39130   0.17109   0.00000  Uiso   1.00
C234   C     0.09328   0.37050   0.13320   0.00000  Uiso   1.00
C235   C     0.97684   0.35065   0.09588   0.00000  Uiso   1.00
C236   C     0.33307   0.43607   0.10272   0.00000  Uiso   1.00
C237   C     0.36485   0.51320   0.11241   0.00000  Uiso   1.00
C238   C     0.39725   0.54814   0.04768   0.00000  Uiso   1.00
C239   C     0.45676   0.63107   0.96087   0.00000  Uiso   1.00
C240   C     0.33197   0.30259   0.16909   0.00000  Uiso   1.00
C241   C     0.36285   0.26748   0.23457   0.00000  Uiso   1.00
C242   C     0.39434   0.19004   0.22571   0.00000  Uiso   1.00
C243   C     0.45215   0.06572   0.24194   0.00000  Uiso   1.00
C244   C     0.29574   0.31157   0.03350   0.00000  Uiso   1.00
C245   C     0.22033   0.32907   0.06282   0.00000  Uiso   1.00
C246   C     0.15742   0.30822   0.02487   0.00000  Uiso   1.00
C247   C     0.09384   0.32964   0.06129   0.00000  Uiso   1.00
C248   C     0.33364   0.39529   0.03094   0.00000  Uiso   1.00
C249   C     0.36600   0.43012   0.96619   0.00000  Uiso   1.00
C250   C     0.39781   0.50728   0.97576   0.00000  Uiso   1.00
C251   C     0.33254   0.26180   0.09731   0.00000  Uiso   1.00
C252   C     0.36399   0.18441   0.08835   0.00000  Uiso   1.00
C253   C     0.39490   0.14918   0.15380   0.00000  Uiso   1.00
H254   H     0.29427   0.41841   0.22155   0.00000  Uiso   1.00
H255   H     0.15586   0.42287   0.22664   0.00000  Uiso   1.00
H256   H     0.36441   0.54474   0.16796   0.00000  Uiso   1.00
H257   H     0.36240   0.29906   0.29011   0.00000  Uiso   1.00
H258   H     0.00266   0.40985   0.20062   0.00000  Uiso   1.00
H259   H     0.44243   0.66681   0.07690   0.00000  Uiso   1.00
H260   H     0.43819   0.14875   0.33446   0.00000  Uiso   1.00
H261   H     0.29618   0.27982   0.97761   0.00000  Uiso   1.00
H262   H     0.15787   0.27667   0.96932   0.00000  Uiso   1.00
H263   H     0.36643   0.39854   0.91065   0.00000  Uiso   1.00
H264   H     0.36442   0.15286   0.03279   0.00000  Uiso   1.00
H265   H     0.00429   0.29119   0.99176   0.00000  Uiso   1.00
H266   H     0.44406   0.54816   0.86805   0.00000  Uiso   1.00
H267   H     0.43982   0.03009   0.12561   0.00000  Uiso   1.00
O268   O     0.91246   0.35098   0.09512   0.00000  Uiso   1.00
O269   O     0.48943   0.68809   0.93282   0.00000  Uiso   1.00
O270   O     0.48387   0.00841   0.27073   0.00000  Uiso   1.00
N271   N     0.02203   0.38234   0.15261   0.00000  Uiso   1.00
N272   N     0.43317   0.62259   0.03694   0.00000  Uiso   1.00
N273   N     0.42923   0.13826   0.27773   0.00000  Uiso   1.00
N274   N     0.02290   0.31849   0.04023   0.00000  Uiso   1.00
N275   N     0.43405   0.55875   0.92456   0.00000  Uiso   1.00
N276   N     0.43011   0.07441   0.16535   0.00000  Uiso   1.00
C277   C     0.79470   0.11335   0.83433   0.00000  Uiso   1.00
C278   C     0.71977   0.13015   0.86539   0.00000  Uiso   1.00
C279   C     0.65627   0.10870   0.82891   0.00000  Uiso   1.00
C280   C     0.59328   0.12950   0.86680   0.00000  Uiso   1.00
C281   C     0.47684   0.14935   0.90412   0.00000  Uiso   1.00
C282   C     0.83307   0.06393   0.89728   0.00000  Uiso   1.00
C283   C     0.86485   0.98680   0.88759   0.00000  Uiso   1.00
C284   C     0.89725   0.95186   0.95232   0.00000  Uiso   1.00
C285   C     0.95676   0.86893   0.03913   0.00000  Uiso   1.00
C286   C     0.83197   0.19741   0.83091   0.00000  Uiso   1.00
C287   C     0.86285   0.23252   0.76543   0.00000  Uiso   1.00
C288   C     0.89434   0.30996   0.77429   0.00000  Uiso   1.00
C289   C     0.95215   0.43428   0.75806   0.00000  Uiso   1.00
C290   C     0.79574   0.18843   0.96650   0.00000  Uiso   1.00
C291   C     0.72033   0.17093   0.93718   0.00000  Uiso   1.00
C292   C     0.65742   0.19178   0.97513   0.00000  Uiso   1.00
C293   C     0.59384   0.17036   0.93871   0.00000  Uiso   1.00
C294   C     0.83364   0.10471   0.96906   0.00000  Uiso   1.00
C295   C     0.86600   0.06988   0.03381   0.00000  Uiso   1.00
C296   C     0.89781   0.99272   0.02424   0.00000  Uiso   1.00
C297   C     0.83254   0.23820   0.90269   0.00000  Uiso   1.00
C298   C     0.86399   0.31559   0.91165   0.00000  Uiso   1.00
C299   C     0.89490   0.35082   0.84620   0.00000  Uiso   1.00
H300   H     0.79427   0.08159   0.77845   0.00000  Uiso   1.00
H301   H     0.65586   0.07713   0.77336   0.00000  Uiso   1.00
H302   H     0.86441   0.95526   0.83204   0.00000  Uiso   1.00
H303   H     0.86240   0.20094   0.70989   0.00000  Uiso   1.00
H304   H     0.50266   0.09015   0.79938   0.00000  Uiso   1.00
H305   H     0.94243   0.83319   0.92310   0.00000  Uiso   1.00
H306   H     0.93819   0.35125   0.66554   0.00000  Uiso   1.00
H307   H     0.79618   0.22018   0.02239   0.00000  Uiso   1.00
H308   H     0.65787   0.22333   0.03068   0.00000  Uiso   1.00
H309   H     0.86643   0.10146   0.08935   0.00000  Uiso   1.00
H310   H     0.86442   0.34714   0.96721   0.00000  Uiso   1.00
H311   H     0.50429   0.20881   0.00824   0.00000  Uiso   1.00
H312   H     0.94406   0.95184   0.13195   0.00000  Uiso   1.00
H313   H     0.93982   0.46991   0.87439   0.00000  Uiso   1.00
O314   O     0.41246   0.14902   0.90488   0.00000  Uiso   1.00
O315   O     0.98943   0.81191   0.06718   0.00000  Uiso   1.00
O316   O     0.98387   0.49159   0.72927   0.00000  Uiso   1.00
N317   N     0.52203   0.11766   0.84739   0.00000  Uiso   1.00
N318   N     0.93317   0.87741   0.96306   0.00000  Uiso   1.00
N319   N     0.92923   0.36174   0.72227   0.00000  Uiso   1.00
N320   N     0.52290   0.18151   0.95977   0.00000  Uiso   1.00
N321   N     0.93405   0.94125   0.07544   0.00000  Uiso   1.00
N322   N     0.93011   0.42559   0.83465   0.00000  Uiso   1.00
C323   C     0.70530   0.88665   0.33433   0.00000  Uiso   1.00
C324   C     0.78023   0.86985   0.36539   0.00000  Uiso   1.00
C325   C     0.84373   0.89130   0.32891   0.00000  Uiso   1.00
C326   C     0.90672   0.87050   0.36680   0.00000  Uiso   1.00
C327   C     0.02316   0.85065   0.40412   0.00000  Uiso   1.00
C328   C     0.66693   0.93607   0.39728   0.00000  Uiso   1.00
C329   C     0.63515   0.01320   0.38759   0.00000  Uiso   1.00
C330   C     0.60275   0.04814   0.45232   0.00000  Uiso   1.00
C331   C     0.54324   0.13107   0.53913   0.00000  Uiso   1.00
C332   C     0.66803   0.80259   0.33091   0.00000  Uiso   1.00
C333   C     0.63715   0.76748   0.26543   0.00000  Uiso   1.00
C334   C     0.60566   0.69004   0.27429   0.00000  Uiso   1.00
C335   C     0.54785   0.56572   0.25806   0.00000  Uiso   1.00
C336   C     0.70426   0.81157   0.46650   0.00000  Uiso   1.00
C337   C     0.77967   0.82907   0.43718   0.00000  Uiso   1.00
C338   C     0.84258   0.80822   0.47513   0.00000  Uiso   1.00
C339   C     0.90616   0.82964   0.43871   0.00000  Uiso   1.00
C340   C     0.66636   0.89529   0.46906   0.00000  Uiso   1.00
C341   C     0.63400   0.93012   0.53381   0.00000  Uiso   1.00
C342   C     0.60219   0.00728   0.52424   0.00000  Uiso   1.00
C343   C     0.66746   0.76180   0.40269   0.00000  Uiso   1.00
C344   C     0.63601   0.68441   0.41165   0.00000  Uiso   1.00
C345   C     0.60510   0.64918   0.34620   0.00000  Uiso   1.00
H346   H     0.70573   0.91841   0.27845   0.00000  Uiso   1.00
H347   H     0.84414   0.92287   0.27336   0.00000  Uiso   1.00
H348   H     0.63559   0.04474   0.33204   0.00000  Uiso   1.00
H349   H     0.63760   0.79906   0.20989   0.00000  Uiso   1.00
H350   H     0.99734   0.90985   0.29938   0.00000  Uiso   1.00
H351   H     0.55757   0.16681   0.42310   0.00000  Uiso   1.00
H352   H     0.56181   0.64875   0.16554   0.00000  Uiso   1.00
H353   H     0.70382   0.77982   0.52239   0.00000  Uiso   1.00
H354   H     0.84213   0.77667   0.53068   0.00000  Uiso   1.00
H355   H     0.63357   0.89854   0.58935   0.00000  Uiso   1.00
H356   H     0.63558   0.65286   0.46721   0.00000  Uiso   1.00
H357   H     0.99571   0.79119   0.50824   0.00000  Uiso   1.00
H358   H     0.55594   0.04816   0.63195   0.00000  Uiso   1.00
H359   H     0.56018   0.53009   0.37439   0.00000  Uiso   1.00
O360   O     0.08754   0.85098   0.40488   0.00000  Uiso   1.00
O361   O     0.51057   0.18809   0.56718   0.00000  Uiso   1.00
O362   O     0.51613   0.50841   0.22927   0.00000  Uiso   1.00
N363   N     0.97797   0.88234   0.34739   0.00000  Uiso   1.00
N364   N     0.56683   0.12259   0.46306   0.00000  Uiso   1.00
N365   N     0.57077   0.63826   0.22227   0.00000  Uiso   1.00
N366   N     0.97710   0.81849   0.45977   0.00000  Uiso   1.00
N367   N     0.56595   0.05875   0.57544   0.00000  Uiso   1.00
N368   N     0.56989   0.57441   0.33465   0.00000  Uiso   1.00
