data_job_00640
_audit_creation_date              2018-12-19
_audit_creation_method            'Materials Studio'
_symmetry_space_group_name_H-M    'P1'
_symmetry_Int_Tables_number       1
_symmetry_cell_setting            triclinic
loop_
_symmetry_equiv_pos_as_xyz
  x,y,z
_cell_length_a                    14.9741
_cell_length_b                    12.4835
_cell_length_c                    13.0863
_cell_angle_alpha                 90.0000
_cell_angle_beta                  71.0219
_cell_angle_gamma                 90.0000
loop_
_atom_site_label
_atom_site_type_symbol
_atom_site_fract_x
_atom_site_fract_y
_atom_site_fract_z
_atom_site_U_iso_or_equiv
_atom_site_adp_type
_atom_site_occupancy
C1     C     0.77272   0.49871   0.36402   0.00000  Uiso   1.00
C2     C     0.73734   0.44596   0.27930   0.00000  Uiso   1.00
C3     C     0.70049   0.34327   0.28524   0.00000  Uiso   1.00
C4     C     0.67205   0.30978   0.19944   0.00000  Uiso   1.00
C5     C     0.61592   0.21767   0.08133   0.00000  Uiso   1.00
C6     C     0.87443   0.53219   0.30503   0.00000  Uiso   1.00
C7     C     0.95283   0.50202   0.33261   0.00000  Uiso   1.00
C8     C     0.03980   0.54113   0.26847   0.00000  Uiso   1.00
C9     C     0.19649   0.58297   0.19035   0.00000  Uiso   1.00
C10    C     0.71670   0.60237   0.39606   0.00000  Uiso   1.00
C11    C     0.66250   0.63123   0.50020   0.00000  Uiso   1.00
C12    C     0.61669   0.72945   0.51271   0.00000  Uiso   1.00
C13    C     0.52848   0.88025   0.57595   0.00000  Uiso   1.00
C14    C     0.78775   0.62185   0.20109   0.00000  Uiso   1.00
C15    C     0.74551   0.51284   0.19080   0.00000  Uiso   1.00
C16    C     0.71711   0.47951   0.10497   0.00000  Uiso   1.00
C17    C     0.68022   0.37679   0.11079   0.00000  Uiso   1.00
C18    C     0.88259   0.59907   0.21653   0.00000  Uiso   1.00
C19    C     0.96946   0.63825   0.15234   0.00000  Uiso   1.00
C20    C     0.04798   0.60814   0.17981   0.00000  Uiso   1.00
C21    C     0.72486   0.66926   0.30757   0.00000  Uiso   1.00
C22    C     0.67913   0.76746   0.31993   0.00000  Uiso   1.00
C23    C     0.62487   0.79645   0.42406   0.00000  Uiso   1.00
H24    H     0.76637   0.44664   0.43292   0.00000  Uiso   1.00
H25    H     0.69419   0.29153   0.35374   0.00000  Uiso   1.00
H26    H     0.94649   0.45026   0.40110   0.00000  Uiso   1.00
H27    H     0.65620   0.57945   0.56866   0.00000  Uiso   1.00
H28    H     0.61780   0.14904   0.22691   0.00000  Uiso   1.00
H29    H     0.14979   0.48377   0.32680   0.00000  Uiso   1.00
H30    H     0.53766   0.75618   0.68014   0.00000  Uiso   1.00
H31    H     0.79411   0.67392   0.13218   0.00000  Uiso   1.00
H32    H     0.72344   0.53128   0.03650   0.00000  Uiso   1.00
H33    H     0.97575   0.69001   0.08387   0.00000  Uiso   1.00
H34    H     0.68546   0.81919   0.25142   0.00000  Uiso   1.00
H35    H     0.64154   0.34363   0.96942   0.00000  Uiso   1.00
H36    H     0.17353   0.67836   0.06932   0.00000  Uiso   1.00
H37    H     0.56140   0.95077   0.42265   0.00000  Uiso   1.00
O38    O     0.58272   0.14839   0.04063   0.00000  Uiso   1.00
O39    O     0.28066   0.58755   0.17171   0.00000  Uiso   1.00
O40    O     0.47756   0.94494   0.63527   0.00000  Uiso   1.00
N41    N     0.63307   0.21442   0.17945   0.00000  Uiso   1.00
N42    N     0.13045   0.52735   0.27284   0.00000  Uiso   1.00
N43    N     0.55818   0.78205   0.60318   0.00000  Uiso   1.00
N44    N     0.64584   0.31913   0.04090   0.00000  Uiso   1.00
N45    N     0.14322   0.63206   0.13429   0.00000  Uiso   1.00
N46    N     0.57095   0.88676   0.46463   0.00000  Uiso   1.00
C47    C     0.22728   0.99871   0.13598   0.00000  Uiso   1.00
C48    C     0.26266   0.94596   0.22070   0.00000  Uiso   1.00
C49    C     0.29951   0.84327   0.21476   0.00000  Uiso   1.00
C50    C     0.32795   0.80978   0.30056   0.00000  Uiso   1.00
C51    C     0.38408   0.71767   0.41867   0.00000  Uiso   1.00
C52    C     0.12557   0.03219   0.19497   0.00000  Uiso   1.00
C53    C     0.04717   0.00202   0.16739   0.00000  Uiso   1.00
C54    C     0.96020   0.04113   0.23153   0.00000  Uiso   1.00
C55    C     0.80351   0.08297   0.30965   0.00000  Uiso   1.00
C56    C     0.28330   0.10237   0.10394   0.00000  Uiso   1.00
C57    C     0.33750   0.13123   0.99980   0.00000  Uiso   1.00
C58    C     0.38331   0.22945   0.98729   0.00000  Uiso   1.00
C59    C     0.47152   0.38025   0.92405   0.00000  Uiso   1.00
C60    C     0.21225   0.12185   0.29891   0.00000  Uiso   1.00
C61    C     0.25449   0.01284   0.30920   0.00000  Uiso   1.00
C62    C     0.28289   0.97951   0.39503   0.00000  Uiso   1.00
C63    C     0.31978   0.87679   0.38921   0.00000  Uiso   1.00
C64    C     0.11741   0.09907   0.28347   0.00000  Uiso   1.00
C65    C     0.03054   0.13825   0.34766   0.00000  Uiso   1.00
C66    C     0.95202   0.10814   0.32019   0.00000  Uiso   1.00
C67    C     0.27514   0.16926   0.19243   0.00000  Uiso   1.00
C68    C     0.32087   0.26746   0.18007   0.00000  Uiso   1.00
C69    C     0.37513   0.29645   0.07594   0.00000  Uiso   1.00
H70    H     0.23363   0.94664   0.06708   0.00000  Uiso   1.00
H71    H     0.30581   0.79153   0.14626   0.00000  Uiso   1.00
H72    H     0.05351   0.95026   0.09890   0.00000  Uiso   1.00
H73    H     0.34380   0.07945   0.93134   0.00000  Uiso   1.00
H74    H     0.38220   0.64904   0.27309   0.00000  Uiso   1.00
H75    H     0.85021   0.98377   0.17320   0.00000  Uiso   1.00
H76    H     0.46234   0.25618   0.81986   0.00000  Uiso   1.00
H77    H     0.20589   0.17392   0.36782   0.00000  Uiso   1.00
H78    H     0.27656   0.03128   0.46350   0.00000  Uiso   1.00
H79    H     0.02425   0.19001   0.41613   0.00000  Uiso   1.00
H80    H     0.31454   0.31919   0.24858   0.00000  Uiso   1.00
H81    H     0.35846   0.84363   0.53058   0.00000  Uiso   1.00
H82    H     0.82647   0.17836   0.43068   0.00000  Uiso   1.00
H83    H     0.43860   0.45077   0.07735   0.00000  Uiso   1.00
O84    O     0.41728   0.64839   0.45937   0.00000  Uiso   1.00
O85    O     0.71934   0.08755   0.32829   0.00000  Uiso   1.00
O86    O     0.52244   0.44494   0.86473   0.00000  Uiso   1.00
N87    N     0.36693   0.71442   0.32055   0.00000  Uiso   1.00
N88    N     0.86955   0.02735   0.22716   0.00000  Uiso   1.00
N89    N     0.44182   0.28205   0.89682   0.00000  Uiso   1.00
N90    N     0.35416   0.81913   0.45910   0.00000  Uiso   1.00
N91    N     0.85678   0.13206   0.36571   0.00000  Uiso   1.00
N92    N     0.42905   0.38676   0.03537   0.00000  Uiso   1.00
C93    C     0.22728   0.50129   0.63598   0.00000  Uiso   1.00
C94    C     0.26266   0.55404   0.72070   0.00000  Uiso   1.00
C95    C     0.29951   0.65673   0.71476   0.00000  Uiso   1.00
C96    C     0.32795   0.69022   0.80056   0.00000  Uiso   1.00
C97    C     0.38408   0.78233   0.91867   0.00000  Uiso   1.00
C98    C     0.12557   0.46781   0.69497   0.00000  Uiso   1.00
C99    C     0.04717   0.49798   0.66739   0.00000  Uiso   1.00
C100   C     0.96020   0.45887   0.73153   0.00000  Uiso   1.00
C101   C     0.80351   0.41703   0.80965   0.00000  Uiso   1.00
C102   C     0.28330   0.39763   0.60394   0.00000  Uiso   1.00
C103   C     0.33750   0.36877   0.49980   0.00000  Uiso   1.00
C104   C     0.38331   0.27055   0.48729   0.00000  Uiso   1.00
C105   C     0.47152   0.11975   0.42405   0.00000  Uiso   1.00
C106   C     0.21225   0.37815   0.79891   0.00000  Uiso   1.00
C107   C     0.25449   0.48716   0.80920   0.00000  Uiso   1.00
C108   C     0.28289   0.52049   0.89503   0.00000  Uiso   1.00
C109   C     0.31978   0.62321   0.88921   0.00000  Uiso   1.00
C110   C     0.11741   0.40093   0.78347   0.00000  Uiso   1.00
C111   C     0.03054   0.36175   0.84766   0.00000  Uiso   1.00
C112   C     0.95202   0.39186   0.82019   0.00000  Uiso   1.00
C113   C     0.27514   0.33074   0.69243   0.00000  Uiso   1.00
C114   C     0.32087   0.23254   0.68007   0.00000  Uiso   1.00
C115   C     0.37513   0.20355   0.57594   0.00000  Uiso   1.00
H116   H     0.23363   0.55336   0.56708   0.00000  Uiso   1.00
H117   H     0.30581   0.70847   0.64626   0.00000  Uiso   1.00
H118   H     0.05351   0.54974   0.59890   0.00000  Uiso   1.00
H119   H     0.34380   0.42055   0.43134   0.00000  Uiso   1.00
H120   H     0.38220   0.85096   0.77309   0.00000  Uiso   1.00
H121   H     0.85021   0.51623   0.67320   0.00000  Uiso   1.00
H122   H     0.46234   0.24382   0.31986   0.00000  Uiso   1.00
H123   H     0.20589   0.32608   0.86782   0.00000  Uiso   1.00
H124   H     0.27656   0.46872   0.96350   0.00000  Uiso   1.00
H125   H     0.02425   0.30999   0.91613   0.00000  Uiso   1.00
H126   H     0.31454   0.18081   0.74858   0.00000  Uiso   1.00
H127   H     0.35846   0.65637   0.03058   0.00000  Uiso   1.00
H128   H     0.82647   0.32164   0.93068   0.00000  Uiso   1.00
H129   H     0.43860   0.04923   0.57735   0.00000  Uiso   1.00
O130   O     0.41728   0.85161   0.95937   0.00000  Uiso   1.00
O131   O     0.71934   0.41245   0.82829   0.00000  Uiso   1.00
O132   O     0.52244   0.05506   0.36473   0.00000  Uiso   1.00
N133   N     0.36693   0.78558   0.82055   0.00000  Uiso   1.00
N134   N     0.86955   0.47265   0.72716   0.00000  Uiso   1.00
N135   N     0.44182   0.21795   0.39682   0.00000  Uiso   1.00
N136   N     0.35416   0.68087   0.95910   0.00000  Uiso   1.00
N137   N     0.85678   0.36794   0.86571   0.00000  Uiso   1.00
N138   N     0.42905   0.11324   0.53537   0.00000  Uiso   1.00
C139   C     0.77272   0.00129   0.86402   0.00000  Uiso   1.00
C140   C     0.73734   0.05404   0.77930   0.00000  Uiso   1.00
C141   C     0.70049   0.15673   0.78524   0.00000  Uiso   1.00
C142   C     0.67205   0.19022   0.69944   0.00000  Uiso   1.00
C143   C     0.61592   0.28233   0.58133   0.00000  Uiso   1.00
C144   C     0.87443   0.96781   0.80503   0.00000  Uiso   1.00
C145   C     0.95283   0.99798   0.83261   0.00000  Uiso   1.00
C146   C     0.03980   0.95887   0.76847   0.00000  Uiso   1.00
C147   C     0.19649   0.91703   0.69035   0.00000  Uiso   1.00
C148   C     0.71670   0.89763   0.89606   0.00000  Uiso   1.00
C149   C     0.66250   0.86877   0.00020   0.00000  Uiso   1.00
C150   C     0.61669   0.77055   0.01271   0.00000  Uiso   1.00
C151   C     0.52848   0.61975   0.07595   0.00000  Uiso   1.00
C152   C     0.78775   0.87815   0.70109   0.00000  Uiso   1.00
C153   C     0.74551   0.98716   0.69080   0.00000  Uiso   1.00
C154   C     0.71711   0.02049   0.60497   0.00000  Uiso   1.00
C155   C     0.68022   0.12321   0.61079   0.00000  Uiso   1.00
C156   C     0.88259   0.90093   0.71653   0.00000  Uiso   1.00
C157   C     0.96946   0.86175   0.65234   0.00000  Uiso   1.00
C158   C     0.04798   0.89186   0.67981   0.00000  Uiso   1.00
C159   C     0.72486   0.83074   0.80757   0.00000  Uiso   1.00
C160   C     0.67913   0.73254   0.81993   0.00000  Uiso   1.00
C161   C     0.62487   0.70355   0.92406   0.00000  Uiso   1.00
H162   H     0.76637   0.05336   0.93292   0.00000  Uiso   1.00
H163   H     0.69419   0.20847   0.85374   0.00000  Uiso   1.00
H164   H     0.94649   0.04974   0.90110   0.00000  Uiso   1.00
H165   H     0.65620   0.92055   0.06866   0.00000  Uiso   1.00
H166   H     0.61780   0.35096   0.72691   0.00000  Uiso   1.00
H167   H     0.14979   0.01623   0.82680   0.00000  Uiso   1.00
H168   H     0.53766   0.74382   0.18014   0.00000  Uiso   1.00
H169   H     0.79411   0.82608   0.63218   0.00000  Uiso   1.00
H170   H     0.72344   0.96872   0.53650   0.00000  Uiso   1.00
H171   H     0.97575   0.80999   0.58387   0.00000  Uiso   1.00
H172   H     0.68546   0.68081   0.75142   0.00000  Uiso   1.00
H173   H     0.64154   0.15637   0.46942   0.00000  Uiso   1.00
H174   H     0.17353   0.82164   0.56932   0.00000  Uiso   1.00
H175   H     0.56140   0.54923   0.92265   0.00000  Uiso   1.00
O176   O     0.58272   0.35161   0.54063   0.00000  Uiso   1.00
O177   O     0.28066   0.91245   0.67171   0.00000  Uiso   1.00
O178   O     0.47756   0.55506   0.13527   0.00000  Uiso   1.00
N179   N     0.63307   0.28558   0.67945   0.00000  Uiso   1.00
N180   N     0.13045   0.97265   0.77284   0.00000  Uiso   1.00
N181   N     0.55818   0.71795   0.10318   0.00000  Uiso   1.00
N182   N     0.64584   0.18087   0.54090   0.00000  Uiso   1.00
N183   N     0.14322   0.86794   0.63429   0.00000  Uiso   1.00
N184   N     0.57095   0.61324   0.96463   0.00000  Uiso   1.00
