data_job_01834
_audit_creation_date              2018-12-19
_audit_creation_method            'Materials Studio'
_symmetry_space_group_name_H-M    'P1'
_symmetry_Int_Tables_number       1
_symmetry_cell_setting            triclinic
loop_
_symmetry_equiv_pos_as_xyz
  x,y,z
_cell_length_a                    23.5092
_cell_length_b                    12.7261
_cell_length_c                    8.8673
_cell_angle_alpha                 90.0000
_cell_angle_beta                  90.0000
_cell_angle_gamma                 90.0000
loop_
_atom_site_label
_atom_site_type_symbol
_atom_site_fract_x
_atom_site_fract_y
_atom_site_fract_z
_atom_site_U_iso_or_equiv
_atom_site_adp_type
_atom_site_occupancy
C1     C     0.09679   0.76365   0.88234   0.00000  Uiso   1.00
C2     C     0.14523   0.78351   0.77157   0.00000  Uiso   1.00
C3     C     0.18855   0.85647   0.78980   0.00000  Uiso   1.00
C4     C     0.22884   0.86266   0.67566   0.00000  Uiso   1.00
C5     C     0.30450   0.90335   0.52306   0.00000  Uiso   1.00
C6     C     0.04195   0.77904   0.79319   0.00000  Uiso   1.00
C7     C     0.99843   0.84823   0.82961   0.00000  Uiso   1.00
C8     C     0.95178   0.85064   0.73367   0.00000  Uiso   1.00
C9     C     0.86707   0.88433   0.61469   0.00000  Uiso   1.00
C10    C     0.09941   0.64701   0.92112   0.00000  Uiso   1.00
C11    C     0.10421   0.60520   0.06511   0.00000  Uiso   1.00
C12    C     0.10592   0.49645   0.07689   0.00000  Uiso   1.00
C13    C     0.11044   0.32515   0.15654   0.00000  Uiso   1.00
C14    C     0.09129   0.64488   0.64723   0.00000  Uiso   1.00
C15    C     0.14224   0.71900   0.64387   0.00000  Uiso   1.00
C16    C     0.18247   0.72507   0.52968   0.00000  Uiso   1.00
C17    C     0.22585   0.79803   0.54773   0.00000  Uiso   1.00
C18    C     0.03896   0.71453   0.66549   0.00000  Uiso   1.00
C19    C     0.99235   0.71683   0.56948   0.00000  Uiso   1.00
C20    C     0.94878   0.78602   0.60574   0.00000  Uiso   1.00
C21    C     0.09643   0.58250   0.79342   0.00000  Uiso   1.00
C22    C     0.09813   0.47379   0.80498   0.00000  Uiso   1.00
C23    C     0.10293   0.43182   0.94895   0.00000  Uiso   1.00
H24    H     0.09911   0.81387   0.98176   0.00000  Uiso   1.00
H25    H     0.19085   0.90639   0.88864   0.00000  Uiso   1.00
H26    H     0.00075   0.89814   0.92844   0.00000  Uiso   1.00
H27    H     0.10652   0.65514   0.16390   0.00000  Uiso   1.00
H28    H     0.29123   0.98054   0.72905   0.00000  Uiso   1.00
H29    H     0.89040   0.96312   0.81302   0.00000  Uiso   1.00
H30    H     0.11342   0.45071   0.30954   0.00000  Uiso   1.00
H31    H     0.08896   0.59465   0.54780   0.00000  Uiso   1.00
H32    H     0.18015   0.67514   0.43086   0.00000  Uiso   1.00
H33    H     0.99006   0.66689   0.47067   0.00000  Uiso   1.00
H34    H     0.09582   0.42390   0.70613   0.00000  Uiso   1.00
H35    H     0.28255   0.79285   0.35751   0.00000  Uiso   1.00
H36    H     0.88171   0.77543   0.44147   0.00000  Uiso   1.00
H37    H     0.10473   0.26302   0.93799   0.00000  Uiso   1.00
O38    O     0.34705   0.94363   0.47416   0.00000  Uiso   1.00
O39    O     0.82117   0.92075   0.58434   0.00000  Uiso   1.00
O40    O     0.11377   0.24849   0.23576   0.00000  Uiso   1.00
N41    N     0.27668   0.92531   0.65767   0.00000  Uiso   1.00
N42    N     0.90193   0.90903   0.73616   0.00000  Uiso   1.00
N43    N     0.11042   0.42997   0.20037   0.00000  Uiso   1.00
N44    N     0.27201   0.82431   0.45775   0.00000  Uiso   1.00
N45    N     0.89726   0.80804   0.53623   0.00000  Uiso   1.00
N46    N     0.10575   0.32898   0.00044   0.00000  Uiso   1.00
C47    C     0.90321   0.23635   0.88234   0.00000  Uiso   1.00
C48    C     0.85477   0.21649   0.77157   0.00000  Uiso   1.00
C49    C     0.81145   0.14353   0.78980   0.00000  Uiso   1.00
C50    C     0.77116   0.13734   0.67566   0.00000  Uiso   1.00
C51    C     0.69550   0.09665   0.52306   0.00000  Uiso   1.00
C52    C     0.95805   0.22096   0.79319   0.00000  Uiso   1.00
C53    C     0.00157   0.15177   0.82961   0.00000  Uiso   1.00
C54    C     0.04822   0.14936   0.73367   0.00000  Uiso   1.00
C55    C     0.13293   0.11567   0.61469   0.00000  Uiso   1.00
C56    C     0.90059   0.35299   0.92112   0.00000  Uiso   1.00
C57    C     0.89579   0.39480   0.06511   0.00000  Uiso   1.00
C58    C     0.89408   0.50355   0.07689   0.00000  Uiso   1.00
C59    C     0.88956   0.67485   0.15654   0.00000  Uiso   1.00
C60    C     0.90871   0.35512   0.64723   0.00000  Uiso   1.00
C61    C     0.85776   0.28100   0.64387   0.00000  Uiso   1.00
C62    C     0.81753   0.27493   0.52968   0.00000  Uiso   1.00
C63    C     0.77415   0.20197   0.54773   0.00000  Uiso   1.00
C64    C     0.96104   0.28547   0.66549   0.00000  Uiso   1.00
C65    C     0.00765   0.28317   0.56948   0.00000  Uiso   1.00
C66    C     0.05122   0.21398   0.60574   0.00000  Uiso   1.00
C67    C     0.90357   0.41750   0.79342   0.00000  Uiso   1.00
C68    C     0.90187   0.52621   0.80498   0.00000  Uiso   1.00
C69    C     0.89707   0.56818   0.94895   0.00000  Uiso   1.00
H70    H     0.90089   0.18613   0.98176   0.00000  Uiso   1.00
H71    H     0.80915   0.09361   0.88864   0.00000  Uiso   1.00
H72    H     0.99925   0.10186   0.92844   0.00000  Uiso   1.00
H73    H     0.89348   0.34486   0.16390   0.00000  Uiso   1.00
H74    H     0.70877   0.01946   0.72905   0.00000  Uiso   1.00
H75    H     0.10960   0.03688   0.81302   0.00000  Uiso   1.00
H76    H     0.88658   0.54929   0.30954   0.00000  Uiso   1.00
H77    H     0.91104   0.40535   0.54780   0.00000  Uiso   1.00
H78    H     0.81985   0.32486   0.43086   0.00000  Uiso   1.00
H79    H     0.00994   0.33311   0.47067   0.00000  Uiso   1.00
H80    H     0.90418   0.57610   0.70613   0.00000  Uiso   1.00
H81    H     0.71745   0.20715   0.35751   0.00000  Uiso   1.00
H82    H     0.11829   0.22457   0.44147   0.00000  Uiso   1.00
H83    H     0.89527   0.73698   0.93799   0.00000  Uiso   1.00
O84    O     0.65295   0.05637   0.47416   0.00000  Uiso   1.00
O85    O     0.17883   0.07925   0.58434   0.00000  Uiso   1.00
O86    O     0.88623   0.75151   0.23576   0.00000  Uiso   1.00
N87    N     0.72332   0.07469   0.65767   0.00000  Uiso   1.00
N88    N     0.09807   0.09097   0.73616   0.00000  Uiso   1.00
N89    N     0.88958   0.57003   0.20037   0.00000  Uiso   1.00
N90    N     0.72799   0.17569   0.45775   0.00000  Uiso   1.00
N91    N     0.10274   0.19196   0.53623   0.00000  Uiso   1.00
N92    N     0.89425   0.67102   0.00044   0.00000  Uiso   1.00
C93    C     0.59679   0.73635   0.88234   0.00000  Uiso   1.00
C94    C     0.64523   0.71649   0.77157   0.00000  Uiso   1.00
C95    C     0.68855   0.64353   0.78980   0.00000  Uiso   1.00
C96    C     0.72884   0.63734   0.67566   0.00000  Uiso   1.00
C97    C     0.80450   0.59665   0.52306   0.00000  Uiso   1.00
C98    C     0.54195   0.72096   0.79319   0.00000  Uiso   1.00
C99    C     0.49843   0.65177   0.82961   0.00000  Uiso   1.00
C100   C     0.45178   0.64936   0.73367   0.00000  Uiso   1.00
C101   C     0.36707   0.61567   0.61469   0.00000  Uiso   1.00
C102   C     0.59941   0.85299   0.92112   0.00000  Uiso   1.00
C103   C     0.60421   0.89480   0.06511   0.00000  Uiso   1.00
C104   C     0.60592   0.00355   0.07689   0.00000  Uiso   1.00
C105   C     0.61044   0.17485   0.15654   0.00000  Uiso   1.00
C106   C     0.59129   0.85512   0.64723   0.00000  Uiso   1.00
C107   C     0.64224   0.78100   0.64387   0.00000  Uiso   1.00
C108   C     0.68247   0.77493   0.52968   0.00000  Uiso   1.00
C109   C     0.72585   0.70197   0.54773   0.00000  Uiso   1.00
C110   C     0.53896   0.78547   0.66549   0.00000  Uiso   1.00
C111   C     0.49235   0.78317   0.56948   0.00000  Uiso   1.00
C112   C     0.44878   0.71398   0.60574   0.00000  Uiso   1.00
C113   C     0.59643   0.91750   0.79342   0.00000  Uiso   1.00
C114   C     0.59813   0.02621   0.80498   0.00000  Uiso   1.00
C115   C     0.60293   0.06818   0.94895   0.00000  Uiso   1.00
H116   H     0.59911   0.68613   0.98176   0.00000  Uiso   1.00
H117   H     0.69085   0.59361   0.88864   0.00000  Uiso   1.00
H118   H     0.50075   0.60186   0.92844   0.00000  Uiso   1.00
H119   H     0.60652   0.84486   0.16390   0.00000  Uiso   1.00
H120   H     0.79123   0.51946   0.72905   0.00000  Uiso   1.00
H121   H     0.39040   0.53688   0.81302   0.00000  Uiso   1.00
H122   H     0.61342   0.04929   0.30954   0.00000  Uiso   1.00
H123   H     0.58896   0.90535   0.54780   0.00000  Uiso   1.00
H124   H     0.68015   0.82486   0.43086   0.00000  Uiso   1.00
H125   H     0.49006   0.83311   0.47067   0.00000  Uiso   1.00
H126   H     0.59582   0.07610   0.70613   0.00000  Uiso   1.00
H127   H     0.78255   0.70715   0.35751   0.00000  Uiso   1.00
H128   H     0.38171   0.72457   0.44147   0.00000  Uiso   1.00
H129   H     0.60473   0.23698   0.93799   0.00000  Uiso   1.00
O130   O     0.84705   0.55637   0.47416   0.00000  Uiso   1.00
O131   O     0.32117   0.57925   0.58434   0.00000  Uiso   1.00
O132   O     0.61377   0.25151   0.23576   0.00000  Uiso   1.00
N133   N     0.77668   0.57469   0.65767   0.00000  Uiso   1.00
N134   N     0.40193   0.59097   0.73616   0.00000  Uiso   1.00
N135   N     0.61042   0.07003   0.20037   0.00000  Uiso   1.00
N136   N     0.77201   0.67569   0.45775   0.00000  Uiso   1.00
N137   N     0.39726   0.69196   0.53623   0.00000  Uiso   1.00
N138   N     0.60575   0.17102   0.00044   0.00000  Uiso   1.00
C139   C     0.40321   0.26365   0.88234   0.00000  Uiso   1.00
C140   C     0.35477   0.28351   0.77157   0.00000  Uiso   1.00
C141   C     0.31145   0.35647   0.78980   0.00000  Uiso   1.00
C142   C     0.27116   0.36266   0.67566   0.00000  Uiso   1.00
C143   C     0.19550   0.40335   0.52306   0.00000  Uiso   1.00
C144   C     0.45805   0.27904   0.79319   0.00000  Uiso   1.00
C145   C     0.50157   0.34823   0.82961   0.00000  Uiso   1.00
C146   C     0.54822   0.35064   0.73367   0.00000  Uiso   1.00
C147   C     0.63293   0.38433   0.61469   0.00000  Uiso   1.00
C148   C     0.40059   0.14701   0.92112   0.00000  Uiso   1.00
C149   C     0.39579   0.10520   0.06511   0.00000  Uiso   1.00
C150   C     0.39408   0.99645   0.07689   0.00000  Uiso   1.00
C151   C     0.38956   0.82515   0.15654   0.00000  Uiso   1.00
C152   C     0.40871   0.14488   0.64723   0.00000  Uiso   1.00
C153   C     0.35776   0.21900   0.64387   0.00000  Uiso   1.00
C154   C     0.31753   0.22507   0.52968   0.00000  Uiso   1.00
C155   C     0.27415   0.29803   0.54773   0.00000  Uiso   1.00
C156   C     0.46104   0.21453   0.66549   0.00000  Uiso   1.00
C157   C     0.50765   0.21683   0.56948   0.00000  Uiso   1.00
C158   C     0.55122   0.28602   0.60574   0.00000  Uiso   1.00
C159   C     0.40357   0.08250   0.79342   0.00000  Uiso   1.00
C160   C     0.40187   0.97379   0.80498   0.00000  Uiso   1.00
C161   C     0.39707   0.93182   0.94895   0.00000  Uiso   1.00
H162   H     0.40089   0.31387   0.98176   0.00000  Uiso   1.00
H163   H     0.30915   0.40639   0.88864   0.00000  Uiso   1.00
H164   H     0.49925   0.39814   0.92844   0.00000  Uiso   1.00
H165   H     0.39348   0.15514   0.16390   0.00000  Uiso   1.00
H166   H     0.20877   0.48054   0.72905   0.00000  Uiso   1.00
H167   H     0.60960   0.46312   0.81302   0.00000  Uiso   1.00
H168   H     0.38658   0.95071   0.30954   0.00000  Uiso   1.00
H169   H     0.41104   0.09465   0.54780   0.00000  Uiso   1.00
H170   H     0.31985   0.17514   0.43086   0.00000  Uiso   1.00
H171   H     0.50994   0.16689   0.47067   0.00000  Uiso   1.00
H172   H     0.40418   0.92390   0.70613   0.00000  Uiso   1.00
H173   H     0.21745   0.29285   0.35751   0.00000  Uiso   1.00
H174   H     0.61829   0.27543   0.44147   0.00000  Uiso   1.00
H175   H     0.39527   0.76302   0.93799   0.00000  Uiso   1.00
O176   O     0.15295   0.44363   0.47416   0.00000  Uiso   1.00
O177   O     0.67883   0.42075   0.58434   0.00000  Uiso   1.00
O178   O     0.38623   0.74849   0.23576   0.00000  Uiso   1.00
N179   N     0.22332   0.42531   0.65767   0.00000  Uiso   1.00
N180   N     0.59807   0.40903   0.73616   0.00000  Uiso   1.00
N181   N     0.38958   0.92997   0.20037   0.00000  Uiso   1.00
N182   N     0.22799   0.32431   0.45775   0.00000  Uiso   1.00
N183   N     0.60274   0.30804   0.53623   0.00000  Uiso   1.00
N184   N     0.39425   0.82898   0.00044   0.00000  Uiso   1.00
