data_job_04629
_audit_creation_date              2018-12-19
_audit_creation_method            'Materials Studio'
_symmetry_space_group_name_H-M    'P1'
_symmetry_Int_Tables_number       1
_symmetry_cell_setting            triclinic
loop_
_symmetry_equiv_pos_as_xyz
  x,y,z
_cell_length_a                    35.7724
_cell_length_b                    11.0130
_cell_length_c                    12.5241
_cell_angle_alpha                 90.0000
_cell_angle_beta                  90.0000
_cell_angle_gamma                 90.0000
loop_
_atom_site_label
_atom_site_type_symbol
_atom_site_fract_x
_atom_site_fract_y
_atom_site_fract_z
_atom_site_U_iso_or_equiv
_atom_site_adp_type
_atom_site_occupancy
C1     C     0.57833   0.78932   0.81725   0.00000  Uiso   1.00
C2     C     0.57835   0.89141   0.73500   0.00000  Uiso   1.00
C3     C     0.55812   0.89275   0.64045   0.00000  Uiso   1.00
C4     C     0.56193   0.99453   0.57595   0.00000  Uiso   1.00
C5     C     0.55844   0.13829   0.44378   0.00000  Uiso   1.00
C6     C     0.61905   0.75134   0.83066   0.00000  Uiso   1.00
C7     C     0.63305   0.63491   0.81656   0.00000  Uiso   1.00
C8     C     0.67113   0.61878   0.83260   0.00000  Uiso   1.00
C9     C     0.73084   0.54506   0.84902   0.00000  Uiso   1.00
C10    C     0.56688   0.84743   0.92282   0.00000  Uiso   1.00
C11    C     0.53702   0.81178   0.98622   0.00000  Uiso   1.00
C12    C     0.53118   0.87654   0.07987   0.00000  Uiso   1.00
C13    C     0.50988   0.95202   0.23938   0.00000  Uiso   1.00
C14    C     0.62107   0.96770   0.87083   0.00000  Uiso   1.00
C15    C     0.60157   0.98830   0.76410   0.00000  Uiso   1.00
C16    C     0.60541   0.09011   0.69973   0.00000  Uiso   1.00
C17    C     0.58519   0.09160   0.60511   0.00000  Uiso   1.00
C18    C     0.64227   0.84822   0.85976   0.00000  Uiso   1.00
C19    C     0.68034   0.83226   0.87584   0.00000  Uiso   1.00
C20    C     0.69439   0.71584   0.86176   0.00000  Uiso   1.00
C21    C     0.59010   0.94433   0.95192   0.00000  Uiso   1.00
C22    C     0.58431   0.00914   0.04550   0.00000  Uiso   1.00
C23    C     0.55444   0.97360   0.10903   0.00000  Uiso   1.00
H24    H     0.56026   0.71388   0.79460   0.00000  Uiso   1.00
H25    H     0.54016   0.81774   0.61795   0.00000  Uiso   1.00
H26    H     0.61508   0.55994   0.79404   0.00000  Uiso   1.00
H27    H     0.51906   0.73680   0.96367   0.00000  Uiso   1.00
H28    H     0.52812   0.97560   0.43493   0.00000  Uiso   1.00
H29    H     0.68609   0.43201   0.80626   0.00000  Uiso   1.00
H30    H     0.48362   0.80493   0.16396   0.00000  Uiso   1.00
H31    H     0.63915   0.04313   0.89349   0.00000  Uiso   1.00
H32    H     0.62338   0.16507   0.72227   0.00000  Uiso   1.00
H33    H     0.69830   0.90726   0.89836   0.00000  Uiso   1.00
H34    H     0.60228   0.08412   0.06799   0.00000  Uiso   1.00
H35    H     0.59567   0.25750   0.51959   0.00000  Uiso   1.00
H36    H     0.75364   0.71391   0.89093   0.00000  Uiso   1.00
H37    H     0.55117   0.08684   0.24863   0.00000  Uiso   1.00
O38    O     0.55011   0.19081   0.36282   0.00000  Uiso   1.00
O39    O     0.75735   0.47763   0.85002   0.00000  Uiso   1.00
O40    O     0.49172   0.96690   0.31931   0.00000  Uiso   1.00
N41    N     0.54618   0.02523   0.47836   0.00000  Uiso   1.00
N42    N     0.69387   0.51700   0.82552   0.00000  Uiso   1.00
N43    N     0.50458   0.86563   0.15995   0.00000  Uiso   1.00
N44    N     0.58252   0.17691   0.52392   0.00000  Uiso   1.00
N45    N     0.73022   0.66869   0.87108   0.00000  Uiso   1.00
N46    N     0.54093   0.01732   0.20551   0.00000  Uiso   1.00
C47    C     0.41034   0.16681   0.15556   0.00000  Uiso   1.00
C48    C     0.39488   0.07983   0.23938   0.00000  Uiso   1.00
C49    C     0.41099   0.05511   0.33780   0.00000  Uiso   1.00
C50    C     0.39252   0.97283   0.40313   0.00000  Uiso   1.00
C51    C     0.37358   0.84625   0.53818   0.00000  Uiso   1.00
C52    C     0.37927   0.25816   0.13325   0.00000  Uiso   1.00
C53    C     0.38226   0.38337   0.14242   0.00000  Uiso   1.00
C54    C     0.35064   0.45120   0.11840   0.00000  Uiso   1.00
C55    C     0.30748   0.60148   0.08860   0.00000  Uiso   1.00
C56    C     0.41474   0.09244   0.05363   0.00000  Uiso   1.00
C57    C     0.44756   0.07834   0.99584   0.00000  Uiso   1.00
C58    C     0.44580   0.00667   0.90477   0.00000  Uiso   1.00
C59    C     0.45771   0.89966   0.75135   0.00000  Uiso   1.00
C60    C     0.34886   0.06464   0.09657   0.00000  Uiso   1.00
C61    C     0.36149   0.02434   0.20733   0.00000  Uiso   1.00
C62    C     0.34298   0.94207   0.27253   0.00000  Uiso   1.00
C63    C     0.35907   0.91722   0.37103   0.00000  Uiso   1.00
C64    C     0.34588   0.20267   0.10121   0.00000  Uiso   1.00
C65    C     0.31425   0.27032   0.07716   0.00000  Uiso   1.00
C66    C     0.31719   0.39560   0.08630   0.00000  Uiso   1.00
C67    C     0.38135   0.03694   0.02159   0.00000  Uiso   1.00
C68    C     0.37954   0.96529   0.93058   0.00000  Uiso   1.00
C69    C     0.41235   0.95108   0.87267   0.00000  Uiso   1.00
H70    H     0.43633   0.21003   0.18050   0.00000  Uiso   1.00
H71    H     0.43683   0.09809   0.36257   0.00000  Uiso   1.00
H72    H     0.40810   0.42629   0.16721   0.00000  Uiso   1.00
H73    H     0.47339   0.12130   0.02066   0.00000  Uiso   1.00
H74    H     0.42265   0.94954   0.55031   0.00000  Uiso   1.00
H75    H     0.36208   0.64157   0.13835   0.00000  Uiso   1.00
H76    H     0.49975   0.99846   0.82931   0.00000  Uiso   1.00
H77    H     0.32287   0.02144   0.07162   0.00000  Uiso   1.00
H78    H     0.31714   0.89913   0.24772   0.00000  Uiso   1.00
H79    H     0.28842   0.22735   0.05236   0.00000  Uiso   1.00
H80    H     0.35370   0.92236   0.90581   0.00000  Uiso   1.00
H81    H     0.32551   0.78807   0.45709   0.00000  Uiso   1.00
H82    H     0.26494   0.48011   0.04513   0.00000  Uiso   1.00
H83    H     0.40261   0.83699   0.73610   0.00000  Uiso   1.00
O84    O     0.37236   0.79178   0.62152   0.00000  Uiso   1.00
O85    O     0.29289   0.69971   0.08103   0.00000  Uiso   1.00
O86    O     0.47351   0.85595   0.67559   0.00000  Uiso   1.00
N87    N     0.40058   0.92830   0.50420   0.00000  Uiso   1.00
N88    N     0.34395   0.57531   0.11906   0.00000  Uiso   1.00
N89    N     0.47265   0.97408   0.83012   0.00000  Uiso   1.00
N90    N     0.34831   0.84141   0.45404   0.00000  Uiso   1.00
N91    N     0.29168   0.48843   0.06890   0.00000  Uiso   1.00
N92    N     0.42038   0.88719   0.77996   0.00000  Uiso   1.00
C93    C     0.92167   0.21068   0.31725   0.00000  Uiso   1.00
C94    C     0.92165   0.10859   0.23500   0.00000  Uiso   1.00
C95    C     0.94188   0.10725   0.14045   0.00000  Uiso   1.00
C96    C     0.93807   0.00547   0.07595   0.00000  Uiso   1.00
C97    C     0.94156   0.86171   0.94378   0.00000  Uiso   1.00
C98    C     0.88095   0.24866   0.33066   0.00000  Uiso   1.00
C99    C     0.86695   0.36509   0.31656   0.00000  Uiso   1.00
C100   C     0.82887   0.38122   0.33260   0.00000  Uiso   1.00
C101   C     0.76916   0.45494   0.34902   0.00000  Uiso   1.00
C102   C     0.93312   0.15257   0.42282   0.00000  Uiso   1.00
C103   C     0.96298   0.18822   0.48622   0.00000  Uiso   1.00
C104   C     0.96882   0.12346   0.57987   0.00000  Uiso   1.00
C105   C     0.99012   0.04798   0.73938   0.00000  Uiso   1.00
C106   C     0.87893   0.03230   0.37083   0.00000  Uiso   1.00
C107   C     0.89843   0.01170   0.26410   0.00000  Uiso   1.00
C108   C     0.89459   0.90989   0.19973   0.00000  Uiso   1.00
C109   C     0.91481   0.90840   0.10511   0.00000  Uiso   1.00
C110   C     0.85773   0.15178   0.35976   0.00000  Uiso   1.00
C111   C     0.81966   0.16774   0.37584   0.00000  Uiso   1.00
C112   C     0.80561   0.28416   0.36176   0.00000  Uiso   1.00
C113   C     0.90990   0.05567   0.45192   0.00000  Uiso   1.00
C114   C     0.91569   0.99086   0.54550   0.00000  Uiso   1.00
C115   C     0.94556   0.02640   0.60903   0.00000  Uiso   1.00
H116   H     0.93974   0.28612   0.29460   0.00000  Uiso   1.00
H117   H     0.95984   0.18226   0.11795   0.00000  Uiso   1.00
H118   H     0.88492   0.44006   0.29404   0.00000  Uiso   1.00
H119   H     0.98094   0.26320   0.46367   0.00000  Uiso   1.00
H120   H     0.97188   0.02440   0.93493   0.00000  Uiso   1.00
H121   H     0.81391   0.56799   0.30626   0.00000  Uiso   1.00
H122   H     0.01638   0.19507   0.66396   0.00000  Uiso   1.00
H123   H     0.86085   0.95687   0.39349   0.00000  Uiso   1.00
H124   H     0.87662   0.83493   0.22227   0.00000  Uiso   1.00
H125   H     0.80170   0.09274   0.39836   0.00000  Uiso   1.00
H126   H     0.89772   0.91588   0.56799   0.00000  Uiso   1.00
H127   H     0.90433   0.74250   0.01959   0.00000  Uiso   1.00
H128   H     0.74636   0.28609   0.39093   0.00000  Uiso   1.00
H129   H     0.94883   0.91316   0.74863   0.00000  Uiso   1.00
O130   O     0.94989   0.80919   0.86282   0.00000  Uiso   1.00
O131   O     0.74265   0.52237   0.35002   0.00000  Uiso   1.00
O132   O     0.00828   0.03310   0.81931   0.00000  Uiso   1.00
N133   N     0.95382   0.97477   0.97836   0.00000  Uiso   1.00
N134   N     0.80613   0.48300   0.32552   0.00000  Uiso   1.00
N135   N     0.99542   0.13437   0.65995   0.00000  Uiso   1.00
N136   N     0.91748   0.82309   0.02392   0.00000  Uiso   1.00
N137   N     0.76978   0.33131   0.37108   0.00000  Uiso   1.00
N138   N     0.95907   0.98268   0.70551   0.00000  Uiso   1.00
C139   C     0.08966   0.83319   0.65556   0.00000  Uiso   1.00
C140   C     0.10512   0.92017   0.73938   0.00000  Uiso   1.00
C141   C     0.08901   0.94489   0.83780   0.00000  Uiso   1.00
C142   C     0.10748   0.02717   0.90313   0.00000  Uiso   1.00
C143   C     0.12642   0.15375   0.03818   0.00000  Uiso   1.00
C144   C     0.12073   0.74184   0.63325   0.00000  Uiso   1.00
C145   C     0.11774   0.61663   0.64242   0.00000  Uiso   1.00
C146   C     0.14936   0.54880   0.61840   0.00000  Uiso   1.00
C147   C     0.19252   0.39852   0.58860   0.00000  Uiso   1.00
C148   C     0.08526   0.90756   0.55363   0.00000  Uiso   1.00
C149   C     0.05244   0.92166   0.49584   0.00000  Uiso   1.00
C150   C     0.05420   0.99333   0.40477   0.00000  Uiso   1.00
C151   C     0.04229   0.10034   0.25135   0.00000  Uiso   1.00
C152   C     0.15114   0.93536   0.59657   0.00000  Uiso   1.00
C153   C     0.13851   0.97566   0.70733   0.00000  Uiso   1.00
C154   C     0.15702   0.05793   0.77253   0.00000  Uiso   1.00
C155   C     0.14093   0.08278   0.87103   0.00000  Uiso   1.00
C156   C     0.15412   0.79733   0.60121   0.00000  Uiso   1.00
C157   C     0.18575   0.72968   0.57716   0.00000  Uiso   1.00
C158   C     0.18281   0.60440   0.58630   0.00000  Uiso   1.00
C159   C     0.11865   0.96306   0.52159   0.00000  Uiso   1.00
C160   C     0.12046   0.03471   0.43058   0.00000  Uiso   1.00
C161   C     0.08765   0.04892   0.37267   0.00000  Uiso   1.00
H162   H     0.06367   0.78997   0.68050   0.00000  Uiso   1.00
H163   H     0.06317   0.90191   0.86257   0.00000  Uiso   1.00
H164   H     0.09190   0.57371   0.66721   0.00000  Uiso   1.00
H165   H     0.02661   0.87870   0.52066   0.00000  Uiso   1.00
H166   H     0.07735   0.05046   0.05031   0.00000  Uiso   1.00
H167   H     0.13792   0.35843   0.63835   0.00000  Uiso   1.00
H168   H     0.00025   0.00154   0.32931   0.00000  Uiso   1.00
H169   H     0.17713   0.97856   0.57162   0.00000  Uiso   1.00
H170   H     0.18286   0.10087   0.74772   0.00000  Uiso   1.00
H171   H     0.21158   0.77265   0.55236   0.00000  Uiso   1.00
H172   H     0.14630   0.07764   0.40581   0.00000  Uiso   1.00
H173   H     0.17449   0.21193   0.95709   0.00000  Uiso   1.00
H174   H     0.23506   0.51989   0.54513   0.00000  Uiso   1.00
H175   H     0.09739   0.16301   0.23610   0.00000  Uiso   1.00
O176   O     0.12764   0.20822   0.12152   0.00000  Uiso   1.00
O177   O     0.20711   0.30029   0.58103   0.00000  Uiso   1.00
O178   O     0.02649   0.14405   0.17559   0.00000  Uiso   1.00
N179   N     0.09942   0.07170   0.00420   0.00000  Uiso   1.00
N180   N     0.15605   0.42469   0.61906   0.00000  Uiso   1.00
N181   N     0.02735   0.02592   0.33012   0.00000  Uiso   1.00
N182   N     0.15169   0.15859   0.95404   0.00000  Uiso   1.00
N183   N     0.20832   0.51157   0.56890   0.00000  Uiso   1.00
N184   N     0.07962   0.11281   0.27996   0.00000  Uiso   1.00
C185   C     0.42167   0.28932   0.68275   0.00000  Uiso   1.00
C186   C     0.42165   0.39141   0.76500   0.00000  Uiso   1.00
C187   C     0.44188   0.39275   0.85955   0.00000  Uiso   1.00
C188   C     0.43807   0.49453   0.92405   0.00000  Uiso   1.00
C189   C     0.44156   0.63829   0.05622   0.00000  Uiso   1.00
C190   C     0.38095   0.25134   0.66934   0.00000  Uiso   1.00
C191   C     0.36695   0.13491   0.68344   0.00000  Uiso   1.00
C192   C     0.32887   0.11878   0.66740   0.00000  Uiso   1.00
C193   C     0.26916   0.04506   0.65098   0.00000  Uiso   1.00
C194   C     0.43312   0.34743   0.57718   0.00000  Uiso   1.00
C195   C     0.46298   0.31178   0.51378   0.00000  Uiso   1.00
C196   C     0.46882   0.37654   0.42013   0.00000  Uiso   1.00
C197   C     0.49012   0.45202   0.26062   0.00000  Uiso   1.00
C198   C     0.37893   0.46770   0.62917   0.00000  Uiso   1.00
C199   C     0.39843   0.48830   0.73590   0.00000  Uiso   1.00
C200   C     0.39459   0.59011   0.80027   0.00000  Uiso   1.00
C201   C     0.41481   0.59160   0.89489   0.00000  Uiso   1.00
C202   C     0.35773   0.34822   0.64024   0.00000  Uiso   1.00
C203   C     0.31966   0.33226   0.62416   0.00000  Uiso   1.00
C204   C     0.30561   0.21584   0.63824   0.00000  Uiso   1.00
C205   C     0.40990   0.44433   0.54808   0.00000  Uiso   1.00
C206   C     0.41569   0.50914   0.45450   0.00000  Uiso   1.00
C207   C     0.44556   0.47360   0.39097   0.00000  Uiso   1.00
H208   H     0.43974   0.21388   0.70540   0.00000  Uiso   1.00
H209   H     0.45984   0.31774   0.88205   0.00000  Uiso   1.00
H210   H     0.38492   0.05994   0.70596   0.00000  Uiso   1.00
H211   H     0.48094   0.23680   0.53633   0.00000  Uiso   1.00
H212   H     0.47188   0.47560   0.06507   0.00000  Uiso   1.00
H213   H     0.31391   0.93201   0.69374   0.00000  Uiso   1.00
H214   H     0.51638   0.30493   0.33604   0.00000  Uiso   1.00
H215   H     0.36085   0.54313   0.60651   0.00000  Uiso   1.00
H216   H     0.37662   0.66507   0.77773   0.00000  Uiso   1.00
H217   H     0.30170   0.40726   0.60164   0.00000  Uiso   1.00
H218   H     0.39772   0.58412   0.43201   0.00000  Uiso   1.00
H219   H     0.40433   0.75750   0.98041   0.00000  Uiso   1.00
H220   H     0.24636   0.21391   0.60907   0.00000  Uiso   1.00
H221   H     0.44883   0.58684   0.25137   0.00000  Uiso   1.00
O222   O     0.44989   0.69081   0.13718   0.00000  Uiso   1.00
O223   O     0.24265   0.97763   0.64998   0.00000  Uiso   1.00
O224   O     0.50828   0.46690   0.18069   0.00000  Uiso   1.00
N225   N     0.45382   0.52523   0.02164   0.00000  Uiso   1.00
N226   N     0.30613   0.01700   0.67448   0.00000  Uiso   1.00
N227   N     0.49542   0.36563   0.34005   0.00000  Uiso   1.00
N228   N     0.41748   0.67691   0.97608   0.00000  Uiso   1.00
N229   N     0.26978   0.16869   0.62892   0.00000  Uiso   1.00
N230   N     0.45907   0.51732   0.29449   0.00000  Uiso   1.00
C231   C     0.58966   0.66681   0.34444   0.00000  Uiso   1.00
C232   C     0.60512   0.57983   0.26062   0.00000  Uiso   1.00
C233   C     0.58901   0.55511   0.16220   0.00000  Uiso   1.00
C234   C     0.60748   0.47283   0.09687   0.00000  Uiso   1.00
C235   C     0.62642   0.34625   0.96182   0.00000  Uiso   1.00
C236   C     0.62073   0.75816   0.36675   0.00000  Uiso   1.00
C237   C     0.61774   0.88337   0.35758   0.00000  Uiso   1.00
C238   C     0.64936   0.95120   0.38160   0.00000  Uiso   1.00
C239   C     0.69252   0.10148   0.41140   0.00000  Uiso   1.00
C240   C     0.58526   0.59244   0.44637   0.00000  Uiso   1.00
C241   C     0.55244   0.57834   0.50416   0.00000  Uiso   1.00
C242   C     0.55420   0.50667   0.59523   0.00000  Uiso   1.00
C243   C     0.54229   0.39966   0.74865   0.00000  Uiso   1.00
C244   C     0.65114   0.56464   0.40343   0.00000  Uiso   1.00
C245   C     0.63851   0.52434   0.29267   0.00000  Uiso   1.00
C246   C     0.65702   0.44207   0.22747   0.00000  Uiso   1.00
C247   C     0.64093   0.41722   0.12897   0.00000  Uiso   1.00
C248   C     0.65412   0.70267   0.39879   0.00000  Uiso   1.00
C249   C     0.68575   0.77032   0.42284   0.00000  Uiso   1.00
C250   C     0.68281   0.89560   0.41370   0.00000  Uiso   1.00
C251   C     0.61865   0.53694   0.47841   0.00000  Uiso   1.00
C252   C     0.62046   0.46529   0.56942   0.00000  Uiso   1.00
C253   C     0.58765   0.45108   0.62733   0.00000  Uiso   1.00
H254   H     0.56367   0.71003   0.31950   0.00000  Uiso   1.00
H255   H     0.56317   0.59809   0.13743   0.00000  Uiso   1.00
H256   H     0.59190   0.92629   0.33279   0.00000  Uiso   1.00
H257   H     0.52661   0.62130   0.47934   0.00000  Uiso   1.00
H258   H     0.57735   0.44954   0.94969   0.00000  Uiso   1.00
H259   H     0.63792   0.14157   0.36165   0.00000  Uiso   1.00
H260   H     0.50025   0.49846   0.67069   0.00000  Uiso   1.00
H261   H     0.67713   0.52144   0.42838   0.00000  Uiso   1.00
H262   H     0.68286   0.39913   0.25228   0.00000  Uiso   1.00
H263   H     0.71158   0.72735   0.44764   0.00000  Uiso   1.00
H264   H     0.64630   0.42236   0.59419   0.00000  Uiso   1.00
H265   H     0.67449   0.28807   0.04291   0.00000  Uiso   1.00
H266   H     0.73506   0.98011   0.45487   0.00000  Uiso   1.00
H267   H     0.59739   0.33699   0.76390   0.00000  Uiso   1.00
O268   O     0.62764   0.29178   0.87848   0.00000  Uiso   1.00
O269   O     0.70711   0.19971   0.41897   0.00000  Uiso   1.00
O270   O     0.52649   0.35595   0.82441   0.00000  Uiso   1.00
N271   N     0.59942   0.42830   0.99580   0.00000  Uiso   1.00
N272   N     0.65605   0.07531   0.38094   0.00000  Uiso   1.00
N273   N     0.52735   0.47408   0.66988   0.00000  Uiso   1.00
N274   N     0.65169   0.34141   0.04596   0.00000  Uiso   1.00
N275   N     0.70832   0.98843   0.43110   0.00000  Uiso   1.00
N276   N     0.57962   0.38719   0.72004   0.00000  Uiso   1.00
C277   C     0.07833   0.71068   0.18275   0.00000  Uiso   1.00
C278   C     0.07835   0.60859   0.26500   0.00000  Uiso   1.00
C279   C     0.05812   0.60725   0.35955   0.00000  Uiso   1.00
C280   C     0.06193   0.50547   0.42405   0.00000  Uiso   1.00
C281   C     0.05844   0.36171   0.55622   0.00000  Uiso   1.00
C282   C     0.11905   0.74866   0.16934   0.00000  Uiso   1.00
C283   C     0.13305   0.86509   0.18344   0.00000  Uiso   1.00
C284   C     0.17113   0.88122   0.16740   0.00000  Uiso   1.00
C285   C     0.23084   0.95494   0.15098   0.00000  Uiso   1.00
C286   C     0.06688   0.65257   0.07718   0.00000  Uiso   1.00
C287   C     0.03702   0.68822   0.01378   0.00000  Uiso   1.00
C288   C     0.03118   0.62346   0.92013   0.00000  Uiso   1.00
C289   C     0.00988   0.54798   0.76062   0.00000  Uiso   1.00
C290   C     0.12107   0.53230   0.12917   0.00000  Uiso   1.00
C291   C     0.10157   0.51170   0.23590   0.00000  Uiso   1.00
C292   C     0.10541   0.40989   0.30027   0.00000  Uiso   1.00
C293   C     0.08519   0.40840   0.39489   0.00000  Uiso   1.00
C294   C     0.14227   0.65178   0.14024   0.00000  Uiso   1.00
C295   C     0.18034   0.66774   0.12416   0.00000  Uiso   1.00
C296   C     0.19439   0.78416   0.13824   0.00000  Uiso   1.00
C297   C     0.09010   0.55567   0.04808   0.00000  Uiso   1.00
C298   C     0.08431   0.49086   0.95450   0.00000  Uiso   1.00
C299   C     0.05444   0.52640   0.89097   0.00000  Uiso   1.00
H300   H     0.06026   0.78612   0.20540   0.00000  Uiso   1.00
H301   H     0.04016   0.68226   0.38205   0.00000  Uiso   1.00
H302   H     0.11508   0.94006   0.20596   0.00000  Uiso   1.00
H303   H     0.01906   0.76320   0.03633   0.00000  Uiso   1.00
H304   H     0.02812   0.52440   0.56507   0.00000  Uiso   1.00
H305   H     0.18609   0.06799   0.19374   0.00000  Uiso   1.00
H306   H     0.98362   0.69507   0.83604   0.00000  Uiso   1.00
H307   H     0.13915   0.45687   0.10651   0.00000  Uiso   1.00
H308   H     0.12338   0.33493   0.27773   0.00000  Uiso   1.00
H309   H     0.19830   0.59274   0.10164   0.00000  Uiso   1.00
H310   H     0.10228   0.41588   0.93201   0.00000  Uiso   1.00
H311   H     0.09567   0.24250   0.48041   0.00000  Uiso   1.00
H312   H     0.25364   0.78609   0.10907   0.00000  Uiso   1.00
H313   H     0.05117   0.41316   0.75137   0.00000  Uiso   1.00
O314   O     0.05011   0.30919   0.63718   0.00000  Uiso   1.00
O315   O     0.25735   0.02237   0.14998   0.00000  Uiso   1.00
O316   O     0.99172   0.53310   0.68069   0.00000  Uiso   1.00
N317   N     0.04618   0.47477   0.52164   0.00000  Uiso   1.00
N318   N     0.19387   0.98300   0.17448   0.00000  Uiso   1.00
N319   N     0.00458   0.63437   0.84005   0.00000  Uiso   1.00
N320   N     0.08252   0.32309   0.47608   0.00000  Uiso   1.00
N321   N     0.23022   0.83131   0.12892   0.00000  Uiso   1.00
N322   N     0.04093   0.48268   0.79449   0.00000  Uiso   1.00
C323   C     0.91034   0.33319   0.84444   0.00000  Uiso   1.00
C324   C     0.89488   0.42017   0.76062   0.00000  Uiso   1.00
C325   C     0.91099   0.44489   0.66220   0.00000  Uiso   1.00
C326   C     0.89252   0.52717   0.59687   0.00000  Uiso   1.00
C327   C     0.87358   0.65375   0.46182   0.00000  Uiso   1.00
C328   C     0.87927   0.24184   0.86675   0.00000  Uiso   1.00
C329   C     0.88226   0.11663   0.85758   0.00000  Uiso   1.00
C330   C     0.85064   0.04880   0.88160   0.00000  Uiso   1.00
C331   C     0.80748   0.89852   0.91140   0.00000  Uiso   1.00
C332   C     0.91474   0.40756   0.94637   0.00000  Uiso   1.00
C333   C     0.94756   0.42166   0.00416   0.00000  Uiso   1.00
C334   C     0.94580   0.49333   0.09523   0.00000  Uiso   1.00
C335   C     0.95771   0.60034   0.24865   0.00000  Uiso   1.00
C336   C     0.84886   0.43536   0.90343   0.00000  Uiso   1.00
C337   C     0.86149   0.47566   0.79267   0.00000  Uiso   1.00
C338   C     0.84298   0.55793   0.72747   0.00000  Uiso   1.00
C339   C     0.85907   0.58278   0.62897   0.00000  Uiso   1.00
C340   C     0.84588   0.29733   0.89879   0.00000  Uiso   1.00
C341   C     0.81425   0.22968   0.92284   0.00000  Uiso   1.00
C342   C     0.81719   0.10440   0.91370   0.00000  Uiso   1.00
C343   C     0.88135   0.46306   0.97841   0.00000  Uiso   1.00
C344   C     0.87954   0.53471   0.06942   0.00000  Uiso   1.00
C345   C     0.91235   0.54892   0.12733   0.00000  Uiso   1.00
H346   H     0.93633   0.28997   0.81950   0.00000  Uiso   1.00
H347   H     0.93683   0.40191   0.63743   0.00000  Uiso   1.00
H348   H     0.90810   0.07371   0.83279   0.00000  Uiso   1.00
H349   H     0.97339   0.37870   0.97934   0.00000  Uiso   1.00
H350   H     0.92265   0.55046   0.44969   0.00000  Uiso   1.00
H351   H     0.86208   0.85843   0.86165   0.00000  Uiso   1.00
H352   H     0.99975   0.50154   0.17069   0.00000  Uiso   1.00
H353   H     0.82287   0.47856   0.92838   0.00000  Uiso   1.00
H354   H     0.81714   0.60087   0.75228   0.00000  Uiso   1.00
H355   H     0.78842   0.27265   0.94764   0.00000  Uiso   1.00
H356   H     0.85370   0.57764   0.09419   0.00000  Uiso   1.00
H357   H     0.82551   0.71193   0.54291   0.00000  Uiso   1.00
H358   H     0.76494   0.01989   0.95487   0.00000  Uiso   1.00
H359   H     0.90261   0.66301   0.26390   0.00000  Uiso   1.00
O360   O     0.87236   0.70822   0.37848   0.00000  Uiso   1.00
O361   O     0.79289   0.80029   0.91897   0.00000  Uiso   1.00
O362   O     0.97351   0.64405   0.32441   0.00000  Uiso   1.00
N363   N     0.90058   0.57170   0.49580   0.00000  Uiso   1.00
N364   N     0.84395   0.92469   0.88094   0.00000  Uiso   1.00
N365   N     0.97265   0.52592   0.16988   0.00000  Uiso   1.00
N366   N     0.84831   0.65859   0.54596   0.00000  Uiso   1.00
N367   N     0.79168   0.01157   0.93110   0.00000  Uiso   1.00
N368   N     0.92038   0.61281   0.22004   0.00000  Uiso   1.00
