data_job_03642
_audit_creation_date              2018-12-19
_audit_creation_method            'Materials Studio'
_symmetry_space_group_name_H-M    'P1'
_symmetry_Int_Tables_number       1
_symmetry_cell_setting            triclinic
loop_
_symmetry_equiv_pos_as_xyz
  x,y,z
_cell_length_a                    13.1188
_cell_length_b                    7.0046
_cell_length_c                    27.2784
_cell_angle_alpha                 90.0000
_cell_angle_beta                  106.7559
_cell_angle_gamma                 90.0000
loop_
_atom_site_label
_atom_site_type_symbol
_atom_site_fract_x
_atom_site_fract_y
_atom_site_fract_z
_atom_site_U_iso_or_equiv
_atom_site_adp_type
_atom_site_occupancy
C1     C     0.36387   0.58249   0.59662   0.00000  Uiso   1.00
C2     C     0.45813   0.44903   0.60153   0.00000  Uiso   1.00
C3     C     0.55659   0.50133   0.59643   0.00000  Uiso   1.00
C4     C     0.63234   0.35813   0.60229   0.00000  Uiso   1.00
C5     C     0.78204   0.17958   0.60828   0.00000  Uiso   1.00
C6     C     0.27125   0.49674   0.55512   0.00000  Uiso   1.00
C7     C     0.21258   0.58918   0.51100   0.00000  Uiso   1.00
C8     C     0.13100   0.48614   0.47779   0.00000  Uiso   1.00
C9     C     0.99051   0.38172   0.41175   0.00000  Uiso   1.00
C10    C     0.33442   0.56367   0.64655   0.00000  Uiso   1.00
C11    C     0.32884   0.71238   0.67930   0.00000  Uiso   1.00
C12    C     0.30042   0.66569   0.72307   0.00000  Uiso   1.00
C13    C     0.25802   0.66518   0.79898   0.00000  Uiso   1.00
C14    C     0.32330   0.23516   0.61611   0.00000  Uiso   1.00
C15    C     0.43609   0.26038   0.61212   0.00000  Uiso   1.00
C16    C     0.51171   0.11706   0.61799   0.00000  Uiso   1.00
C17    C     0.61027   0.16914   0.61289   0.00000  Uiso   1.00
C18    C     0.24921   0.30810   0.56571   0.00000  Uiso   1.00
C19    C     0.16770   0.20490   0.53256   0.00000  Uiso   1.00
C20    C     0.10893   0.29715   0.48840   0.00000  Uiso   1.00
C21    C     0.31239   0.37501   0.65714   0.00000  Uiso   1.00
C22    C     0.28397   0.32810   0.70086   0.00000  Uiso   1.00
C23    C     0.27835   0.47670   0.73367   0.00000  Uiso   1.00
H24    H     0.38102   0.72936   0.58838   0.00000  Uiso   1.00
H25    H     0.57361   0.64734   0.58823   0.00000  Uiso   1.00
H26    H     0.22964   0.73518   0.50282   0.00000  Uiso   1.00
H27    H     0.34590   0.85835   0.67110   0.00000  Uiso   1.00
H28    H     0.77741   0.47320   0.59272   0.00000  Uiso   1.00
H29    H     0.05211   0.65842   0.41264   0.00000  Uiso   1.00
H30    H     0.29724   0.91817   0.76748   0.00000  Uiso   1.00
H31    H     0.30614   0.08828   0.62435   0.00000  Uiso   1.00
H32    H     0.49464   0.97108   0.62618   0.00000  Uiso   1.00
H33    H     0.15067   0.05892   0.54076   0.00000  Uiso   1.00
H34    H     0.26692   0.18209   0.70904   0.00000  Uiso   1.00
H35    H     0.71331   0.92431   0.62351   0.00000  Uiso   1.00
H36    H     0.98800   0.10955   0.44343   0.00000  Uiso   1.00
H37    H     0.23314   0.36928   0.79827   0.00000  Uiso   1.00
O38    O     0.87069   0.13321   0.60865   0.00000  Uiso   1.00
O39    O     0.91912   0.37624   0.37240   0.00000  Uiso   1.00
O40    O     0.24074   0.71701   0.83794   0.00000  Uiso   1.00
N41    N     0.73646   0.36011   0.59973   0.00000  Uiso   1.00
N42    N     0.05836   0.53328   0.43135   0.00000  Uiso   1.00
N43    N     0.28751   0.77612   0.76309   0.00000  Uiso   1.00
N44    N     0.70197   0.06476   0.61630   0.00000  Uiso   1.00
N45    N     0.02387   0.23793   0.44793   0.00000  Uiso   1.00
N46    N     0.25302   0.48077   0.77966   0.00000  Uiso   1.00
C47    C     0.63613   0.58249   0.90338   0.00000  Uiso   1.00
C48    C     0.54187   0.44903   0.89847   0.00000  Uiso   1.00
C49    C     0.44341   0.50133   0.90357   0.00000  Uiso   1.00
C50    C     0.36766   0.35813   0.89771   0.00000  Uiso   1.00
C51    C     0.21796   0.17958   0.89172   0.00000  Uiso   1.00
C52    C     0.72875   0.49674   0.94488   0.00000  Uiso   1.00
C53    C     0.78742   0.58918   0.98900   0.00000  Uiso   1.00
C54    C     0.86900   0.48614   0.02221   0.00000  Uiso   1.00
C55    C     0.00949   0.38172   0.08825   0.00000  Uiso   1.00
C56    C     0.66558   0.56367   0.85345   0.00000  Uiso   1.00
C57    C     0.67116   0.71238   0.82070   0.00000  Uiso   1.00
C58    C     0.69958   0.66569   0.77693   0.00000  Uiso   1.00
C59    C     0.74198   0.66518   0.70102   0.00000  Uiso   1.00
C60    C     0.67670   0.23516   0.88389   0.00000  Uiso   1.00
C61    C     0.56391   0.26038   0.88788   0.00000  Uiso   1.00
C62    C     0.48829   0.11706   0.88201   0.00000  Uiso   1.00
C63    C     0.38973   0.16914   0.88711   0.00000  Uiso   1.00
C64    C     0.75079   0.30810   0.93429   0.00000  Uiso   1.00
C65    C     0.83230   0.20490   0.96744   0.00000  Uiso   1.00
C66    C     0.89107   0.29715   0.01160   0.00000  Uiso   1.00
C67    C     0.68761   0.37501   0.84286   0.00000  Uiso   1.00
C68    C     0.71603   0.32810   0.79914   0.00000  Uiso   1.00
C69    C     0.72165   0.47670   0.76633   0.00000  Uiso   1.00
H70    H     0.61898   0.72936   0.91162   0.00000  Uiso   1.00
H71    H     0.42639   0.64734   0.91177   0.00000  Uiso   1.00
H72    H     0.77036   0.73518   0.99718   0.00000  Uiso   1.00
H73    H     0.65410   0.85835   0.82890   0.00000  Uiso   1.00
H74    H     0.22259   0.47320   0.90728   0.00000  Uiso   1.00
H75    H     0.94789   0.65842   0.08736   0.00000  Uiso   1.00
H76    H     0.70276   0.91817   0.73252   0.00000  Uiso   1.00
H77    H     0.69386   0.08828   0.87565   0.00000  Uiso   1.00
H78    H     0.50536   0.97108   0.87382   0.00000  Uiso   1.00
H79    H     0.84933   0.05892   0.95924   0.00000  Uiso   1.00
H80    H     0.73308   0.18209   0.79096   0.00000  Uiso   1.00
H81    H     0.28669   0.92431   0.87649   0.00000  Uiso   1.00
H82    H     0.01200   0.10955   0.05657   0.00000  Uiso   1.00
H83    H     0.76686   0.36928   0.70173   0.00000  Uiso   1.00
O84    O     0.12931   0.13321   0.89135   0.00000  Uiso   1.00
O85    O     0.08088   0.37624   0.12760   0.00000  Uiso   1.00
O86    O     0.75926   0.71701   0.66206   0.00000  Uiso   1.00
N87    N     0.26354   0.36011   0.90027   0.00000  Uiso   1.00
N88    N     0.94164   0.53328   0.06865   0.00000  Uiso   1.00
N89    N     0.71249   0.77612   0.73691   0.00000  Uiso   1.00
N90    N     0.29803   0.06476   0.88370   0.00000  Uiso   1.00
N91    N     0.97613   0.23793   0.05207   0.00000  Uiso   1.00
N92    N     0.74698   0.48077   0.72034   0.00000  Uiso   1.00
C93    C     0.63613   0.41751   0.40338   0.00000  Uiso   1.00
C94    C     0.54187   0.55097   0.39847   0.00000  Uiso   1.00
C95    C     0.44341   0.49867   0.40357   0.00000  Uiso   1.00
C96    C     0.36766   0.64187   0.39771   0.00000  Uiso   1.00
C97    C     0.21796   0.82042   0.39172   0.00000  Uiso   1.00
C98    C     0.72875   0.50326   0.44488   0.00000  Uiso   1.00
C99    C     0.78742   0.41082   0.48900   0.00000  Uiso   1.00
C100   C     0.86900   0.51386   0.52221   0.00000  Uiso   1.00
C101   C     0.00949   0.61828   0.58825   0.00000  Uiso   1.00
C102   C     0.66558   0.43633   0.35345   0.00000  Uiso   1.00
C103   C     0.67116   0.28762   0.32070   0.00000  Uiso   1.00
C104   C     0.69958   0.33431   0.27693   0.00000  Uiso   1.00
C105   C     0.74198   0.33482   0.20102   0.00000  Uiso   1.00
C106   C     0.67670   0.76484   0.38389   0.00000  Uiso   1.00
C107   C     0.56391   0.73962   0.38788   0.00000  Uiso   1.00
C108   C     0.48829   0.88294   0.38201   0.00000  Uiso   1.00
C109   C     0.38973   0.83086   0.38711   0.00000  Uiso   1.00
C110   C     0.75079   0.69190   0.43429   0.00000  Uiso   1.00
C111   C     0.83230   0.79510   0.46744   0.00000  Uiso   1.00
C112   C     0.89107   0.70285   0.51160   0.00000  Uiso   1.00
C113   C     0.68761   0.62499   0.34286   0.00000  Uiso   1.00
C114   C     0.71603   0.67190   0.29914   0.00000  Uiso   1.00
C115   C     0.72165   0.52330   0.26633   0.00000  Uiso   1.00
H116   H     0.61898   0.27064   0.41162   0.00000  Uiso   1.00
H117   H     0.42639   0.35266   0.41177   0.00000  Uiso   1.00
H118   H     0.77036   0.26482   0.49718   0.00000  Uiso   1.00
H119   H     0.65410   0.14165   0.32890   0.00000  Uiso   1.00
H120   H     0.22259   0.52680   0.40728   0.00000  Uiso   1.00
H121   H     0.94789   0.34158   0.58736   0.00000  Uiso   1.00
H122   H     0.70276   0.08183   0.23252   0.00000  Uiso   1.00
H123   H     0.69386   0.91172   0.37565   0.00000  Uiso   1.00
H124   H     0.50536   0.02892   0.37382   0.00000  Uiso   1.00
H125   H     0.84933   0.94108   0.45924   0.00000  Uiso   1.00
H126   H     0.73308   0.81791   0.29096   0.00000  Uiso   1.00
H127   H     0.28669   0.07569   0.37649   0.00000  Uiso   1.00
H128   H     0.01200   0.89045   0.55657   0.00000  Uiso   1.00
H129   H     0.76686   0.63072   0.20173   0.00000  Uiso   1.00
O130   O     0.12931   0.86679   0.39135   0.00000  Uiso   1.00
O131   O     0.08088   0.62376   0.62760   0.00000  Uiso   1.00
O132   O     0.75926   0.28299   0.16206   0.00000  Uiso   1.00
N133   N     0.26354   0.63989   0.40027   0.00000  Uiso   1.00
N134   N     0.94164   0.46672   0.56865   0.00000  Uiso   1.00
N135   N     0.71249   0.22388   0.23691   0.00000  Uiso   1.00
N136   N     0.29803   0.93524   0.38370   0.00000  Uiso   1.00
N137   N     0.97613   0.76207   0.55207   0.00000  Uiso   1.00
N138   N     0.74698   0.51923   0.22034   0.00000  Uiso   1.00
C139   C     0.36387   0.41751   0.09662   0.00000  Uiso   1.00
C140   C     0.45813   0.55097   0.10153   0.00000  Uiso   1.00
C141   C     0.55659   0.49867   0.09643   0.00000  Uiso   1.00
C142   C     0.63234   0.64187   0.10229   0.00000  Uiso   1.00
C143   C     0.78204   0.82042   0.10828   0.00000  Uiso   1.00
C144   C     0.27125   0.50326   0.05512   0.00000  Uiso   1.00
C145   C     0.21258   0.41082   0.01100   0.00000  Uiso   1.00
C146   C     0.13100   0.51386   0.97779   0.00000  Uiso   1.00
C147   C     0.99051   0.61828   0.91175   0.00000  Uiso   1.00
C148   C     0.33442   0.43633   0.14655   0.00000  Uiso   1.00
C149   C     0.32884   0.28762   0.17930   0.00000  Uiso   1.00
C150   C     0.30042   0.33431   0.22307   0.00000  Uiso   1.00
C151   C     0.25802   0.33482   0.29898   0.00000  Uiso   1.00
C152   C     0.32330   0.76484   0.11611   0.00000  Uiso   1.00
C153   C     0.43609   0.73962   0.11212   0.00000  Uiso   1.00
C154   C     0.51171   0.88294   0.11799   0.00000  Uiso   1.00
C155   C     0.61027   0.83086   0.11289   0.00000  Uiso   1.00
C156   C     0.24921   0.69190   0.06571   0.00000  Uiso   1.00
C157   C     0.16770   0.79510   0.03256   0.00000  Uiso   1.00
C158   C     0.10893   0.70285   0.98840   0.00000  Uiso   1.00
C159   C     0.31239   0.62499   0.15714   0.00000  Uiso   1.00
C160   C     0.28397   0.67190   0.20086   0.00000  Uiso   1.00
C161   C     0.27835   0.52330   0.23367   0.00000  Uiso   1.00
H162   H     0.38102   0.27064   0.08838   0.00000  Uiso   1.00
H163   H     0.57361   0.35266   0.08823   0.00000  Uiso   1.00
H164   H     0.22964   0.26482   0.00282   0.00000  Uiso   1.00
H165   H     0.34590   0.14165   0.17110   0.00000  Uiso   1.00
H166   H     0.77741   0.52680   0.09272   0.00000  Uiso   1.00
H167   H     0.05211   0.34158   0.91264   0.00000  Uiso   1.00
H168   H     0.29724   0.08183   0.26748   0.00000  Uiso   1.00
H169   H     0.30614   0.91172   0.12435   0.00000  Uiso   1.00
H170   H     0.49464   0.02892   0.12618   0.00000  Uiso   1.00
H171   H     0.15067   0.94108   0.04076   0.00000  Uiso   1.00
H172   H     0.26692   0.81791   0.20904   0.00000  Uiso   1.00
H173   H     0.71331   0.07569   0.12351   0.00000  Uiso   1.00
H174   H     0.98800   0.89045   0.94343   0.00000  Uiso   1.00
H175   H     0.23314   0.63072   0.29827   0.00000  Uiso   1.00
O176   O     0.87069   0.86679   0.10865   0.00000  Uiso   1.00
O177   O     0.91912   0.62376   0.87240   0.00000  Uiso   1.00
O178   O     0.24074   0.28299   0.33794   0.00000  Uiso   1.00
N179   N     0.73646   0.63989   0.09973   0.00000  Uiso   1.00
N180   N     0.05836   0.46672   0.93135   0.00000  Uiso   1.00
N181   N     0.28751   0.22388   0.26309   0.00000  Uiso   1.00
N182   N     0.70197   0.93524   0.11630   0.00000  Uiso   1.00
N183   N     0.02387   0.76207   0.94793   0.00000  Uiso   1.00
N184   N     0.25302   0.51923   0.27966   0.00000  Uiso   1.00
