data_job_05464
_audit_creation_date              2018-12-19
_audit_creation_method            'Materials Studio'
_symmetry_space_group_name_H-M    'P1'
_symmetry_Int_Tables_number       1
_symmetry_cell_setting            triclinic
loop_
_symmetry_equiv_pos_as_xyz
  x,y,z
_cell_length_a                    19.6658
_cell_length_b                    9.7017
_cell_length_c                    24.0152
_cell_angle_alpha                 90.0000
_cell_angle_beta                  145.9340
_cell_angle_gamma                 90.0000
loop_
_atom_site_label
_atom_site_type_symbol
_atom_site_fract_x
_atom_site_fract_y
_atom_site_fract_z
_atom_site_U_iso_or_equiv
_atom_site_adp_type
_atom_site_occupancy
C1     C     0.24508   0.74094   0.81017   0.00000  Uiso   1.00
C2     C     0.11305   0.69628   0.71437   0.00000  Uiso   1.00
C3     C     0.05159   0.60651   0.70773   0.00000  Uiso   1.00
C4     C     0.93116   0.57869   0.61322   0.00000  Uiso   1.00
C5     C     0.73481   0.50019   0.47736   0.00000  Uiso   1.00
C6     C     0.30713   0.70409   0.79748   0.00000  Uiso   1.00
C7     C     0.40886   0.62090   0.86075   0.00000  Uiso   1.00
C8     C     0.45181   0.59967   0.83621   0.00000  Uiso   1.00
C9     C     0.55683   0.53338   0.82943   0.00000  Uiso   1.00
C10    C     0.24339   0.89796   0.81171   0.00000  Uiso   1.00
C11    C     0.29155   0.97779   0.88694   0.00000  Uiso   1.00
C12    C     0.28086   0.11978   0.87440   0.00000  Uiso   1.00
C13    C     0.28692   0.35450   0.88970   0.00000  Uiso   1.00
C14    C     0.14050   0.85116   0.65412   0.00000  Uiso   1.00
C15    C     0.05625   0.75615   0.62961   0.00000  Uiso   1.00
C16    C     0.93588   0.72846   0.53508   0.00000  Uiso   1.00
C17    C     0.87424   0.63867   0.52831   0.00000  Uiso   1.00
C18    C     0.25033   0.76396   0.71273   0.00000  Uiso   1.00
C19    C     0.29315   0.74286   0.68810   0.00000  Uiso   1.00
C20    C     0.39491   0.65965   0.75130   0.00000  Uiso   1.00
C21    C     0.18658   0.95783   0.72695   0.00000  Uiso   1.00
C22    C     0.17583   0.09973   0.71429   0.00000  Uiso   1.00
C23    C     0.22396   0.17976   0.78948   0.00000  Uiso   1.00
H24    H     0.28931   0.69432   0.87616   0.00000  Uiso   1.00
H25    H     0.09559   0.56019   0.77334   0.00000  Uiso   1.00
H26    H     0.45281   0.57460   0.92634   0.00000  Uiso   1.00
H27    H     0.33551   0.93142   0.95252   0.00000  Uiso   1.00
H28    H     0.85576   0.43784   0.62197   0.00000  Uiso   1.00
H29    H     0.60901   0.46826   0.94459   0.00000  Uiso   1.00
H30    H     0.36167   0.22069   0.99981   0.00000  Uiso   1.00
H31    H     0.09627   0.89777   0.58813   0.00000  Uiso   1.00
H32    H     0.89194   0.77481   0.46951   0.00000  Uiso   1.00
H33    H     0.24917   0.78921   0.62250   0.00000  Uiso   1.00
H34    H     0.13187   0.14603   0.64869   0.00000  Uiso   1.00
H35    H     0.69048   0.61203   0.37537   0.00000  Uiso   1.00
H36    H     0.44373   0.64245   0.69799   0.00000  Uiso   1.00
H37    H     0.19638   0.39487   0.75321   0.00000  Uiso   1.00
O38    O     0.64220   0.44034   0.42583   0.00000  Uiso   1.00
O39    O     0.63045   0.48026   0.84910   0.00000  Uiso   1.00
O40    O     0.30593   0.46743   0.92155   0.00000  Uiso   1.00
N41    N     0.84490   0.49574   0.58022   0.00000  Uiso   1.00
N42    N     0.54913   0.52415   0.88183   0.00000  Uiso   1.00
N43    N     0.31791   0.22761   0.93348   0.00000  Uiso   1.00
N44    N     0.75596   0.58947   0.44752   0.00000  Uiso   1.00
N45    N     0.46019   0.61788   0.74914   0.00000  Uiso   1.00
N46    N     0.22897   0.32134   0.80078   0.00000  Uiso   1.00
C47    C     0.75492   0.24094   0.68983   0.00000  Uiso   1.00
C48    C     0.88695   0.19628   0.78563   0.00000  Uiso   1.00
C49    C     0.94841   0.10651   0.79227   0.00000  Uiso   1.00
C50    C     0.06884   0.07869   0.88678   0.00000  Uiso   1.00
C51    C     0.26519   0.00019   0.02264   0.00000  Uiso   1.00
C52    C     0.69287   0.20409   0.70252   0.00000  Uiso   1.00
C53    C     0.59114   0.12090   0.63925   0.00000  Uiso   1.00
C54    C     0.54819   0.09967   0.66379   0.00000  Uiso   1.00
C55    C     0.44317   0.03338   0.67057   0.00000  Uiso   1.00
C56    C     0.75661   0.39796   0.68829   0.00000  Uiso   1.00
C57    C     0.70845   0.47779   0.61306   0.00000  Uiso   1.00
C58    C     0.71914   0.61978   0.62560   0.00000  Uiso   1.00
C59    C     0.71308   0.85450   0.61030   0.00000  Uiso   1.00
C60    C     0.85950   0.35116   0.84588   0.00000  Uiso   1.00
C61    C     0.94375   0.25615   0.87039   0.00000  Uiso   1.00
C62    C     0.06412   0.22846   0.96492   0.00000  Uiso   1.00
C63    C     0.12576   0.13867   0.97169   0.00000  Uiso   1.00
C64    C     0.74967   0.26396   0.78727   0.00000  Uiso   1.00
C65    C     0.70685   0.24286   0.81190   0.00000  Uiso   1.00
C66    C     0.60509   0.15965   0.74870   0.00000  Uiso   1.00
C67    C     0.81342   0.45783   0.77305   0.00000  Uiso   1.00
C68    C     0.82417   0.59973   0.78571   0.00000  Uiso   1.00
C69    C     0.77604   0.67976   0.71052   0.00000  Uiso   1.00
H70    H     0.71069   0.19432   0.62384   0.00000  Uiso   1.00
H71    H     0.90441   0.06019   0.72666   0.00000  Uiso   1.00
H72    H     0.54719   0.07460   0.57366   0.00000  Uiso   1.00
H73    H     0.66449   0.43142   0.54748   0.00000  Uiso   1.00
H74    H     0.14424   0.93784   0.87803   0.00000  Uiso   1.00
H75    H     0.39099   0.96826   0.55541   0.00000  Uiso   1.00
H76    H     0.63833   0.72069   0.50019   0.00000  Uiso   1.00
H77    H     0.90373   0.39777   0.91187   0.00000  Uiso   1.00
H78    H     0.10806   0.27481   0.03049   0.00000  Uiso   1.00
H79    H     0.75083   0.28921   0.87750   0.00000  Uiso   1.00
H80    H     0.86813   0.64603   0.85131   0.00000  Uiso   1.00
H81    H     0.30952   0.11203   0.12463   0.00000  Uiso   1.00
H82    H     0.55627   0.14245   0.80201   0.00000  Uiso   1.00
H83    H     0.80362   0.89487   0.74679   0.00000  Uiso   1.00
O84    O     0.35780   0.94034   0.07417   0.00000  Uiso   1.00
O85    O     0.36955   0.98026   0.65090   0.00000  Uiso   1.00
O86    O     0.69407   0.96743   0.57845   0.00000  Uiso   1.00
N87    N     0.15510   0.99574   0.91978   0.00000  Uiso   1.00
N88    N     0.45087   0.02415   0.61817   0.00000  Uiso   1.00
N89    N     0.68209   0.72761   0.56652   0.00000  Uiso   1.00
N90    N     0.24404   0.08947   0.05248   0.00000  Uiso   1.00
N91    N     0.53981   0.11788   0.75086   0.00000  Uiso   1.00
N92    N     0.77103   0.82134   0.69922   0.00000  Uiso   1.00
C93    C     0.75492   0.25906   0.18983   0.00000  Uiso   1.00
C94    C     0.88695   0.30372   0.28563   0.00000  Uiso   1.00
C95    C     0.94841   0.39349   0.29227   0.00000  Uiso   1.00
C96    C     0.06884   0.42131   0.38678   0.00000  Uiso   1.00
C97    C     0.26519   0.49981   0.52264   0.00000  Uiso   1.00
C98    C     0.69287   0.29591   0.20252   0.00000  Uiso   1.00
C99    C     0.59114   0.37910   0.13925   0.00000  Uiso   1.00
C100   C     0.54819   0.40033   0.16379   0.00000  Uiso   1.00
C101   C     0.44317   0.46662   0.17057   0.00000  Uiso   1.00
C102   C     0.75661   0.10204   0.18829   0.00000  Uiso   1.00
C103   C     0.70845   0.02221   0.11306   0.00000  Uiso   1.00
C104   C     0.71914   0.88022   0.12560   0.00000  Uiso   1.00
C105   C     0.71308   0.64550   0.11030   0.00000  Uiso   1.00
C106   C     0.85950   0.14884   0.34588   0.00000  Uiso   1.00
C107   C     0.94375   0.24385   0.37039   0.00000  Uiso   1.00
C108   C     0.06412   0.27154   0.46492   0.00000  Uiso   1.00
C109   C     0.12576   0.36133   0.47169   0.00000  Uiso   1.00
C110   C     0.74967   0.23604   0.28727   0.00000  Uiso   1.00
C111   C     0.70685   0.25714   0.31190   0.00000  Uiso   1.00
C112   C     0.60509   0.34035   0.24870   0.00000  Uiso   1.00
C113   C     0.81342   0.04217   0.27305   0.00000  Uiso   1.00
C114   C     0.82417   0.90027   0.28571   0.00000  Uiso   1.00
C115   C     0.77604   0.82024   0.21052   0.00000  Uiso   1.00
H116   H     0.71069   0.30568   0.12384   0.00000  Uiso   1.00
H117   H     0.90441   0.43981   0.22666   0.00000  Uiso   1.00
H118   H     0.54719   0.42540   0.07366   0.00000  Uiso   1.00
H119   H     0.66449   0.06858   0.04748   0.00000  Uiso   1.00
H120   H     0.14424   0.56216   0.37803   0.00000  Uiso   1.00
H121   H     0.39099   0.53174   0.05541   0.00000  Uiso   1.00
H122   H     0.63833   0.77931   0.00019   0.00000  Uiso   1.00
H123   H     0.90373   0.10223   0.41187   0.00000  Uiso   1.00
H124   H     0.10806   0.22519   0.53049   0.00000  Uiso   1.00
H125   H     0.75083   0.21079   0.37750   0.00000  Uiso   1.00
H126   H     0.86813   0.85397   0.35131   0.00000  Uiso   1.00
H127   H     0.30952   0.38797   0.62463   0.00000  Uiso   1.00
H128   H     0.55627   0.35755   0.30201   0.00000  Uiso   1.00
H129   H     0.80362   0.60513   0.24679   0.00000  Uiso   1.00
O130   O     0.35780   0.55966   0.57417   0.00000  Uiso   1.00
O131   O     0.36955   0.51974   0.15090   0.00000  Uiso   1.00
O132   O     0.69407   0.53257   0.07845   0.00000  Uiso   1.00
N133   N     0.15510   0.50426   0.41978   0.00000  Uiso   1.00
N134   N     0.45087   0.47585   0.11817   0.00000  Uiso   1.00
N135   N     0.68209   0.77239   0.06652   0.00000  Uiso   1.00
N136   N     0.24404   0.41053   0.55248   0.00000  Uiso   1.00
N137   N     0.53981   0.38212   0.25086   0.00000  Uiso   1.00
N138   N     0.77103   0.67866   0.19922   0.00000  Uiso   1.00
C139   C     0.24508   0.75906   0.31017   0.00000  Uiso   1.00
C140   C     0.11305   0.80372   0.21437   0.00000  Uiso   1.00
C141   C     0.05159   0.89349   0.20773   0.00000  Uiso   1.00
C142   C     0.93116   0.92131   0.11322   0.00000  Uiso   1.00
C143   C     0.73481   0.99981   0.97736   0.00000  Uiso   1.00
C144   C     0.30713   0.79591   0.29748   0.00000  Uiso   1.00
C145   C     0.40886   0.87910   0.36075   0.00000  Uiso   1.00
C146   C     0.45181   0.90033   0.33621   0.00000  Uiso   1.00
C147   C     0.55683   0.96662   0.32943   0.00000  Uiso   1.00
C148   C     0.24339   0.60204   0.31171   0.00000  Uiso   1.00
C149   C     0.29155   0.52221   0.38694   0.00000  Uiso   1.00
C150   C     0.28086   0.38022   0.37440   0.00000  Uiso   1.00
C151   C     0.28692   0.14550   0.38970   0.00000  Uiso   1.00
C152   C     0.14050   0.64884   0.15412   0.00000  Uiso   1.00
C153   C     0.05625   0.74385   0.12961   0.00000  Uiso   1.00
C154   C     0.93588   0.77154   0.03508   0.00000  Uiso   1.00
C155   C     0.87424   0.86133   0.02831   0.00000  Uiso   1.00
C156   C     0.25033   0.73604   0.21273   0.00000  Uiso   1.00
C157   C     0.29315   0.75714   0.18810   0.00000  Uiso   1.00
C158   C     0.39491   0.84035   0.25130   0.00000  Uiso   1.00
C159   C     0.18658   0.54217   0.22695   0.00000  Uiso   1.00
C160   C     0.17583   0.40027   0.21429   0.00000  Uiso   1.00
C161   C     0.22396   0.32024   0.28948   0.00000  Uiso   1.00
H162   H     0.28931   0.80568   0.37616   0.00000  Uiso   1.00
H163   H     0.09559   0.93981   0.27334   0.00000  Uiso   1.00
H164   H     0.45281   0.92540   0.42634   0.00000  Uiso   1.00
H165   H     0.33551   0.56858   0.45252   0.00000  Uiso   1.00
H166   H     0.85576   0.06216   0.12197   0.00000  Uiso   1.00
H167   H     0.60901   0.03174   0.44459   0.00000  Uiso   1.00
H168   H     0.36167   0.27931   0.49981   0.00000  Uiso   1.00
H169   H     0.09627   0.60223   0.08813   0.00000  Uiso   1.00
H170   H     0.89194   0.72519   0.96951   0.00000  Uiso   1.00
H171   H     0.24917   0.71079   0.12250   0.00000  Uiso   1.00
H172   H     0.13187   0.35397   0.14869   0.00000  Uiso   1.00
H173   H     0.69048   0.88797   0.87537   0.00000  Uiso   1.00
H174   H     0.44373   0.85755   0.19799   0.00000  Uiso   1.00
H175   H     0.19638   0.10513   0.25321   0.00000  Uiso   1.00
O176   O     0.64220   0.05966   0.92583   0.00000  Uiso   1.00
O177   O     0.63045   0.01974   0.34910   0.00000  Uiso   1.00
O178   O     0.30593   0.03257   0.42155   0.00000  Uiso   1.00
N179   N     0.84490   0.00426   0.08022   0.00000  Uiso   1.00
N180   N     0.54913   0.97585   0.38183   0.00000  Uiso   1.00
N181   N     0.31791   0.27239   0.43348   0.00000  Uiso   1.00
N182   N     0.75596   0.91053   0.94752   0.00000  Uiso   1.00
N183   N     0.46019   0.88212   0.24914   0.00000  Uiso   1.00
N184   N     0.22897   0.17866   0.30078   0.00000  Uiso   1.00
