data_job_00754
_audit_creation_date              2018-12-19
_audit_creation_method            'Materials Studio'
_symmetry_space_group_name_H-M    'P1'
_symmetry_Int_Tables_number       1
_symmetry_cell_setting            triclinic
loop_
_symmetry_equiv_pos_as_xyz
  x,y,z
_cell_length_a                    32.3689
_cell_length_b                    9.4352
_cell_length_c                    24.8816
_cell_angle_alpha                 90.0000
_cell_angle_beta                  140.1977
_cell_angle_gamma                 90.0000
loop_
_atom_site_label
_atom_site_type_symbol
_atom_site_fract_x
_atom_site_fract_y
_atom_site_fract_z
_atom_site_U_iso_or_equiv
_atom_site_adp_type
_atom_site_occupancy
C1     C     0.07395   0.49844   0.71293   0.00000  Uiso   1.00
C2     C     0.10673   0.50751   0.69092   0.00000  Uiso   1.00
C3     C     0.09430   0.60851   0.63930   0.00000  Uiso   1.00
C4     C     0.12938   0.59864   0.62697   0.00000  Uiso   1.00
C5     C     0.17328   0.62898   0.58699   0.00000  Uiso   1.00
C6     C     0.04490   0.35021   0.68724   0.00000  Uiso   1.00
C7     C     0.98048   0.31895   0.63253   0.00000  Uiso   1.00
C8     C     0.96352   0.17665   0.61711   0.00000  Uiso   1.00
C9     C     0.91143   0.96277   0.57147   0.00000  Uiso   1.00
C10    C     0.12806   0.50248   0.80852   0.00000  Uiso   1.00
C11    C     0.13357   0.59922   0.85579   0.00000  Uiso   1.00
C12    C     0.18662   0.58510   0.94248   0.00000  Uiso   1.00
C13    C     0.26366   0.60764   0.08513   0.00000  Uiso   1.00
C14    C     0.15835   0.30129   0.78283   0.00000  Uiso   1.00
C15    C     0.15257   0.40043   0.72889   0.00000  Uiso   1.00
C16    C     0.18768   0.39040   0.71663   0.00000  Uiso   1.00
C17    C     0.17531   0.49137   0.66500   0.00000  Uiso   1.00
C18    C     0.09074   0.24313   0.72520   0.00000  Uiso   1.00
C19    C     0.07386   0.10084   0.70987   0.00000  Uiso   1.00
C20    C     0.00944   0.06937   0.65515   0.00000  Uiso   1.00
C21    C     0.17391   0.39540   0.84649   0.00000  Uiso   1.00
C22    C     0.22695   0.38111   0.93312   0.00000  Uiso   1.00
C23    C     0.23255   0.47782   0.98051   0.00000  Uiso   1.00
H24    H     0.03826   0.58179   0.68337   0.00000  Uiso   1.00
H25    H     0.05882   0.69136   0.60992   0.00000  Uiso   1.00
H26    H     0.94502   0.40184   0.60317   0.00000  Uiso   1.00
H27    H     0.09809   0.68207   0.82639   0.00000  Uiso   1.00
H28    H     0.10181   0.76558   0.54522   0.00000  Uiso   1.00
H29    H     0.86187   0.15511   0.53099   0.00000  Uiso   1.00
H30    H     0.18464   0.74604   0.00169   0.00000  Uiso   1.00
H31    H     0.19404   0.21792   0.81239   0.00000  Uiso   1.00
H32    H     0.22315   0.30752   0.74602   0.00000  Uiso   1.00
H33    H     0.10935   0.01800   0.73926   0.00000  Uiso   1.00
H34    H     0.26242   0.29823   0.96248   0.00000  Uiso   1.00
H35    H     0.23519   0.45403   0.65567   0.00000  Uiso   1.00
H36    H     0.99524   0.84357   0.64145   0.00000  Uiso   1.00
H37    H     0.31802   0.43449   0.11215   0.00000  Uiso   1.00
O38    O     0.18482   0.67528   0.55444   0.00000  Uiso   1.00
O39    O     0.87003   0.87439   0.53579   0.00000  Uiso   1.00
O40    O     0.29350   0.64967   0.15333   0.00000  Uiso   1.00
N41    N     0.12922   0.67997   0.58033   0.00000  Uiso   1.00
N42    N     0.90488   0.10923   0.56702   0.00000  Uiso   1.00
N43    N     0.20664   0.66167   0.00709   0.00000  Uiso   1.00
N44    N     0.20099   0.51234   0.63977   0.00000  Uiso   1.00
N45    N     0.97665   0.94159   0.62646   0.00000  Uiso   1.00
N46    N     0.27841   0.49403   0.06652   0.00000  Uiso   1.00
C47    C     0.57395   0.99844   0.71293   0.00000  Uiso   1.00
C48    C     0.60673   0.00751   0.69092   0.00000  Uiso   1.00
C49    C     0.59430   0.10851   0.63930   0.00000  Uiso   1.00
C50    C     0.62938   0.09864   0.62697   0.00000  Uiso   1.00
C51    C     0.67328   0.12898   0.58699   0.00000  Uiso   1.00
C52    C     0.54490   0.85021   0.68724   0.00000  Uiso   1.00
C53    C     0.48048   0.81895   0.63253   0.00000  Uiso   1.00
C54    C     0.46352   0.67665   0.61711   0.00000  Uiso   1.00
C55    C     0.41143   0.46277   0.57147   0.00000  Uiso   1.00
C56    C     0.62806   0.00248   0.80852   0.00000  Uiso   1.00
C57    C     0.63357   0.09922   0.85579   0.00000  Uiso   1.00
C58    C     0.68662   0.08510   0.94248   0.00000  Uiso   1.00
C59    C     0.76366   0.10764   0.08513   0.00000  Uiso   1.00
C60    C     0.65835   0.80129   0.78283   0.00000  Uiso   1.00
C61    C     0.65257   0.90043   0.72889   0.00000  Uiso   1.00
C62    C     0.68768   0.89040   0.71663   0.00000  Uiso   1.00
C63    C     0.67531   0.99137   0.66500   0.00000  Uiso   1.00
C64    C     0.59074   0.74313   0.72520   0.00000  Uiso   1.00
C65    C     0.57386   0.60084   0.70987   0.00000  Uiso   1.00
C66    C     0.50944   0.56937   0.65515   0.00000  Uiso   1.00
C67    C     0.67391   0.89540   0.84649   0.00000  Uiso   1.00
C68    C     0.72695   0.88111   0.93312   0.00000  Uiso   1.00
C69    C     0.73255   0.97782   0.98051   0.00000  Uiso   1.00
H70    H     0.53826   0.08179   0.68337   0.00000  Uiso   1.00
H71    H     0.55882   0.19136   0.60992   0.00000  Uiso   1.00
H72    H     0.44502   0.90184   0.60317   0.00000  Uiso   1.00
H73    H     0.59809   0.18207   0.82639   0.00000  Uiso   1.00
H74    H     0.60181   0.26558   0.54522   0.00000  Uiso   1.00
H75    H     0.36187   0.65511   0.53099   0.00000  Uiso   1.00
H76    H     0.68464   0.24604   0.00169   0.00000  Uiso   1.00
H77    H     0.69404   0.71792   0.81239   0.00000  Uiso   1.00
H78    H     0.72315   0.80752   0.74602   0.00000  Uiso   1.00
H79    H     0.60935   0.51800   0.73926   0.00000  Uiso   1.00
H80    H     0.76242   0.79823   0.96248   0.00000  Uiso   1.00
H81    H     0.73519   0.95403   0.65567   0.00000  Uiso   1.00
H82    H     0.49524   0.34357   0.64145   0.00000  Uiso   1.00
H83    H     0.81802   0.93449   0.11215   0.00000  Uiso   1.00
O84    O     0.68482   0.17528   0.55444   0.00000  Uiso   1.00
O85    O     0.37003   0.37439   0.53579   0.00000  Uiso   1.00
O86    O     0.79350   0.14967   0.15333   0.00000  Uiso   1.00
N87    N     0.62922   0.17997   0.58033   0.00000  Uiso   1.00
N88    N     0.40488   0.60923   0.56702   0.00000  Uiso   1.00
N89    N     0.70664   0.16167   0.00709   0.00000  Uiso   1.00
N90    N     0.70099   0.01234   0.63977   0.00000  Uiso   1.00
N91    N     0.47665   0.44159   0.62646   0.00000  Uiso   1.00
N92    N     0.77841   0.99403   0.06652   0.00000  Uiso   1.00
C93    C     0.92605   0.49844   0.78707   0.00000  Uiso   1.00
C94    C     0.89327   0.50751   0.80908   0.00000  Uiso   1.00
C95    C     0.90570   0.60851   0.86070   0.00000  Uiso   1.00
C96    C     0.87062   0.59864   0.87303   0.00000  Uiso   1.00
C97    C     0.82672   0.62898   0.91301   0.00000  Uiso   1.00
C98    C     0.95510   0.35021   0.81276   0.00000  Uiso   1.00
C99    C     0.01952   0.31895   0.86747   0.00000  Uiso   1.00
C100   C     0.03648   0.17665   0.88289   0.00000  Uiso   1.00
C101   C     0.08857   0.96277   0.92853   0.00000  Uiso   1.00
C102   C     0.87194   0.50248   0.69148   0.00000  Uiso   1.00
C103   C     0.86643   0.59922   0.64421   0.00000  Uiso   1.00
C104   C     0.81338   0.58510   0.55752   0.00000  Uiso   1.00
C105   C     0.73634   0.60764   0.41487   0.00000  Uiso   1.00
C106   C     0.84165   0.30129   0.71717   0.00000  Uiso   1.00
C107   C     0.84743   0.40043   0.77111   0.00000  Uiso   1.00
C108   C     0.81232   0.39040   0.78337   0.00000  Uiso   1.00
C109   C     0.82469   0.49137   0.83500   0.00000  Uiso   1.00
C110   C     0.90926   0.24313   0.77480   0.00000  Uiso   1.00
C111   C     0.92614   0.10084   0.79013   0.00000  Uiso   1.00
C112   C     0.99056   0.06937   0.84485   0.00000  Uiso   1.00
C113   C     0.82609   0.39540   0.65351   0.00000  Uiso   1.00
C114   C     0.77305   0.38111   0.56688   0.00000  Uiso   1.00
C115   C     0.76745   0.47782   0.51949   0.00000  Uiso   1.00
H116   H     0.96174   0.58179   0.81663   0.00000  Uiso   1.00
H117   H     0.94118   0.69136   0.89008   0.00000  Uiso   1.00
H118   H     0.05498   0.40184   0.89683   0.00000  Uiso   1.00
H119   H     0.90191   0.68207   0.67361   0.00000  Uiso   1.00
H120   H     0.89819   0.76558   0.95478   0.00000  Uiso   1.00
H121   H     0.13813   0.15511   0.96901   0.00000  Uiso   1.00
H122   H     0.81536   0.74604   0.49831   0.00000  Uiso   1.00
H123   H     0.80596   0.21792   0.68761   0.00000  Uiso   1.00
H124   H     0.77685   0.30752   0.75398   0.00000  Uiso   1.00
H125   H     0.89065   0.01800   0.76074   0.00000  Uiso   1.00
H126   H     0.73758   0.29823   0.53752   0.00000  Uiso   1.00
H127   H     0.76481   0.45403   0.84433   0.00000  Uiso   1.00
H128   H     0.00476   0.84357   0.85855   0.00000  Uiso   1.00
H129   H     0.68198   0.43449   0.38785   0.00000  Uiso   1.00
O130   O     0.81518   0.67528   0.94556   0.00000  Uiso   1.00
O131   O     0.12997   0.87439   0.96421   0.00000  Uiso   1.00
O132   O     0.70650   0.64967   0.34667   0.00000  Uiso   1.00
N133   N     0.87078   0.67997   0.91967   0.00000  Uiso   1.00
N134   N     0.09512   0.10923   0.93298   0.00000  Uiso   1.00
N135   N     0.79336   0.66167   0.49291   0.00000  Uiso   1.00
N136   N     0.79901   0.51234   0.86023   0.00000  Uiso   1.00
N137   N     0.02335   0.94159   0.87354   0.00000  Uiso   1.00
N138   N     0.72159   0.49403   0.43348   0.00000  Uiso   1.00
C139   C     0.42605   0.99844   0.78707   0.00000  Uiso   1.00
C140   C     0.39327   0.00751   0.80908   0.00000  Uiso   1.00
C141   C     0.40570   0.10851   0.86070   0.00000  Uiso   1.00
C142   C     0.37062   0.09864   0.87303   0.00000  Uiso   1.00
C143   C     0.32672   0.12898   0.91301   0.00000  Uiso   1.00
C144   C     0.45510   0.85021   0.81276   0.00000  Uiso   1.00
C145   C     0.51952   0.81895   0.86747   0.00000  Uiso   1.00
C146   C     0.53648   0.67665   0.88289   0.00000  Uiso   1.00
C147   C     0.58857   0.46277   0.92853   0.00000  Uiso   1.00
C148   C     0.37194   0.00248   0.69148   0.00000  Uiso   1.00
C149   C     0.36643   0.09922   0.64421   0.00000  Uiso   1.00
C150   C     0.31338   0.08510   0.55752   0.00000  Uiso   1.00
C151   C     0.23634   0.10764   0.41487   0.00000  Uiso   1.00
C152   C     0.34165   0.80129   0.71717   0.00000  Uiso   1.00
C153   C     0.34743   0.90043   0.77111   0.00000  Uiso   1.00
C154   C     0.31232   0.89040   0.78337   0.00000  Uiso   1.00
C155   C     0.32469   0.99137   0.83500   0.00000  Uiso   1.00
C156   C     0.40926   0.74313   0.77480   0.00000  Uiso   1.00
C157   C     0.42614   0.60084   0.79013   0.00000  Uiso   1.00
C158   C     0.49056   0.56937   0.84485   0.00000  Uiso   1.00
C159   C     0.32609   0.89540   0.65351   0.00000  Uiso   1.00
C160   C     0.27305   0.88111   0.56688   0.00000  Uiso   1.00
C161   C     0.26745   0.97782   0.51949   0.00000  Uiso   1.00
H162   H     0.46174   0.08179   0.81663   0.00000  Uiso   1.00
H163   H     0.44118   0.19136   0.89008   0.00000  Uiso   1.00
H164   H     0.55498   0.90184   0.89683   0.00000  Uiso   1.00
H165   H     0.40191   0.18207   0.67361   0.00000  Uiso   1.00
H166   H     0.39819   0.26558   0.95478   0.00000  Uiso   1.00
H167   H     0.63813   0.65511   0.96901   0.00000  Uiso   1.00
H168   H     0.31536   0.24604   0.49831   0.00000  Uiso   1.00
H169   H     0.30596   0.71792   0.68761   0.00000  Uiso   1.00
H170   H     0.27685   0.80752   0.75398   0.00000  Uiso   1.00
H171   H     0.39065   0.51800   0.76074   0.00000  Uiso   1.00
H172   H     0.23758   0.79823   0.53752   0.00000  Uiso   1.00
H173   H     0.26481   0.95403   0.84433   0.00000  Uiso   1.00
H174   H     0.50476   0.34357   0.85855   0.00000  Uiso   1.00
H175   H     0.18198   0.93449   0.38785   0.00000  Uiso   1.00
O176   O     0.31518   0.17528   0.94556   0.00000  Uiso   1.00
O177   O     0.62997   0.37439   0.96421   0.00000  Uiso   1.00
O178   O     0.20650   0.14967   0.34667   0.00000  Uiso   1.00
N179   N     0.37078   0.17997   0.91967   0.00000  Uiso   1.00
N180   N     0.59512   0.60923   0.93298   0.00000  Uiso   1.00
N181   N     0.29336   0.16167   0.49291   0.00000  Uiso   1.00
N182   N     0.29901   0.01234   0.86023   0.00000  Uiso   1.00
N183   N     0.52335   0.44159   0.87354   0.00000  Uiso   1.00
N184   N     0.22159   0.99403   0.43348   0.00000  Uiso   1.00
C185   C     0.92605   0.50156   0.28707   0.00000  Uiso   1.00
C186   C     0.89327   0.49249   0.30908   0.00000  Uiso   1.00
C187   C     0.90570   0.39149   0.36070   0.00000  Uiso   1.00
C188   C     0.87062   0.40136   0.37303   0.00000  Uiso   1.00
C189   C     0.82672   0.37102   0.41301   0.00000  Uiso   1.00
C190   C     0.95510   0.64979   0.31276   0.00000  Uiso   1.00
C191   C     0.01952   0.68105   0.36747   0.00000  Uiso   1.00
C192   C     0.03648   0.82335   0.38289   0.00000  Uiso   1.00
C193   C     0.08857   0.03723   0.42853   0.00000  Uiso   1.00
C194   C     0.87194   0.49752   0.19148   0.00000  Uiso   1.00
C195   C     0.86643   0.40078   0.14421   0.00000  Uiso   1.00
C196   C     0.81338   0.41490   0.05752   0.00000  Uiso   1.00
C197   C     0.73634   0.39236   0.91487   0.00000  Uiso   1.00
C198   C     0.84165   0.69871   0.21717   0.00000  Uiso   1.00
C199   C     0.84743   0.59957   0.27111   0.00000  Uiso   1.00
C200   C     0.81232   0.60960   0.28337   0.00000  Uiso   1.00
C201   C     0.82469   0.50863   0.33500   0.00000  Uiso   1.00
C202   C     0.90926   0.75687   0.27480   0.00000  Uiso   1.00
C203   C     0.92614   0.89916   0.29013   0.00000  Uiso   1.00
C204   C     0.99056   0.93063   0.34485   0.00000  Uiso   1.00
C205   C     0.82609   0.60460   0.15351   0.00000  Uiso   1.00
C206   C     0.77305   0.61889   0.06688   0.00000  Uiso   1.00
C207   C     0.76745   0.52218   0.01949   0.00000  Uiso   1.00
H208   H     0.96174   0.41821   0.31663   0.00000  Uiso   1.00
H209   H     0.94118   0.30864   0.39008   0.00000  Uiso   1.00
H210   H     0.05498   0.59816   0.39683   0.00000  Uiso   1.00
H211   H     0.90191   0.31793   0.17361   0.00000  Uiso   1.00
H212   H     0.89819   0.23442   0.45478   0.00000  Uiso   1.00
H213   H     0.13813   0.84489   0.46901   0.00000  Uiso   1.00
H214   H     0.81536   0.25396   0.99831   0.00000  Uiso   1.00
H215   H     0.80596   0.78208   0.18761   0.00000  Uiso   1.00
H216   H     0.77685   0.69248   0.25398   0.00000  Uiso   1.00
H217   H     0.89065   0.98200   0.26074   0.00000  Uiso   1.00
H218   H     0.73758   0.70177   0.03752   0.00000  Uiso   1.00
H219   H     0.76481   0.54597   0.34433   0.00000  Uiso   1.00
H220   H     0.00476   0.15643   0.35855   0.00000  Uiso   1.00
H221   H     0.68198   0.56551   0.88785   0.00000  Uiso   1.00
O222   O     0.81518   0.32472   0.44556   0.00000  Uiso   1.00
O223   O     0.12997   0.12561   0.46421   0.00000  Uiso   1.00
O224   O     0.70650   0.35033   0.84667   0.00000  Uiso   1.00
N225   N     0.87078   0.32003   0.41967   0.00000  Uiso   1.00
N226   N     0.09512   0.89077   0.43298   0.00000  Uiso   1.00
N227   N     0.79336   0.33833   0.99291   0.00000  Uiso   1.00
N228   N     0.79901   0.48766   0.36023   0.00000  Uiso   1.00
N229   N     0.02335   0.05841   0.37354   0.00000  Uiso   1.00
N230   N     0.72159   0.50597   0.93348   0.00000  Uiso   1.00
C231   C     0.42605   0.00156   0.28707   0.00000  Uiso   1.00
C232   C     0.39327   0.99249   0.30908   0.00000  Uiso   1.00
C233   C     0.40570   0.89149   0.36070   0.00000  Uiso   1.00
C234   C     0.37062   0.90136   0.37303   0.00000  Uiso   1.00
C235   C     0.32672   0.87102   0.41301   0.00000  Uiso   1.00
C236   C     0.45510   0.14979   0.31276   0.00000  Uiso   1.00
C237   C     0.51952   0.18105   0.36747   0.00000  Uiso   1.00
C238   C     0.53648   0.32335   0.38289   0.00000  Uiso   1.00
C239   C     0.58857   0.53723   0.42853   0.00000  Uiso   1.00
C240   C     0.37194   0.99752   0.19148   0.00000  Uiso   1.00
C241   C     0.36643   0.90078   0.14421   0.00000  Uiso   1.00
C242   C     0.31338   0.91490   0.05752   0.00000  Uiso   1.00
C243   C     0.23634   0.89236   0.91487   0.00000  Uiso   1.00
C244   C     0.34165   0.19871   0.21717   0.00000  Uiso   1.00
C245   C     0.34743   0.09957   0.27111   0.00000  Uiso   1.00
C246   C     0.31232   0.10960   0.28337   0.00000  Uiso   1.00
C247   C     0.32469   0.00863   0.33500   0.00000  Uiso   1.00
C248   C     0.40926   0.25687   0.27480   0.00000  Uiso   1.00
C249   C     0.42614   0.39916   0.29013   0.00000  Uiso   1.00
C250   C     0.49056   0.43063   0.34485   0.00000  Uiso   1.00
C251   C     0.32609   0.10460   0.15351   0.00000  Uiso   1.00
C252   C     0.27305   0.11889   0.06688   0.00000  Uiso   1.00
C253   C     0.26745   0.02218   0.01949   0.00000  Uiso   1.00
H254   H     0.46174   0.91821   0.31663   0.00000  Uiso   1.00
H255   H     0.44118   0.80864   0.39008   0.00000  Uiso   1.00
H256   H     0.55498   0.09816   0.39683   0.00000  Uiso   1.00
H257   H     0.40191   0.81793   0.17361   0.00000  Uiso   1.00
H258   H     0.39819   0.73442   0.45478   0.00000  Uiso   1.00
H259   H     0.63813   0.34489   0.46901   0.00000  Uiso   1.00
H260   H     0.31536   0.75396   0.99831   0.00000  Uiso   1.00
H261   H     0.30596   0.28208   0.18761   0.00000  Uiso   1.00
H262   H     0.27685   0.19248   0.25398   0.00000  Uiso   1.00
H263   H     0.39065   0.48200   0.26074   0.00000  Uiso   1.00
H264   H     0.23758   0.20177   0.03752   0.00000  Uiso   1.00
H265   H     0.26481   0.04597   0.34433   0.00000  Uiso   1.00
H266   H     0.50476   0.65643   0.35855   0.00000  Uiso   1.00
H267   H     0.18198   0.06551   0.88785   0.00000  Uiso   1.00
O268   O     0.31518   0.82472   0.44556   0.00000  Uiso   1.00
O269   O     0.62997   0.62561   0.46421   0.00000  Uiso   1.00
O270   O     0.20650   0.85033   0.84667   0.00000  Uiso   1.00
N271   N     0.37078   0.82003   0.41967   0.00000  Uiso   1.00
N272   N     0.59512   0.39077   0.43298   0.00000  Uiso   1.00
N273   N     0.29336   0.83833   0.99291   0.00000  Uiso   1.00
N274   N     0.29901   0.98766   0.36023   0.00000  Uiso   1.00
N275   N     0.52335   0.55841   0.37354   0.00000  Uiso   1.00
N276   N     0.22159   0.00597   0.93348   0.00000  Uiso   1.00
C277   C     0.07395   0.50156   0.21293   0.00000  Uiso   1.00
C278   C     0.10673   0.49249   0.19092   0.00000  Uiso   1.00
C279   C     0.09430   0.39149   0.13930   0.00000  Uiso   1.00
C280   C     0.12938   0.40136   0.12697   0.00000  Uiso   1.00
C281   C     0.17328   0.37102   0.08699   0.00000  Uiso   1.00
C282   C     0.04490   0.64979   0.18724   0.00000  Uiso   1.00
C283   C     0.98048   0.68105   0.13253   0.00000  Uiso   1.00
C284   C     0.96352   0.82335   0.11711   0.00000  Uiso   1.00
C285   C     0.91143   0.03723   0.07147   0.00000  Uiso   1.00
C286   C     0.12806   0.49752   0.30852   0.00000  Uiso   1.00
C287   C     0.13357   0.40078   0.35579   0.00000  Uiso   1.00
C288   C     0.18662   0.41490   0.44248   0.00000  Uiso   1.00
C289   C     0.26366   0.39236   0.58513   0.00000  Uiso   1.00
C290   C     0.15835   0.69871   0.28283   0.00000  Uiso   1.00
C291   C     0.15257   0.59957   0.22889   0.00000  Uiso   1.00
C292   C     0.18768   0.60960   0.21663   0.00000  Uiso   1.00
C293   C     0.17531   0.50863   0.16500   0.00000  Uiso   1.00
C294   C     0.09074   0.75687   0.22520   0.00000  Uiso   1.00
C295   C     0.07386   0.89916   0.20987   0.00000  Uiso   1.00
C296   C     0.00944   0.93063   0.15515   0.00000  Uiso   1.00
C297   C     0.17391   0.60460   0.34649   0.00000  Uiso   1.00
C298   C     0.22695   0.61889   0.43312   0.00000  Uiso   1.00
C299   C     0.23255   0.52218   0.48051   0.00000  Uiso   1.00
H300   H     0.03826   0.41821   0.18337   0.00000  Uiso   1.00
H301   H     0.05882   0.30864   0.10992   0.00000  Uiso   1.00
H302   H     0.94502   0.59816   0.10317   0.00000  Uiso   1.00
H303   H     0.09809   0.31793   0.32639   0.00000  Uiso   1.00
H304   H     0.10181   0.23442   0.04522   0.00000  Uiso   1.00
H305   H     0.86187   0.84489   0.03099   0.00000  Uiso   1.00
H306   H     0.18464   0.25396   0.50169   0.00000  Uiso   1.00
H307   H     0.19404   0.78208   0.31239   0.00000  Uiso   1.00
H308   H     0.22315   0.69248   0.24602   0.00000  Uiso   1.00
H309   H     0.10935   0.98200   0.23926   0.00000  Uiso   1.00
H310   H     0.26242   0.70177   0.46248   0.00000  Uiso   1.00
H311   H     0.23519   0.54597   0.15567   0.00000  Uiso   1.00
H312   H     0.99524   0.15643   0.14145   0.00000  Uiso   1.00
H313   H     0.31802   0.56551   0.61215   0.00000  Uiso   1.00
O314   O     0.18482   0.32472   0.05444   0.00000  Uiso   1.00
O315   O     0.87003   0.12561   0.03579   0.00000  Uiso   1.00
O316   O     0.29350   0.35033   0.65333   0.00000  Uiso   1.00
N317   N     0.12922   0.32003   0.08033   0.00000  Uiso   1.00
N318   N     0.90488   0.89077   0.06702   0.00000  Uiso   1.00
N319   N     0.20664   0.33833   0.50709   0.00000  Uiso   1.00
N320   N     0.20099   0.48766   0.13977   0.00000  Uiso   1.00
N321   N     0.97665   0.05841   0.12646   0.00000  Uiso   1.00
N322   N     0.27841   0.50597   0.56652   0.00000  Uiso   1.00
C323   C     0.57395   0.00156   0.21293   0.00000  Uiso   1.00
C324   C     0.60673   0.99249   0.19092   0.00000  Uiso   1.00
C325   C     0.59430   0.89149   0.13930   0.00000  Uiso   1.00
C326   C     0.62938   0.90136   0.12697   0.00000  Uiso   1.00
C327   C     0.67328   0.87102   0.08699   0.00000  Uiso   1.00
C328   C     0.54490   0.14979   0.18724   0.00000  Uiso   1.00
C329   C     0.48048   0.18105   0.13253   0.00000  Uiso   1.00
C330   C     0.46352   0.32335   0.11711   0.00000  Uiso   1.00
C331   C     0.41143   0.53723   0.07147   0.00000  Uiso   1.00
C332   C     0.62806   0.99752   0.30852   0.00000  Uiso   1.00
C333   C     0.63357   0.90078   0.35579   0.00000  Uiso   1.00
C334   C     0.68662   0.91490   0.44248   0.00000  Uiso   1.00
C335   C     0.76366   0.89236   0.58513   0.00000  Uiso   1.00
C336   C     0.65835   0.19871   0.28283   0.00000  Uiso   1.00
C337   C     0.65257   0.09957   0.22889   0.00000  Uiso   1.00
C338   C     0.68768   0.10960   0.21663   0.00000  Uiso   1.00
C339   C     0.67531   0.00863   0.16500   0.00000  Uiso   1.00
C340   C     0.59074   0.25687   0.22520   0.00000  Uiso   1.00
C341   C     0.57386   0.39916   0.20987   0.00000  Uiso   1.00
C342   C     0.50944   0.43063   0.15515   0.00000  Uiso   1.00
C343   C     0.67391   0.10460   0.34649   0.00000  Uiso   1.00
C344   C     0.72695   0.11889   0.43312   0.00000  Uiso   1.00
C345   C     0.73255   0.02218   0.48051   0.00000  Uiso   1.00
H346   H     0.53826   0.91821   0.18337   0.00000  Uiso   1.00
H347   H     0.55882   0.80864   0.10992   0.00000  Uiso   1.00
H348   H     0.44502   0.09816   0.10317   0.00000  Uiso   1.00
H349   H     0.59809   0.81793   0.32639   0.00000  Uiso   1.00
H350   H     0.60181   0.73442   0.04522   0.00000  Uiso   1.00
H351   H     0.36187   0.34489   0.03099   0.00000  Uiso   1.00
H352   H     0.68464   0.75396   0.50169   0.00000  Uiso   1.00
H353   H     0.69404   0.28208   0.31239   0.00000  Uiso   1.00
H354   H     0.72315   0.19248   0.24602   0.00000  Uiso   1.00
H355   H     0.60935   0.48200   0.23926   0.00000  Uiso   1.00
H356   H     0.76242   0.20177   0.46248   0.00000  Uiso   1.00
H357   H     0.73519   0.04597   0.15567   0.00000  Uiso   1.00
H358   H     0.49524   0.65643   0.14145   0.00000  Uiso   1.00
H359   H     0.81802   0.06551   0.61215   0.00000  Uiso   1.00
O360   O     0.68482   0.82472   0.05444   0.00000  Uiso   1.00
O361   O     0.37003   0.62561   0.03579   0.00000  Uiso   1.00
O362   O     0.79350   0.85033   0.65333   0.00000  Uiso   1.00
N363   N     0.62922   0.82003   0.08033   0.00000  Uiso   1.00
N364   N     0.40488   0.39077   0.06702   0.00000  Uiso   1.00
N365   N     0.70664   0.83833   0.50709   0.00000  Uiso   1.00
N366   N     0.70099   0.98766   0.13977   0.00000  Uiso   1.00
N367   N     0.47665   0.55841   0.12646   0.00000  Uiso   1.00
N368   N     0.77841   0.00597   0.56652   0.00000  Uiso   1.00
