data_job_03305
_audit_creation_date              2018-12-19
_audit_creation_method            'Materials Studio'
_symmetry_space_group_name_H-M    'P1'
_symmetry_Int_Tables_number       1
_symmetry_cell_setting            triclinic
loop_
_symmetry_equiv_pos_as_xyz
  x,y,z
_cell_length_a                    13.1284
_cell_length_b                    19.7009
_cell_length_c                    27.7124
_cell_angle_alpha                 90.0000
_cell_angle_beta                  123.3918
_cell_angle_gamma                 90.0000
loop_
_atom_site_label
_atom_site_type_symbol
_atom_site_fract_x
_atom_site_fract_y
_atom_site_fract_z
_atom_site_U_iso_or_equiv
_atom_site_adp_type
_atom_site_occupancy
C1     C     0.19150   0.42541   0.94802   0.00000  Uiso   1.00
C2     C     0.21978   0.39001   0.90775   0.00000  Uiso   1.00
C3     C     0.30078   0.33658   0.92267   0.00000  Uiso   1.00
C4     C     0.31387   0.31123   0.87962   0.00000  Uiso   1.00
C5     C     0.36781   0.25216   0.82561   0.00000  Uiso   1.00
C6     C     0.21817   0.50050   0.94680   0.00000  Uiso   1.00
C7     C     0.29779   0.53996   0.99456   0.00000  Uiso   1.00
C8     C     0.30951   0.60763   0.98440   0.00000  Uiso   1.00
C9     C     0.36087   0.72011   0.99103   0.00000  Uiso   1.00
C10    C     0.05381   0.41997   0.91893   0.00000  Uiso   1.00
C11    C     0.99523   0.39174   0.94326   0.00000  Uiso   1.00
C12    C     0.86857   0.39162   0.90963   0.00000  Uiso   1.00
C13    C     0.66473   0.37907   0.87299   0.00000  Uiso   1.00
C14    C     0.07073   0.47540   0.84504   0.00000  Uiso   1.00
C15    C     0.15418   0.41717   0.85181   0.00000  Uiso   1.00
C16    C     0.16715   0.39189   0.80873   0.00000  Uiso   1.00
C17    C     0.24815   0.33843   0.82359   0.00000  Uiso   1.00
C18    C     0.15257   0.52766   0.89087   0.00000  Uiso   1.00
C19    C     0.16417   0.59528   0.88063   0.00000  Uiso   1.00
C20    C     0.24380   0.63484   0.92836   0.00000  Uiso   1.00
C21    C     0.98820   0.44713   0.86300   0.00000  Uiso   1.00
C22    C     0.86161   0.44705   0.82933   0.00000  Uiso   1.00
C23    C     0.80285   0.41883   0.85360   0.00000  Uiso   1.00
H24    H     0.24258   0.40427   0.99156   0.00000  Uiso   1.00
H25    H     0.35154   0.31558   0.96596   0.00000  Uiso   1.00
H26    H     0.34854   0.51894   0.03784   0.00000  Uiso   1.00
H27    H     0.04603   0.37073   0.98655   0.00000  Uiso   1.00
H28    H     0.44344   0.22925   0.91291   0.00000  Uiso   1.00
H29    H     0.43709   0.65804   0.06449   0.00000  Uiso   1.00
H30    H     0.79918   0.34552   0.95632   0.00000  Uiso   1.00
H31    H     0.01965   0.49655   0.80149   0.00000  Uiso   1.00
H32    H     0.11637   0.41292   0.76545   0.00000  Uiso   1.00
H33    H     0.11338   0.61628   0.83734   0.00000  Uiso   1.00
H34    H     0.81087   0.46807   0.78604   0.00000  Uiso   1.00
H35    H     0.25258   0.30825   0.75018   0.00000  Uiso   1.00
H36    H     0.24622   0.73705   0.90175   0.00000  Uiso   1.00
H37    H     0.60832   0.42453   0.79358   0.00000  Uiso   1.00
O38    O     0.41569   0.21209   0.81127   0.00000  Uiso   1.00
O39    O     0.40734   0.77465   0.01014   0.00000  Uiso   1.00
O40    O     0.57042   0.36463   0.86822   0.00000  Uiso   1.00
N41    N     0.38523   0.25931   0.87955   0.00000  Uiso   1.00
N42    N     0.37930   0.66020   0.02127   0.00000  Uiso   1.00
N43    N     0.78291   0.36804   0.92014   0.00000  Uiso   1.00
N44    N     0.28253   0.30182   0.79199   0.00000  Uiso   1.00
N45    N     0.27660   0.70272   0.93370   0.00000  Uiso   1.00
N46    N     0.68021   0.41055   0.83258   0.00000  Uiso   1.00
C47    C     0.69150   0.92541   0.94802   0.00000  Uiso   1.00
C48    C     0.71978   0.89001   0.90775   0.00000  Uiso   1.00
C49    C     0.80078   0.83658   0.92267   0.00000  Uiso   1.00
C50    C     0.81387   0.81123   0.87962   0.00000  Uiso   1.00
C51    C     0.86781   0.75216   0.82561   0.00000  Uiso   1.00
C52    C     0.71817   0.00050   0.94680   0.00000  Uiso   1.00
C53    C     0.79779   0.03996   0.99456   0.00000  Uiso   1.00
C54    C     0.80951   0.10763   0.98440   0.00000  Uiso   1.00
C55    C     0.86087   0.22011   0.99103   0.00000  Uiso   1.00
C56    C     0.55381   0.91997   0.91893   0.00000  Uiso   1.00
C57    C     0.49523   0.89174   0.94326   0.00000  Uiso   1.00
C58    C     0.36857   0.89162   0.90963   0.00000  Uiso   1.00
C59    C     0.16473   0.87907   0.87299   0.00000  Uiso   1.00
C60    C     0.57073   0.97540   0.84504   0.00000  Uiso   1.00
C61    C     0.65418   0.91717   0.85181   0.00000  Uiso   1.00
C62    C     0.66715   0.89189   0.80873   0.00000  Uiso   1.00
C63    C     0.74815   0.83843   0.82359   0.00000  Uiso   1.00
C64    C     0.65257   0.02766   0.89087   0.00000  Uiso   1.00
C65    C     0.66417   0.09528   0.88063   0.00000  Uiso   1.00
C66    C     0.74380   0.13484   0.92836   0.00000  Uiso   1.00
C67    C     0.48820   0.94713   0.86300   0.00000  Uiso   1.00
C68    C     0.36161   0.94705   0.82933   0.00000  Uiso   1.00
C69    C     0.30285   0.91883   0.85360   0.00000  Uiso   1.00
H70    H     0.74258   0.90427   0.99156   0.00000  Uiso   1.00
H71    H     0.85154   0.81558   0.96596   0.00000  Uiso   1.00
H72    H     0.84854   0.01894   0.03784   0.00000  Uiso   1.00
H73    H     0.54603   0.87073   0.98655   0.00000  Uiso   1.00
H74    H     0.94344   0.72925   0.91291   0.00000  Uiso   1.00
H75    H     0.93709   0.15804   0.06449   0.00000  Uiso   1.00
H76    H     0.29918   0.84552   0.95632   0.00000  Uiso   1.00
H77    H     0.51965   0.99655   0.80149   0.00000  Uiso   1.00
H78    H     0.61637   0.91292   0.76545   0.00000  Uiso   1.00
H79    H     0.61338   0.11628   0.83734   0.00000  Uiso   1.00
H80    H     0.31087   0.96807   0.78604   0.00000  Uiso   1.00
H81    H     0.75258   0.80825   0.75018   0.00000  Uiso   1.00
H82    H     0.74622   0.23705   0.90175   0.00000  Uiso   1.00
H83    H     0.10832   0.92453   0.79358   0.00000  Uiso   1.00
O84    O     0.91569   0.71209   0.81127   0.00000  Uiso   1.00
O85    O     0.90734   0.27465   0.01014   0.00000  Uiso   1.00
O86    O     0.07042   0.86463   0.86822   0.00000  Uiso   1.00
N87    N     0.88523   0.75931   0.87955   0.00000  Uiso   1.00
N88    N     0.87930   0.16020   0.02127   0.00000  Uiso   1.00
N89    N     0.28291   0.86804   0.92014   0.00000  Uiso   1.00
N90    N     0.78253   0.80182   0.79199   0.00000  Uiso   1.00
N91    N     0.77660   0.20272   0.93370   0.00000  Uiso   1.00
N92    N     0.18021   0.91055   0.83258   0.00000  Uiso   1.00
C93    C     0.80850   0.42541   0.55198   0.00000  Uiso   1.00
C94    C     0.78022   0.39001   0.59225   0.00000  Uiso   1.00
C95    C     0.69922   0.33658   0.57733   0.00000  Uiso   1.00
C96    C     0.68613   0.31123   0.62038   0.00000  Uiso   1.00
C97    C     0.63219   0.25216   0.67439   0.00000  Uiso   1.00
C98    C     0.78183   0.50050   0.55320   0.00000  Uiso   1.00
C99    C     0.70221   0.53996   0.50544   0.00000  Uiso   1.00
C100   C     0.69049   0.60763   0.51560   0.00000  Uiso   1.00
C101   C     0.63913   0.72011   0.50897   0.00000  Uiso   1.00
C102   C     0.94619   0.41997   0.58107   0.00000  Uiso   1.00
C103   C     0.00477   0.39174   0.55674   0.00000  Uiso   1.00
C104   C     0.13143   0.39162   0.59037   0.00000  Uiso   1.00
C105   C     0.33527   0.37907   0.62701   0.00000  Uiso   1.00
C106   C     0.92927   0.47540   0.65496   0.00000  Uiso   1.00
C107   C     0.84582   0.41717   0.64819   0.00000  Uiso   1.00
C108   C     0.83285   0.39189   0.69127   0.00000  Uiso   1.00
C109   C     0.75185   0.33843   0.67641   0.00000  Uiso   1.00
C110   C     0.84743   0.52766   0.60913   0.00000  Uiso   1.00
C111   C     0.83583   0.59528   0.61937   0.00000  Uiso   1.00
C112   C     0.75620   0.63484   0.57164   0.00000  Uiso   1.00
C113   C     0.01180   0.44713   0.63700   0.00000  Uiso   1.00
C114   C     0.13839   0.44705   0.67067   0.00000  Uiso   1.00
C115   C     0.19715   0.41883   0.64640   0.00000  Uiso   1.00
H116   H     0.75742   0.40427   0.50844   0.00000  Uiso   1.00
H117   H     0.64846   0.31558   0.53404   0.00000  Uiso   1.00
H118   H     0.65146   0.51894   0.46216   0.00000  Uiso   1.00
H119   H     0.95397   0.37073   0.51345   0.00000  Uiso   1.00
H120   H     0.55656   0.22925   0.58709   0.00000  Uiso   1.00
H121   H     0.56291   0.65804   0.43551   0.00000  Uiso   1.00
H122   H     0.20082   0.34552   0.54368   0.00000  Uiso   1.00
H123   H     0.98035   0.49655   0.69851   0.00000  Uiso   1.00
H124   H     0.88363   0.41292   0.73455   0.00000  Uiso   1.00
H125   H     0.88662   0.61628   0.66266   0.00000  Uiso   1.00
H126   H     0.18913   0.46807   0.71396   0.00000  Uiso   1.00
H127   H     0.74742   0.30825   0.74982   0.00000  Uiso   1.00
H128   H     0.75378   0.73705   0.59825   0.00000  Uiso   1.00
H129   H     0.39168   0.42453   0.70642   0.00000  Uiso   1.00
O130   O     0.58431   0.21209   0.68873   0.00000  Uiso   1.00
O131   O     0.59266   0.77465   0.48986   0.00000  Uiso   1.00
O132   O     0.42958   0.36463   0.63178   0.00000  Uiso   1.00
N133   N     0.61477   0.25931   0.62045   0.00000  Uiso   1.00
N134   N     0.62070   0.66020   0.47873   0.00000  Uiso   1.00
N135   N     0.21709   0.36804   0.57986   0.00000  Uiso   1.00
N136   N     0.71747   0.30182   0.70801   0.00000  Uiso   1.00
N137   N     0.72340   0.70272   0.56630   0.00000  Uiso   1.00
N138   N     0.31979   0.41055   0.66742   0.00000  Uiso   1.00
C139   C     0.30850   0.92541   0.55198   0.00000  Uiso   1.00
C140   C     0.28022   0.89001   0.59225   0.00000  Uiso   1.00
C141   C     0.19922   0.83658   0.57733   0.00000  Uiso   1.00
C142   C     0.18613   0.81123   0.62038   0.00000  Uiso   1.00
C143   C     0.13219   0.75216   0.67439   0.00000  Uiso   1.00
C144   C     0.28183   0.00050   0.55320   0.00000  Uiso   1.00
C145   C     0.20221   0.03996   0.50544   0.00000  Uiso   1.00
C146   C     0.19049   0.10763   0.51560   0.00000  Uiso   1.00
C147   C     0.13913   0.22011   0.50897   0.00000  Uiso   1.00
C148   C     0.44619   0.91997   0.58107   0.00000  Uiso   1.00
C149   C     0.50477   0.89174   0.55674   0.00000  Uiso   1.00
C150   C     0.63143   0.89162   0.59037   0.00000  Uiso   1.00
C151   C     0.83527   0.87907   0.62701   0.00000  Uiso   1.00
C152   C     0.42927   0.97540   0.65496   0.00000  Uiso   1.00
C153   C     0.34582   0.91717   0.64819   0.00000  Uiso   1.00
C154   C     0.33285   0.89189   0.69127   0.00000  Uiso   1.00
C155   C     0.25185   0.83843   0.67641   0.00000  Uiso   1.00
C156   C     0.34743   0.02766   0.60913   0.00000  Uiso   1.00
C157   C     0.33583   0.09528   0.61937   0.00000  Uiso   1.00
C158   C     0.25620   0.13484   0.57164   0.00000  Uiso   1.00
C159   C     0.51180   0.94713   0.63700   0.00000  Uiso   1.00
C160   C     0.63839   0.94705   0.67067   0.00000  Uiso   1.00
C161   C     0.69715   0.91883   0.64640   0.00000  Uiso   1.00
H162   H     0.25742   0.90427   0.50844   0.00000  Uiso   1.00
H163   H     0.14846   0.81558   0.53404   0.00000  Uiso   1.00
H164   H     0.15146   0.01894   0.46216   0.00000  Uiso   1.00
H165   H     0.45397   0.87073   0.51345   0.00000  Uiso   1.00
H166   H     0.05656   0.72925   0.58709   0.00000  Uiso   1.00
H167   H     0.06291   0.15804   0.43551   0.00000  Uiso   1.00
H168   H     0.70082   0.84552   0.54368   0.00000  Uiso   1.00
H169   H     0.48035   0.99655   0.69851   0.00000  Uiso   1.00
H170   H     0.38363   0.91292   0.73455   0.00000  Uiso   1.00
H171   H     0.38662   0.11628   0.66266   0.00000  Uiso   1.00
H172   H     0.68913   0.96807   0.71396   0.00000  Uiso   1.00
H173   H     0.24742   0.80825   0.74982   0.00000  Uiso   1.00
H174   H     0.25378   0.23705   0.59825   0.00000  Uiso   1.00
H175   H     0.89168   0.92453   0.70642   0.00000  Uiso   1.00
O176   O     0.08431   0.71209   0.68873   0.00000  Uiso   1.00
O177   O     0.09266   0.27465   0.48986   0.00000  Uiso   1.00
O178   O     0.92958   0.86463   0.63178   0.00000  Uiso   1.00
N179   N     0.11477   0.75931   0.62045   0.00000  Uiso   1.00
N180   N     0.12070   0.16020   0.47873   0.00000  Uiso   1.00
N181   N     0.71709   0.86804   0.57986   0.00000  Uiso   1.00
N182   N     0.21747   0.80182   0.70801   0.00000  Uiso   1.00
N183   N     0.22340   0.20272   0.56630   0.00000  Uiso   1.00
N184   N     0.81979   0.91055   0.66742   0.00000  Uiso   1.00
C185   C     0.80850   0.57459   0.05198   0.00000  Uiso   1.00
C186   C     0.78022   0.60999   0.09225   0.00000  Uiso   1.00
C187   C     0.69922   0.66342   0.07733   0.00000  Uiso   1.00
C188   C     0.68613   0.68877   0.12038   0.00000  Uiso   1.00
C189   C     0.63219   0.74784   0.17439   0.00000  Uiso   1.00
C190   C     0.78183   0.49950   0.05320   0.00000  Uiso   1.00
C191   C     0.70221   0.46004   0.00544   0.00000  Uiso   1.00
C192   C     0.69049   0.39237   0.01560   0.00000  Uiso   1.00
C193   C     0.63913   0.27989   0.00897   0.00000  Uiso   1.00
C194   C     0.94619   0.58003   0.08107   0.00000  Uiso   1.00
C195   C     0.00477   0.60826   0.05674   0.00000  Uiso   1.00
C196   C     0.13143   0.60838   0.09037   0.00000  Uiso   1.00
C197   C     0.33527   0.62093   0.12701   0.00000  Uiso   1.00
C198   C     0.92927   0.52460   0.15496   0.00000  Uiso   1.00
C199   C     0.84582   0.58283   0.14819   0.00000  Uiso   1.00
C200   C     0.83285   0.60811   0.19127   0.00000  Uiso   1.00
C201   C     0.75185   0.66157   0.17641   0.00000  Uiso   1.00
C202   C     0.84743   0.47234   0.10913   0.00000  Uiso   1.00
C203   C     0.83583   0.40472   0.11937   0.00000  Uiso   1.00
C204   C     0.75620   0.36516   0.07164   0.00000  Uiso   1.00
C205   C     0.01180   0.55287   0.13700   0.00000  Uiso   1.00
C206   C     0.13839   0.55295   0.17067   0.00000  Uiso   1.00
C207   C     0.19715   0.58117   0.14640   0.00000  Uiso   1.00
H208   H     0.75742   0.59573   0.00844   0.00000  Uiso   1.00
H209   H     0.64846   0.68442   0.03404   0.00000  Uiso   1.00
H210   H     0.65146   0.48106   0.96216   0.00000  Uiso   1.00
H211   H     0.95397   0.62927   0.01345   0.00000  Uiso   1.00
H212   H     0.55656   0.77075   0.08709   0.00000  Uiso   1.00
H213   H     0.56291   0.34196   0.93551   0.00000  Uiso   1.00
H214   H     0.20082   0.65448   0.04368   0.00000  Uiso   1.00
H215   H     0.98035   0.50345   0.19851   0.00000  Uiso   1.00
H216   H     0.88363   0.58708   0.23455   0.00000  Uiso   1.00
H217   H     0.88662   0.38372   0.16266   0.00000  Uiso   1.00
H218   H     0.18913   0.53193   0.21396   0.00000  Uiso   1.00
H219   H     0.74742   0.69175   0.24982   0.00000  Uiso   1.00
H220   H     0.75378   0.26295   0.09825   0.00000  Uiso   1.00
H221   H     0.39168   0.57547   0.20642   0.00000  Uiso   1.00
O222   O     0.58431   0.78791   0.18873   0.00000  Uiso   1.00
O223   O     0.59266   0.22535   0.98986   0.00000  Uiso   1.00
O224   O     0.42958   0.63537   0.13178   0.00000  Uiso   1.00
N225   N     0.61477   0.74069   0.12045   0.00000  Uiso   1.00
N226   N     0.62070   0.33980   0.97873   0.00000  Uiso   1.00
N227   N     0.21709   0.63196   0.07986   0.00000  Uiso   1.00
N228   N     0.71747   0.69818   0.20801   0.00000  Uiso   1.00
N229   N     0.72340   0.29728   0.06630   0.00000  Uiso   1.00
N230   N     0.31979   0.58945   0.16742   0.00000  Uiso   1.00
C231   C     0.30850   0.07459   0.05198   0.00000  Uiso   1.00
C232   C     0.28022   0.10999   0.09225   0.00000  Uiso   1.00
C233   C     0.19922   0.16342   0.07733   0.00000  Uiso   1.00
C234   C     0.18613   0.18877   0.12038   0.00000  Uiso   1.00
C235   C     0.13219   0.24784   0.17439   0.00000  Uiso   1.00
C236   C     0.28183   0.99950   0.05320   0.00000  Uiso   1.00
C237   C     0.20221   0.96004   0.00544   0.00000  Uiso   1.00
C238   C     0.19049   0.89237   0.01560   0.00000  Uiso   1.00
C239   C     0.13913   0.77989   0.00897   0.00000  Uiso   1.00
C240   C     0.44619   0.08003   0.08107   0.00000  Uiso   1.00
C241   C     0.50477   0.10826   0.05674   0.00000  Uiso   1.00
C242   C     0.63143   0.10838   0.09037   0.00000  Uiso   1.00
C243   C     0.83527   0.12093   0.12701   0.00000  Uiso   1.00
C244   C     0.42927   0.02460   0.15496   0.00000  Uiso   1.00
C245   C     0.34582   0.08283   0.14819   0.00000  Uiso   1.00
C246   C     0.33285   0.10811   0.19127   0.00000  Uiso   1.00
C247   C     0.25185   0.16157   0.17641   0.00000  Uiso   1.00
C248   C     0.34743   0.97234   0.10913   0.00000  Uiso   1.00
C249   C     0.33583   0.90472   0.11937   0.00000  Uiso   1.00
C250   C     0.25620   0.86516   0.07164   0.00000  Uiso   1.00
C251   C     0.51180   0.05287   0.13700   0.00000  Uiso   1.00
C252   C     0.63839   0.05295   0.17067   0.00000  Uiso   1.00
C253   C     0.69715   0.08117   0.14640   0.00000  Uiso   1.00
H254   H     0.25742   0.09573   0.00844   0.00000  Uiso   1.00
H255   H     0.14846   0.18442   0.03404   0.00000  Uiso   1.00
H256   H     0.15146   0.98106   0.96216   0.00000  Uiso   1.00
H257   H     0.45397   0.12927   0.01345   0.00000  Uiso   1.00
H258   H     0.05656   0.27075   0.08709   0.00000  Uiso   1.00
H259   H     0.06291   0.84196   0.93551   0.00000  Uiso   1.00
H260   H     0.70082   0.15448   0.04368   0.00000  Uiso   1.00
H261   H     0.48035   0.00345   0.19851   0.00000  Uiso   1.00
H262   H     0.38363   0.08708   0.23455   0.00000  Uiso   1.00
H263   H     0.38662   0.88372   0.16266   0.00000  Uiso   1.00
H264   H     0.68913   0.03193   0.21396   0.00000  Uiso   1.00
H265   H     0.24742   0.19175   0.24982   0.00000  Uiso   1.00
H266   H     0.25378   0.76295   0.09825   0.00000  Uiso   1.00
H267   H     0.89168   0.07547   0.20642   0.00000  Uiso   1.00
O268   O     0.08431   0.28791   0.18873   0.00000  Uiso   1.00
O269   O     0.09266   0.72535   0.98986   0.00000  Uiso   1.00
O270   O     0.92958   0.13537   0.13178   0.00000  Uiso   1.00
N271   N     0.11477   0.24069   0.12045   0.00000  Uiso   1.00
N272   N     0.12070   0.83980   0.97873   0.00000  Uiso   1.00
N273   N     0.71709   0.13196   0.07986   0.00000  Uiso   1.00
N274   N     0.21747   0.19818   0.20801   0.00000  Uiso   1.00
N275   N     0.22340   0.79728   0.06630   0.00000  Uiso   1.00
N276   N     0.81979   0.08945   0.16742   0.00000  Uiso   1.00
C277   C     0.19150   0.57459   0.44802   0.00000  Uiso   1.00
C278   C     0.21978   0.60999   0.40775   0.00000  Uiso   1.00
C279   C     0.30078   0.66342   0.42267   0.00000  Uiso   1.00
C280   C     0.31387   0.68877   0.37962   0.00000  Uiso   1.00
C281   C     0.36781   0.74784   0.32561   0.00000  Uiso   1.00
C282   C     0.21817   0.49950   0.44680   0.00000  Uiso   1.00
C283   C     0.29779   0.46004   0.49456   0.00000  Uiso   1.00
C284   C     0.30951   0.39237   0.48440   0.00000  Uiso   1.00
C285   C     0.36087   0.27989   0.49103   0.00000  Uiso   1.00
C286   C     0.05381   0.58003   0.41893   0.00000  Uiso   1.00
C287   C     0.99523   0.60826   0.44326   0.00000  Uiso   1.00
C288   C     0.86857   0.60838   0.40963   0.00000  Uiso   1.00
C289   C     0.66473   0.62093   0.37299   0.00000  Uiso   1.00
C290   C     0.07073   0.52460   0.34504   0.00000  Uiso   1.00
C291   C     0.15418   0.58283   0.35181   0.00000  Uiso   1.00
C292   C     0.16715   0.60811   0.30873   0.00000  Uiso   1.00
C293   C     0.24815   0.66157   0.32359   0.00000  Uiso   1.00
C294   C     0.15257   0.47234   0.39087   0.00000  Uiso   1.00
C295   C     0.16417   0.40472   0.38063   0.00000  Uiso   1.00
C296   C     0.24380   0.36516   0.42836   0.00000  Uiso   1.00
C297   C     0.98820   0.55287   0.36300   0.00000  Uiso   1.00
C298   C     0.86161   0.55295   0.32933   0.00000  Uiso   1.00
C299   C     0.80285   0.58117   0.35360   0.00000  Uiso   1.00
H300   H     0.24258   0.59573   0.49156   0.00000  Uiso   1.00
H301   H     0.35154   0.68442   0.46596   0.00000  Uiso   1.00
H302   H     0.34854   0.48106   0.53784   0.00000  Uiso   1.00
H303   H     0.04603   0.62927   0.48655   0.00000  Uiso   1.00
H304   H     0.44344   0.77075   0.41291   0.00000  Uiso   1.00
H305   H     0.43709   0.34196   0.56449   0.00000  Uiso   1.00
H306   H     0.79918   0.65448   0.45632   0.00000  Uiso   1.00
H307   H     0.01965   0.50345   0.30149   0.00000  Uiso   1.00
H308   H     0.11637   0.58708   0.26545   0.00000  Uiso   1.00
H309   H     0.11338   0.38372   0.33734   0.00000  Uiso   1.00
H310   H     0.81087   0.53193   0.28604   0.00000  Uiso   1.00
H311   H     0.25258   0.69175   0.25018   0.00000  Uiso   1.00
H312   H     0.24622   0.26295   0.40175   0.00000  Uiso   1.00
H313   H     0.60832   0.57547   0.29358   0.00000  Uiso   1.00
O314   O     0.41569   0.78791   0.31127   0.00000  Uiso   1.00
O315   O     0.40734   0.22535   0.51014   0.00000  Uiso   1.00
O316   O     0.57042   0.63537   0.36822   0.00000  Uiso   1.00
N317   N     0.38523   0.74069   0.37955   0.00000  Uiso   1.00
N318   N     0.37930   0.33980   0.52127   0.00000  Uiso   1.00
N319   N     0.78291   0.63196   0.42014   0.00000  Uiso   1.00
N320   N     0.28253   0.69818   0.29199   0.00000  Uiso   1.00
N321   N     0.27660   0.29728   0.43370   0.00000  Uiso   1.00
N322   N     0.68021   0.58945   0.33258   0.00000  Uiso   1.00
C323   C     0.69150   0.07459   0.44802   0.00000  Uiso   1.00
C324   C     0.71978   0.10999   0.40775   0.00000  Uiso   1.00
C325   C     0.80078   0.16342   0.42267   0.00000  Uiso   1.00
C326   C     0.81387   0.18877   0.37962   0.00000  Uiso   1.00
C327   C     0.86781   0.24784   0.32561   0.00000  Uiso   1.00
C328   C     0.71817   0.99950   0.44680   0.00000  Uiso   1.00
C329   C     0.79779   0.96004   0.49456   0.00000  Uiso   1.00
C330   C     0.80951   0.89237   0.48440   0.00000  Uiso   1.00
C331   C     0.86087   0.77989   0.49103   0.00000  Uiso   1.00
C332   C     0.55381   0.08003   0.41893   0.00000  Uiso   1.00
C333   C     0.49523   0.10826   0.44326   0.00000  Uiso   1.00
C334   C     0.36857   0.10838   0.40963   0.00000  Uiso   1.00
C335   C     0.16473   0.12093   0.37299   0.00000  Uiso   1.00
C336   C     0.57073   0.02460   0.34504   0.00000  Uiso   1.00
C337   C     0.65418   0.08283   0.35181   0.00000  Uiso   1.00
C338   C     0.66715   0.10811   0.30873   0.00000  Uiso   1.00
C339   C     0.74815   0.16157   0.32359   0.00000  Uiso   1.00
C340   C     0.65257   0.97234   0.39087   0.00000  Uiso   1.00
C341   C     0.66417   0.90472   0.38063   0.00000  Uiso   1.00
C342   C     0.74380   0.86516   0.42836   0.00000  Uiso   1.00
C343   C     0.48820   0.05287   0.36300   0.00000  Uiso   1.00
C344   C     0.36161   0.05295   0.32933   0.00000  Uiso   1.00
C345   C     0.30285   0.08117   0.35360   0.00000  Uiso   1.00
H346   H     0.74258   0.09573   0.49156   0.00000  Uiso   1.00
H347   H     0.85154   0.18442   0.46596   0.00000  Uiso   1.00
H348   H     0.84854   0.98106   0.53784   0.00000  Uiso   1.00
H349   H     0.54603   0.12927   0.48655   0.00000  Uiso   1.00
H350   H     0.94344   0.27075   0.41291   0.00000  Uiso   1.00
H351   H     0.93709   0.84196   0.56449   0.00000  Uiso   1.00
H352   H     0.29918   0.15448   0.45632   0.00000  Uiso   1.00
H353   H     0.51965   0.00345   0.30149   0.00000  Uiso   1.00
H354   H     0.61637   0.08708   0.26545   0.00000  Uiso   1.00
H355   H     0.61338   0.88372   0.33734   0.00000  Uiso   1.00
H356   H     0.31087   0.03193   0.28604   0.00000  Uiso   1.00
H357   H     0.75258   0.19175   0.25018   0.00000  Uiso   1.00
H358   H     0.74622   0.76295   0.40175   0.00000  Uiso   1.00
H359   H     0.10832   0.07547   0.29358   0.00000  Uiso   1.00
O360   O     0.91569   0.28791   0.31127   0.00000  Uiso   1.00
O361   O     0.90734   0.72535   0.51014   0.00000  Uiso   1.00
O362   O     0.07042   0.13537   0.36822   0.00000  Uiso   1.00
N363   N     0.88523   0.24069   0.37955   0.00000  Uiso   1.00
N364   N     0.87930   0.83980   0.52127   0.00000  Uiso   1.00
N365   N     0.28291   0.13196   0.42014   0.00000  Uiso   1.00
N366   N     0.78253   0.19818   0.29199   0.00000  Uiso   1.00
N367   N     0.77660   0.79728   0.43370   0.00000  Uiso   1.00
N368   N     0.18021   0.08945   0.33258   0.00000  Uiso   1.00
