data_job_02171
_audit_creation_date              2018-12-19
_audit_creation_method            'Materials Studio'
_symmetry_space_group_name_H-M    'P1'
_symmetry_Int_Tables_number       1
_symmetry_cell_setting            triclinic
loop_
_symmetry_equiv_pos_as_xyz
  x,y,z
_cell_length_a                    14.5624
_cell_length_b                    19.2371
_cell_length_c                    24.2704
_cell_angle_alpha                 90.0000
_cell_angle_beta                  90.0000
_cell_angle_gamma                 90.0000
loop_
_atom_site_label
_atom_site_type_symbol
_atom_site_fract_x
_atom_site_fract_y
_atom_site_fract_z
_atom_site_U_iso_or_equiv
_atom_site_adp_type
_atom_site_occupancy
C1     C     0.70443   0.19281   0.40527   0.00000  Uiso   1.00
C2     C     0.70167   0.14014   0.35835   0.00000  Uiso   1.00
C3     C     0.77745   0.11319   0.33104   0.00000  Uiso   1.00
C4     C     0.76049   0.06560   0.28925   0.00000  Uiso   1.00
C5     C     0.76983   0.98686   0.21849   0.00000  Uiso   1.00
C6     C     0.64536   0.25391   0.38667   0.00000  Uiso   1.00
C7     C     0.67379   0.32263   0.38317   0.00000  Uiso   1.00
C8     C     0.60941   0.37082   0.36522   0.00000  Uiso   1.00
C9     C     0.53131   0.46873   0.33846   0.00000  Uiso   1.00
C10    C     0.65327   0.15931   0.45323   0.00000  Uiso   1.00
C11    C     0.68833   0.14851   0.50571   0.00000  Uiso   1.00
C12    C     0.63061   0.11706   0.54381   0.00000  Uiso   1.00
C13    C     0.56478   0.06809   0.62040   0.00000  Uiso   1.00
C14    C     0.53955   0.15621   0.37964   0.00000  Uiso   1.00
C15    C     0.61211   0.12026   0.34443   0.00000  Uiso   1.00
C16    C     0.59503   0.07269   0.30268   0.00000  Uiso   1.00
C17    C     0.67077   0.04568   0.27530   0.00000  Uiso   1.00
C18    C     0.55581   0.23403   0.37274   0.00000  Uiso   1.00
C19    C     0.49137   0.28213   0.35481   0.00000  Uiso   1.00
C20    C     0.51970   0.35090   0.35128   0.00000  Uiso   1.00
C21    C     0.56371   0.13943   0.43931   0.00000  Uiso   1.00
C22    C     0.50592   0.10800   0.47734   0.00000  Uiso   1.00
C23    C     0.54089   0.09715   0.52986   0.00000  Uiso   1.00
H24    H     0.77415   0.20830   0.41611   0.00000  Uiso   1.00
H25    H     0.84674   0.12860   0.34182   0.00000  Uiso   1.00
H26    H     0.74309   0.33800   0.39395   0.00000  Uiso   1.00
H27    H     0.75764   0.16390   0.51647   0.00000  Uiso   1.00
H28    H     0.88773   0.03148   0.25330   0.00000  Uiso   1.00
H29    H     0.66917   0.47303   0.36323   0.00000  Uiso   1.00
H30    H     0.69984   0.10591   0.62159   0.00000  Uiso   1.00
H31    H     0.46983   0.14073   0.36880   0.00000  Uiso   1.00
H32    H     0.52572   0.05732   0.29191   0.00000  Uiso   1.00
H33    H     0.42207   0.26673   0.34404   0.00000  Uiso   1.00
H34    H     0.43662   0.09262   0.46655   0.00000  Uiso   1.00
H35    H     0.62718   0.97363   0.21279   0.00000  Uiso   1.00
H36    H     0.40862   0.41519   0.32272   0.00000  Uiso   1.00
H37    H     0.43929   0.04806   0.58108   0.00000  Uiso   1.00
O38    O     0.79972   0.94892   0.18331   0.00000  Uiso   1.00
O39    O     0.51297   0.52822   0.32754   0.00000  Uiso   1.00
O40    O     0.55321   0.04655   0.66650   0.00000  Uiso   1.00
N41    N     0.81874   0.02930   0.25433   0.00000  Uiso   1.00
N42    N     0.61440   0.44213   0.35710   0.00000  Uiso   1.00
N43    N     0.64307   0.09891   0.59864   0.00000  Uiso   1.00
N44    N     0.67854   0.99817   0.23253   0.00000  Uiso   1.00
N45    N     0.47420   0.41100   0.33530   0.00000  Uiso   1.00
N46    N     0.50287   0.06778   0.57684   0.00000  Uiso   1.00
C47    C     0.79557   0.30719   0.90527   0.00000  Uiso   1.00
C48    C     0.79833   0.35986   0.85835   0.00000  Uiso   1.00
C49    C     0.72255   0.38681   0.83104   0.00000  Uiso   1.00
C50    C     0.73951   0.43440   0.78925   0.00000  Uiso   1.00
C51    C     0.73017   0.51314   0.71849   0.00000  Uiso   1.00
C52    C     0.85464   0.24609   0.88667   0.00000  Uiso   1.00
C53    C     0.82621   0.17737   0.88317   0.00000  Uiso   1.00
C54    C     0.89059   0.12918   0.86522   0.00000  Uiso   1.00
C55    C     0.96869   0.03127   0.83846   0.00000  Uiso   1.00
C56    C     0.84673   0.34069   0.95323   0.00000  Uiso   1.00
C57    C     0.81167   0.35149   0.00571   0.00000  Uiso   1.00
C58    C     0.86939   0.38294   0.04381   0.00000  Uiso   1.00
C59    C     0.93522   0.43191   0.12040   0.00000  Uiso   1.00
C60    C     0.96045   0.34379   0.87964   0.00000  Uiso   1.00
C61    C     0.88789   0.37974   0.84443   0.00000  Uiso   1.00
C62    C     0.90497   0.42731   0.80268   0.00000  Uiso   1.00
C63    C     0.82923   0.45432   0.77530   0.00000  Uiso   1.00
C64    C     0.94419   0.26597   0.87274   0.00000  Uiso   1.00
C65    C     0.00863   0.21787   0.85481   0.00000  Uiso   1.00
C66    C     0.98030   0.14910   0.85128   0.00000  Uiso   1.00
C67    C     0.93629   0.36057   0.93931   0.00000  Uiso   1.00
C68    C     0.99408   0.39200   0.97734   0.00000  Uiso   1.00
C69    C     0.95911   0.40285   0.02986   0.00000  Uiso   1.00
H70    H     0.72585   0.29170   0.91611   0.00000  Uiso   1.00
H71    H     0.65326   0.37140   0.84182   0.00000  Uiso   1.00
H72    H     0.75691   0.16200   0.89395   0.00000  Uiso   1.00
H73    H     0.74236   0.33610   0.01647   0.00000  Uiso   1.00
H74    H     0.61227   0.46852   0.75330   0.00000  Uiso   1.00
H75    H     0.83083   0.02697   0.86323   0.00000  Uiso   1.00
H76    H     0.80016   0.39409   0.12159   0.00000  Uiso   1.00
H77    H     0.03017   0.35927   0.86880   0.00000  Uiso   1.00
H78    H     0.97428   0.44268   0.79191   0.00000  Uiso   1.00
H79    H     0.07793   0.23327   0.84404   0.00000  Uiso   1.00
H80    H     0.06338   0.40738   0.96655   0.00000  Uiso   1.00
H81    H     0.87282   0.52637   0.71279   0.00000  Uiso   1.00
H82    H     0.09138   0.08481   0.82272   0.00000  Uiso   1.00
H83    H     0.06071   0.45194   0.08108   0.00000  Uiso   1.00
O84    O     0.70028   0.55108   0.68331   0.00000  Uiso   1.00
O85    O     0.98703   0.97178   0.82754   0.00000  Uiso   1.00
O86    O     0.94679   0.45345   0.16650   0.00000  Uiso   1.00
N87    N     0.68126   0.47070   0.75433   0.00000  Uiso   1.00
N88    N     0.88560   0.05787   0.85710   0.00000  Uiso   1.00
N89    N     0.85693   0.40109   0.09864   0.00000  Uiso   1.00
N90    N     0.82146   0.50183   0.73253   0.00000  Uiso   1.00
N91    N     0.02580   0.08900   0.83530   0.00000  Uiso   1.00
N92    N     0.99713   0.43222   0.07684   0.00000  Uiso   1.00
C93    C     0.29557   0.19281   0.09473   0.00000  Uiso   1.00
C94    C     0.29833   0.14014   0.14165   0.00000  Uiso   1.00
C95    C     0.22255   0.11319   0.16896   0.00000  Uiso   1.00
C96    C     0.23951   0.06560   0.21075   0.00000  Uiso   1.00
C97    C     0.23017   0.98686   0.28151   0.00000  Uiso   1.00
C98    C     0.35464   0.25391   0.11333   0.00000  Uiso   1.00
C99    C     0.32621   0.32263   0.11683   0.00000  Uiso   1.00
C100   C     0.39059   0.37082   0.13478   0.00000  Uiso   1.00
C101   C     0.46869   0.46873   0.16154   0.00000  Uiso   1.00
C102   C     0.34673   0.15931   0.04677   0.00000  Uiso   1.00
C103   C     0.31167   0.14851   0.99429   0.00000  Uiso   1.00
C104   C     0.36939   0.11706   0.95619   0.00000  Uiso   1.00
C105   C     0.43522   0.06809   0.87960   0.00000  Uiso   1.00
C106   C     0.46045   0.15621   0.12036   0.00000  Uiso   1.00
C107   C     0.38789   0.12026   0.15557   0.00000  Uiso   1.00
C108   C     0.40497   0.07269   0.19732   0.00000  Uiso   1.00
C109   C     0.32923   0.04568   0.22470   0.00000  Uiso   1.00
C110   C     0.44419   0.23403   0.12726   0.00000  Uiso   1.00
C111   C     0.50863   0.28213   0.14519   0.00000  Uiso   1.00
C112   C     0.48030   0.35090   0.14872   0.00000  Uiso   1.00
C113   C     0.43629   0.13943   0.06069   0.00000  Uiso   1.00
C114   C     0.49408   0.10800   0.02266   0.00000  Uiso   1.00
C115   C     0.45911   0.09715   0.97014   0.00000  Uiso   1.00
H116   H     0.22585   0.20830   0.08389   0.00000  Uiso   1.00
H117   H     0.15326   0.12860   0.15818   0.00000  Uiso   1.00
H118   H     0.25691   0.33800   0.10605   0.00000  Uiso   1.00
H119   H     0.24236   0.16390   0.98353   0.00000  Uiso   1.00
H120   H     0.11227   0.03148   0.24670   0.00000  Uiso   1.00
H121   H     0.33083   0.47303   0.13677   0.00000  Uiso   1.00
H122   H     0.30016   0.10591   0.87841   0.00000  Uiso   1.00
H123   H     0.53017   0.14073   0.13120   0.00000  Uiso   1.00
H124   H     0.47428   0.05732   0.20809   0.00000  Uiso   1.00
H125   H     0.57793   0.26673   0.15596   0.00000  Uiso   1.00
H126   H     0.56338   0.09262   0.03345   0.00000  Uiso   1.00
H127   H     0.37282   0.97363   0.28721   0.00000  Uiso   1.00
H128   H     0.59138   0.41519   0.17728   0.00000  Uiso   1.00
H129   H     0.56071   0.04806   0.91892   0.00000  Uiso   1.00
O130   O     0.20028   0.94892   0.31669   0.00000  Uiso   1.00
O131   O     0.48703   0.52822   0.17246   0.00000  Uiso   1.00
O132   O     0.44679   0.04655   0.83350   0.00000  Uiso   1.00
N133   N     0.18126   0.02930   0.24567   0.00000  Uiso   1.00
N134   N     0.38560   0.44213   0.14290   0.00000  Uiso   1.00
N135   N     0.35693   0.09891   0.90136   0.00000  Uiso   1.00
N136   N     0.32146   0.99817   0.26747   0.00000  Uiso   1.00
N137   N     0.52580   0.41100   0.16470   0.00000  Uiso   1.00
N138   N     0.49713   0.06778   0.92316   0.00000  Uiso   1.00
C139   C     0.20443   0.30719   0.59473   0.00000  Uiso   1.00
C140   C     0.20167   0.35986   0.64165   0.00000  Uiso   1.00
C141   C     0.27745   0.38681   0.66896   0.00000  Uiso   1.00
C142   C     0.26049   0.43440   0.71075   0.00000  Uiso   1.00
C143   C     0.26983   0.51314   0.78151   0.00000  Uiso   1.00
C144   C     0.14536   0.24609   0.61333   0.00000  Uiso   1.00
C145   C     0.17379   0.17737   0.61683   0.00000  Uiso   1.00
C146   C     0.10941   0.12918   0.63478   0.00000  Uiso   1.00
C147   C     0.03131   0.03127   0.66154   0.00000  Uiso   1.00
C148   C     0.15327   0.34069   0.54677   0.00000  Uiso   1.00
C149   C     0.18833   0.35149   0.49429   0.00000  Uiso   1.00
C150   C     0.13061   0.38294   0.45619   0.00000  Uiso   1.00
C151   C     0.06478   0.43191   0.37960   0.00000  Uiso   1.00
C152   C     0.03955   0.34379   0.62036   0.00000  Uiso   1.00
C153   C     0.11211   0.37974   0.65557   0.00000  Uiso   1.00
C154   C     0.09503   0.42731   0.69732   0.00000  Uiso   1.00
C155   C     0.17077   0.45432   0.72470   0.00000  Uiso   1.00
C156   C     0.05581   0.26597   0.62726   0.00000  Uiso   1.00
C157   C     0.99137   0.21787   0.64519   0.00000  Uiso   1.00
C158   C     0.01970   0.14910   0.64872   0.00000  Uiso   1.00
C159   C     0.06371   0.36057   0.56069   0.00000  Uiso   1.00
C160   C     0.00592   0.39200   0.52266   0.00000  Uiso   1.00
C161   C     0.04089   0.40285   0.47014   0.00000  Uiso   1.00
H162   H     0.27415   0.29170   0.58389   0.00000  Uiso   1.00
H163   H     0.34674   0.37140   0.65818   0.00000  Uiso   1.00
H164   H     0.24309   0.16200   0.60605   0.00000  Uiso   1.00
H165   H     0.25764   0.33610   0.48353   0.00000  Uiso   1.00
H166   H     0.38773   0.46852   0.74670   0.00000  Uiso   1.00
H167   H     0.16917   0.02697   0.63677   0.00000  Uiso   1.00
H168   H     0.19984   0.39409   0.37841   0.00000  Uiso   1.00
H169   H     0.96983   0.35927   0.63120   0.00000  Uiso   1.00
H170   H     0.02572   0.44268   0.70809   0.00000  Uiso   1.00
H171   H     0.92207   0.23327   0.65596   0.00000  Uiso   1.00
H172   H     0.93662   0.40738   0.53345   0.00000  Uiso   1.00
H173   H     0.12718   0.52637   0.78721   0.00000  Uiso   1.00
H174   H     0.90862   0.08481   0.67728   0.00000  Uiso   1.00
H175   H     0.93929   0.45194   0.41892   0.00000  Uiso   1.00
O176   O     0.29972   0.55108   0.81669   0.00000  Uiso   1.00
O177   O     0.01297   0.97178   0.67246   0.00000  Uiso   1.00
O178   O     0.05321   0.45345   0.33350   0.00000  Uiso   1.00
N179   N     0.31874   0.47070   0.74567   0.00000  Uiso   1.00
N180   N     0.11440   0.05787   0.64290   0.00000  Uiso   1.00
N181   N     0.14307   0.40109   0.40136   0.00000  Uiso   1.00
N182   N     0.17854   0.50183   0.76747   0.00000  Uiso   1.00
N183   N     0.97420   0.08900   0.66470   0.00000  Uiso   1.00
N184   N     0.00287   0.43222   0.42316   0.00000  Uiso   1.00
C185   C     0.29557   0.80719   0.59473   0.00000  Uiso   1.00
C186   C     0.29833   0.85986   0.64165   0.00000  Uiso   1.00
C187   C     0.22255   0.88681   0.66896   0.00000  Uiso   1.00
C188   C     0.23951   0.93440   0.71075   0.00000  Uiso   1.00
C189   C     0.23017   0.01314   0.78151   0.00000  Uiso   1.00
C190   C     0.35464   0.74609   0.61333   0.00000  Uiso   1.00
C191   C     0.32621   0.67737   0.61683   0.00000  Uiso   1.00
C192   C     0.39059   0.62918   0.63478   0.00000  Uiso   1.00
C193   C     0.46869   0.53127   0.66154   0.00000  Uiso   1.00
C194   C     0.34673   0.84069   0.54677   0.00000  Uiso   1.00
C195   C     0.31167   0.85149   0.49429   0.00000  Uiso   1.00
C196   C     0.36939   0.88294   0.45619   0.00000  Uiso   1.00
C197   C     0.43522   0.93191   0.37960   0.00000  Uiso   1.00
C198   C     0.46045   0.84379   0.62036   0.00000  Uiso   1.00
C199   C     0.38789   0.87974   0.65557   0.00000  Uiso   1.00
C200   C     0.40497   0.92731   0.69732   0.00000  Uiso   1.00
C201   C     0.32923   0.95432   0.72470   0.00000  Uiso   1.00
C202   C     0.44419   0.76597   0.62726   0.00000  Uiso   1.00
C203   C     0.50863   0.71787   0.64519   0.00000  Uiso   1.00
C204   C     0.48030   0.64910   0.64872   0.00000  Uiso   1.00
C205   C     0.43629   0.86057   0.56069   0.00000  Uiso   1.00
C206   C     0.49408   0.89200   0.52266   0.00000  Uiso   1.00
C207   C     0.45911   0.90285   0.47014   0.00000  Uiso   1.00
H208   H     0.22585   0.79170   0.58389   0.00000  Uiso   1.00
H209   H     0.15326   0.87140   0.65818   0.00000  Uiso   1.00
H210   H     0.25691   0.66200   0.60605   0.00000  Uiso   1.00
H211   H     0.24236   0.83610   0.48353   0.00000  Uiso   1.00
H212   H     0.11227   0.96852   0.74670   0.00000  Uiso   1.00
H213   H     0.33083   0.52697   0.63677   0.00000  Uiso   1.00
H214   H     0.30016   0.89409   0.37841   0.00000  Uiso   1.00
H215   H     0.53017   0.85927   0.63120   0.00000  Uiso   1.00
H216   H     0.47428   0.94268   0.70809   0.00000  Uiso   1.00
H217   H     0.57793   0.73327   0.65596   0.00000  Uiso   1.00
H218   H     0.56338   0.90738   0.53345   0.00000  Uiso   1.00
H219   H     0.37282   0.02637   0.78721   0.00000  Uiso   1.00
H220   H     0.59138   0.58481   0.67728   0.00000  Uiso   1.00
H221   H     0.56071   0.95194   0.41892   0.00000  Uiso   1.00
O222   O     0.20028   0.05108   0.81669   0.00000  Uiso   1.00
O223   O     0.48703   0.47178   0.67246   0.00000  Uiso   1.00
O224   O     0.44679   0.95345   0.33350   0.00000  Uiso   1.00
N225   N     0.18126   0.97070   0.74567   0.00000  Uiso   1.00
N226   N     0.38560   0.55787   0.64290   0.00000  Uiso   1.00
N227   N     0.35693   0.90109   0.40136   0.00000  Uiso   1.00
N228   N     0.32146   0.00183   0.76747   0.00000  Uiso   1.00
N229   N     0.52580   0.58900   0.66470   0.00000  Uiso   1.00
N230   N     0.49713   0.93222   0.42316   0.00000  Uiso   1.00
C231   C     0.20443   0.69281   0.09473   0.00000  Uiso   1.00
C232   C     0.20167   0.64014   0.14165   0.00000  Uiso   1.00
C233   C     0.27745   0.61319   0.16896   0.00000  Uiso   1.00
C234   C     0.26049   0.56560   0.21075   0.00000  Uiso   1.00
C235   C     0.26983   0.48686   0.28151   0.00000  Uiso   1.00
C236   C     0.14536   0.75391   0.11333   0.00000  Uiso   1.00
C237   C     0.17379   0.82263   0.11683   0.00000  Uiso   1.00
C238   C     0.10941   0.87082   0.13478   0.00000  Uiso   1.00
C239   C     0.03131   0.96873   0.16154   0.00000  Uiso   1.00
C240   C     0.15327   0.65931   0.04677   0.00000  Uiso   1.00
C241   C     0.18833   0.64851   0.99429   0.00000  Uiso   1.00
C242   C     0.13061   0.61706   0.95619   0.00000  Uiso   1.00
C243   C     0.06478   0.56809   0.87960   0.00000  Uiso   1.00
C244   C     0.03955   0.65621   0.12036   0.00000  Uiso   1.00
C245   C     0.11211   0.62026   0.15557   0.00000  Uiso   1.00
C246   C     0.09503   0.57269   0.19732   0.00000  Uiso   1.00
C247   C     0.17077   0.54568   0.22470   0.00000  Uiso   1.00
C248   C     0.05581   0.73403   0.12726   0.00000  Uiso   1.00
C249   C     0.99137   0.78213   0.14519   0.00000  Uiso   1.00
C250   C     0.01970   0.85090   0.14872   0.00000  Uiso   1.00
C251   C     0.06371   0.63943   0.06069   0.00000  Uiso   1.00
C252   C     0.00592   0.60800   0.02266   0.00000  Uiso   1.00
C253   C     0.04089   0.59715   0.97014   0.00000  Uiso   1.00
H254   H     0.27415   0.70830   0.08389   0.00000  Uiso   1.00
H255   H     0.34674   0.62860   0.15818   0.00000  Uiso   1.00
H256   H     0.24309   0.83800   0.10605   0.00000  Uiso   1.00
H257   H     0.25764   0.66390   0.98353   0.00000  Uiso   1.00
H258   H     0.38773   0.53148   0.24670   0.00000  Uiso   1.00
H259   H     0.16917   0.97303   0.13677   0.00000  Uiso   1.00
H260   H     0.19984   0.60591   0.87841   0.00000  Uiso   1.00
H261   H     0.96983   0.64073   0.13120   0.00000  Uiso   1.00
H262   H     0.02572   0.55732   0.20809   0.00000  Uiso   1.00
H263   H     0.92207   0.76673   0.15596   0.00000  Uiso   1.00
H264   H     0.93662   0.59262   0.03345   0.00000  Uiso   1.00
H265   H     0.12718   0.47363   0.28721   0.00000  Uiso   1.00
H266   H     0.90862   0.91519   0.17728   0.00000  Uiso   1.00
H267   H     0.93929   0.54806   0.91892   0.00000  Uiso   1.00
O268   O     0.29972   0.44892   0.31669   0.00000  Uiso   1.00
O269   O     0.01297   0.02822   0.17246   0.00000  Uiso   1.00
O270   O     0.05321   0.54655   0.83350   0.00000  Uiso   1.00
N271   N     0.31874   0.52930   0.24567   0.00000  Uiso   1.00
N272   N     0.11440   0.94213   0.14290   0.00000  Uiso   1.00
N273   N     0.14307   0.59891   0.90136   0.00000  Uiso   1.00
N274   N     0.17854   0.49817   0.26747   0.00000  Uiso   1.00
N275   N     0.97420   0.91100   0.16470   0.00000  Uiso   1.00
N276   N     0.00287   0.56778   0.92316   0.00000  Uiso   1.00
C277   C     0.70443   0.80719   0.90527   0.00000  Uiso   1.00
C278   C     0.70167   0.85986   0.85835   0.00000  Uiso   1.00
C279   C     0.77745   0.88681   0.83104   0.00000  Uiso   1.00
C280   C     0.76049   0.93440   0.78925   0.00000  Uiso   1.00
C281   C     0.76983   0.01314   0.71849   0.00000  Uiso   1.00
C282   C     0.64536   0.74609   0.88667   0.00000  Uiso   1.00
C283   C     0.67379   0.67737   0.88317   0.00000  Uiso   1.00
C284   C     0.60941   0.62918   0.86522   0.00000  Uiso   1.00
C285   C     0.53131   0.53127   0.83846   0.00000  Uiso   1.00
C286   C     0.65327   0.84069   0.95323   0.00000  Uiso   1.00
C287   C     0.68833   0.85149   0.00571   0.00000  Uiso   1.00
C288   C     0.63061   0.88294   0.04381   0.00000  Uiso   1.00
C289   C     0.56478   0.93191   0.12040   0.00000  Uiso   1.00
C290   C     0.53955   0.84379   0.87964   0.00000  Uiso   1.00
C291   C     0.61211   0.87974   0.84443   0.00000  Uiso   1.00
C292   C     0.59503   0.92731   0.80268   0.00000  Uiso   1.00
C293   C     0.67077   0.95432   0.77530   0.00000  Uiso   1.00
C294   C     0.55581   0.76597   0.87274   0.00000  Uiso   1.00
C295   C     0.49137   0.71787   0.85481   0.00000  Uiso   1.00
C296   C     0.51970   0.64910   0.85128   0.00000  Uiso   1.00
C297   C     0.56371   0.86057   0.93931   0.00000  Uiso   1.00
C298   C     0.50592   0.89200   0.97734   0.00000  Uiso   1.00
C299   C     0.54089   0.90285   0.02986   0.00000  Uiso   1.00
H300   H     0.77415   0.79170   0.91611   0.00000  Uiso   1.00
H301   H     0.84674   0.87140   0.84182   0.00000  Uiso   1.00
H302   H     0.74309   0.66200   0.89395   0.00000  Uiso   1.00
H303   H     0.75764   0.83610   0.01647   0.00000  Uiso   1.00
H304   H     0.88773   0.96852   0.75330   0.00000  Uiso   1.00
H305   H     0.66917   0.52697   0.86323   0.00000  Uiso   1.00
H306   H     0.69984   0.89409   0.12159   0.00000  Uiso   1.00
H307   H     0.46983   0.85927   0.86880   0.00000  Uiso   1.00
H308   H     0.52572   0.94268   0.79191   0.00000  Uiso   1.00
H309   H     0.42207   0.73327   0.84404   0.00000  Uiso   1.00
H310   H     0.43662   0.90738   0.96655   0.00000  Uiso   1.00
H311   H     0.62718   0.02637   0.71279   0.00000  Uiso   1.00
H312   H     0.40862   0.58481   0.82272   0.00000  Uiso   1.00
H313   H     0.43929   0.95194   0.08108   0.00000  Uiso   1.00
O314   O     0.79972   0.05108   0.68331   0.00000  Uiso   1.00
O315   O     0.51297   0.47178   0.82754   0.00000  Uiso   1.00
O316   O     0.55321   0.95345   0.16650   0.00000  Uiso   1.00
N317   N     0.81874   0.97070   0.75433   0.00000  Uiso   1.00
N318   N     0.61440   0.55787   0.85710   0.00000  Uiso   1.00
N319   N     0.64307   0.90109   0.09864   0.00000  Uiso   1.00
N320   N     0.67854   0.00183   0.73253   0.00000  Uiso   1.00
N321   N     0.47420   0.58900   0.83530   0.00000  Uiso   1.00
N322   N     0.50287   0.93222   0.07684   0.00000  Uiso   1.00
C323   C     0.79557   0.69281   0.40527   0.00000  Uiso   1.00
C324   C     0.79833   0.64014   0.35835   0.00000  Uiso   1.00
C325   C     0.72255   0.61319   0.33104   0.00000  Uiso   1.00
C326   C     0.73951   0.56560   0.28925   0.00000  Uiso   1.00
C327   C     0.73017   0.48686   0.21849   0.00000  Uiso   1.00
C328   C     0.85464   0.75391   0.38667   0.00000  Uiso   1.00
C329   C     0.82621   0.82263   0.38317   0.00000  Uiso   1.00
C330   C     0.89059   0.87082   0.36522   0.00000  Uiso   1.00
C331   C     0.96869   0.96873   0.33846   0.00000  Uiso   1.00
C332   C     0.84673   0.65931   0.45323   0.00000  Uiso   1.00
C333   C     0.81167   0.64851   0.50571   0.00000  Uiso   1.00
C334   C     0.86939   0.61706   0.54381   0.00000  Uiso   1.00
C335   C     0.93522   0.56809   0.62040   0.00000  Uiso   1.00
C336   C     0.96045   0.65621   0.37964   0.00000  Uiso   1.00
C337   C     0.88789   0.62026   0.34443   0.00000  Uiso   1.00
C338   C     0.90497   0.57269   0.30268   0.00000  Uiso   1.00
C339   C     0.82923   0.54568   0.27530   0.00000  Uiso   1.00
C340   C     0.94419   0.73403   0.37274   0.00000  Uiso   1.00
C341   C     0.00863   0.78213   0.35481   0.00000  Uiso   1.00
C342   C     0.98030   0.85090   0.35128   0.00000  Uiso   1.00
C343   C     0.93629   0.63943   0.43931   0.00000  Uiso   1.00
C344   C     0.99408   0.60800   0.47734   0.00000  Uiso   1.00
C345   C     0.95911   0.59715   0.52986   0.00000  Uiso   1.00
H346   H     0.72585   0.70830   0.41611   0.00000  Uiso   1.00
H347   H     0.65326   0.62860   0.34182   0.00000  Uiso   1.00
H348   H     0.75691   0.83800   0.39395   0.00000  Uiso   1.00
H349   H     0.74236   0.66390   0.51647   0.00000  Uiso   1.00
H350   H     0.61227   0.53148   0.25330   0.00000  Uiso   1.00
H351   H     0.83083   0.97303   0.36323   0.00000  Uiso   1.00
H352   H     0.80016   0.60591   0.62159   0.00000  Uiso   1.00
H353   H     0.03017   0.64073   0.36880   0.00000  Uiso   1.00
H354   H     0.97428   0.55732   0.29191   0.00000  Uiso   1.00
H355   H     0.07793   0.76673   0.34404   0.00000  Uiso   1.00
H356   H     0.06338   0.59262   0.46655   0.00000  Uiso   1.00
H357   H     0.87282   0.47363   0.21279   0.00000  Uiso   1.00
H358   H     0.09138   0.91519   0.32272   0.00000  Uiso   1.00
H359   H     0.06071   0.54806   0.58108   0.00000  Uiso   1.00
O360   O     0.70028   0.44892   0.18331   0.00000  Uiso   1.00
O361   O     0.98703   0.02822   0.32754   0.00000  Uiso   1.00
O362   O     0.94679   0.54655   0.66650   0.00000  Uiso   1.00
N363   N     0.68126   0.52930   0.25433   0.00000  Uiso   1.00
N364   N     0.88560   0.94213   0.35710   0.00000  Uiso   1.00
N365   N     0.85693   0.59891   0.59864   0.00000  Uiso   1.00
N366   N     0.82146   0.49817   0.23253   0.00000  Uiso   1.00
N367   N     0.02580   0.91100   0.33530   0.00000  Uiso   1.00
N368   N     0.99713   0.56778   0.57684   0.00000  Uiso   1.00
