data_job_04147
_audit_creation_date              2018-12-19
_audit_creation_method            'Materials Studio'
_symmetry_space_group_name_H-M    'P1'
_symmetry_Int_Tables_number       1
_symmetry_cell_setting            triclinic
loop_
_symmetry_equiv_pos_as_xyz
  x,y,z
_cell_length_a                    17.7433
_cell_length_b                    16.4810
_cell_length_c                    21.7392
_cell_angle_alpha                 90.0000
_cell_angle_beta                  90.0000
_cell_angle_gamma                 90.0000
loop_
_atom_site_label
_atom_site_type_symbol
_atom_site_fract_x
_atom_site_fract_y
_atom_site_fract_z
_atom_site_U_iso_or_equiv
_atom_site_adp_type
_atom_site_occupancy
C1     C     0.69107   0.75343   0.27559   0.00000  Uiso   1.00
C2     C     0.61348   0.74644   0.24588   0.00000  Uiso   1.00
C3     C     0.58192   0.67595   0.22230   0.00000  Uiso   1.00
C4     C     0.51030   0.68217   0.19702   0.00000  Uiso   1.00
C5     C     0.39572   0.66005   0.15110   0.00000  Uiso   1.00
C6     C     0.73313   0.81844   0.23936   0.00000  Uiso   1.00
C7     C     0.80217   0.80850   0.21031   0.00000  Uiso   1.00
C8     C     0.83127   0.87534   0.17954   0.00000  Uiso   1.00
C9     C     0.90248   0.96502   0.12355   0.00000  Uiso   1.00
C10    C     0.67789   0.78890   0.33948   0.00000  Uiso   1.00
C11    C     0.70049   0.75412   0.39461   0.00000  Uiso   1.00
C12    C     0.68310   0.79610   0.44814   0.00000  Uiso   1.00
C13    C     0.66853   0.83990   0.54759   0.00000  Uiso   1.00
C14    C     0.62000   0.88984   0.27260   0.00000  Uiso   1.00
C15    C     0.57489   0.82053   0.24425   0.00000  Uiso   1.00
C16    C     0.50329   0.82686   0.21900   0.00000  Uiso   1.00
C17    C     0.47163   0.75639   0.19539   0.00000  Uiso   1.00
C18    C     0.69454   0.89253   0.23773   0.00000  Uiso   1.00
C19    C     0.72355   0.95941   0.20701   0.00000  Uiso   1.00
C20    C     0.79261   0.94956   0.17792   0.00000  Uiso   1.00
C21    C     0.63929   0.86298   0.33785   0.00000  Uiso   1.00
C22    C     0.62186   0.90503   0.39130   0.00000  Uiso   1.00
C23    C     0.64443   0.87032   0.44651   0.00000  Uiso   1.00
H24    H     0.72112   0.69576   0.27685   0.00000  Uiso   1.00
H25    H     0.61181   0.61863   0.22356   0.00000  Uiso   1.00
H26    H     0.83203   0.75116   0.21158   0.00000  Uiso   1.00
H27    H     0.73036   0.69679   0.39585   0.00000  Uiso   1.00
H28    H     0.47361   0.56579   0.16375   0.00000  Uiso   1.00
H29    H     0.93797   0.84525   0.13850   0.00000  Uiso   1.00
H30    H     0.72358   0.73060   0.52707   0.00000  Uiso   1.00
H31    H     0.58995   0.94752   0.27134   0.00000  Uiso   1.00
H32    H     0.47344   0.88420   0.21775   0.00000  Uiso   1.00
H33    H     0.69366   0.01673   0.20576   0.00000  Uiso   1.00
H34    H     0.59199   0.96236   0.39003   0.00000  Uiso   1.00
H35    H     0.36130   0.78134   0.15903   0.00000  Uiso   1.00
H36    H     0.82567   0.06080   0.13378   0.00000  Uiso   1.00
H37    H     0.61128   0.94615   0.52235   0.00000  Uiso   1.00
O38    O     0.34319   0.62738   0.12622   0.00000  Uiso   1.00
O39    O     0.95242   0.99402   0.09310   0.00000  Uiso   1.00
O40    O     0.67114   0.84360   0.60289   0.00000  Uiso   1.00
N41    N     0.46316   0.62521   0.17000   0.00000  Uiso   1.00
N42    N     0.89730   0.88648   0.14639   0.00000  Uiso   1.00
N43    N     0.69689   0.77930   0.50967   0.00000  Uiso   1.00
N44    N     0.40273   0.74120   0.16746   0.00000  Uiso   1.00
N45    N     0.83687   0.00247   0.14385   0.00000  Uiso   1.00
N46    N     0.63646   0.89529   0.50713   0.00000  Uiso   1.00
C47    C     0.80893   0.24657   0.77559   0.00000  Uiso   1.00
C48    C     0.88652   0.25356   0.74588   0.00000  Uiso   1.00
C49    C     0.91808   0.32405   0.72230   0.00000  Uiso   1.00
C50    C     0.98970   0.31783   0.69702   0.00000  Uiso   1.00
C51    C     0.10428   0.33995   0.65110   0.00000  Uiso   1.00
C52    C     0.76687   0.18156   0.73936   0.00000  Uiso   1.00
C53    C     0.69783   0.19150   0.71031   0.00000  Uiso   1.00
C54    C     0.66873   0.12466   0.67954   0.00000  Uiso   1.00
C55    C     0.59752   0.03498   0.62355   0.00000  Uiso   1.00
C56    C     0.82211   0.21110   0.83948   0.00000  Uiso   1.00
C57    C     0.79951   0.24588   0.89461   0.00000  Uiso   1.00
C58    C     0.81690   0.20390   0.94814   0.00000  Uiso   1.00
C59    C     0.83147   0.16010   0.04759   0.00000  Uiso   1.00
C60    C     0.88000   0.11016   0.77260   0.00000  Uiso   1.00
C61    C     0.92511   0.17947   0.74425   0.00000  Uiso   1.00
C62    C     0.99671   0.17314   0.71900   0.00000  Uiso   1.00
C63    C     0.02837   0.24361   0.69539   0.00000  Uiso   1.00
C64    C     0.80546   0.10747   0.73773   0.00000  Uiso   1.00
C65    C     0.77645   0.04059   0.70701   0.00000  Uiso   1.00
C66    C     0.70739   0.05044   0.67792   0.00000  Uiso   1.00
C67    C     0.86071   0.13702   0.83785   0.00000  Uiso   1.00
C68    C     0.87814   0.09497   0.89130   0.00000  Uiso   1.00
C69    C     0.85557   0.12968   0.94651   0.00000  Uiso   1.00
H70    H     0.77888   0.30424   0.77685   0.00000  Uiso   1.00
H71    H     0.88819   0.38137   0.72356   0.00000  Uiso   1.00
H72    H     0.66797   0.24884   0.71158   0.00000  Uiso   1.00
H73    H     0.76964   0.30321   0.89585   0.00000  Uiso   1.00
H74    H     0.02639   0.43421   0.66375   0.00000  Uiso   1.00
H75    H     0.56203   0.15475   0.63850   0.00000  Uiso   1.00
H76    H     0.77642   0.26940   0.02707   0.00000  Uiso   1.00
H77    H     0.91005   0.05248   0.77134   0.00000  Uiso   1.00
H78    H     0.02656   0.11580   0.71775   0.00000  Uiso   1.00
H79    H     0.80634   0.98327   0.70576   0.00000  Uiso   1.00
H80    H     0.90801   0.03764   0.89003   0.00000  Uiso   1.00
H81    H     0.13870   0.21866   0.65903   0.00000  Uiso   1.00
H82    H     0.67433   0.93920   0.63378   0.00000  Uiso   1.00
H83    H     0.88872   0.05385   0.02235   0.00000  Uiso   1.00
O84    O     0.15681   0.37262   0.62622   0.00000  Uiso   1.00
O85    O     0.54758   0.00598   0.59310   0.00000  Uiso   1.00
O86    O     0.82886   0.15640   0.10289   0.00000  Uiso   1.00
N87    N     0.03684   0.37479   0.67000   0.00000  Uiso   1.00
N88    N     0.60270   0.11352   0.64639   0.00000  Uiso   1.00
N89    N     0.80311   0.22070   0.00967   0.00000  Uiso   1.00
N90    N     0.09727   0.25880   0.66746   0.00000  Uiso   1.00
N91    N     0.66313   0.99753   0.64385   0.00000  Uiso   1.00
N92    N     0.86354   0.10471   0.00713   0.00000  Uiso   1.00
C93    C     0.30893   0.25343   0.22441   0.00000  Uiso   1.00
C94    C     0.38652   0.24644   0.25412   0.00000  Uiso   1.00
C95    C     0.41808   0.17595   0.27770   0.00000  Uiso   1.00
C96    C     0.48970   0.18217   0.30298   0.00000  Uiso   1.00
C97    C     0.60428   0.16005   0.34890   0.00000  Uiso   1.00
C98    C     0.26687   0.31844   0.26064   0.00000  Uiso   1.00
C99    C     0.19783   0.30850   0.28969   0.00000  Uiso   1.00
C100   C     0.16873   0.37534   0.32046   0.00000  Uiso   1.00
C101   C     0.09752   0.46502   0.37645   0.00000  Uiso   1.00
C102   C     0.32211   0.28890   0.16052   0.00000  Uiso   1.00
C103   C     0.29951   0.25412   0.10539   0.00000  Uiso   1.00
C104   C     0.31690   0.29610   0.05186   0.00000  Uiso   1.00
C105   C     0.33147   0.33990   0.95241   0.00000  Uiso   1.00
C106   C     0.38000   0.38984   0.22740   0.00000  Uiso   1.00
C107   C     0.42511   0.32053   0.25575   0.00000  Uiso   1.00
C108   C     0.49671   0.32686   0.28100   0.00000  Uiso   1.00
C109   C     0.52837   0.25639   0.30461   0.00000  Uiso   1.00
C110   C     0.30546   0.39253   0.26227   0.00000  Uiso   1.00
C111   C     0.27645   0.45941   0.29299   0.00000  Uiso   1.00
C112   C     0.20739   0.44956   0.32208   0.00000  Uiso   1.00
C113   C     0.36071   0.36298   0.16215   0.00000  Uiso   1.00
C114   C     0.37814   0.40503   0.10870   0.00000  Uiso   1.00
C115   C     0.35557   0.37032   0.05349   0.00000  Uiso   1.00
H116   H     0.27888   0.19576   0.22315   0.00000  Uiso   1.00
H117   H     0.38819   0.11863   0.27644   0.00000  Uiso   1.00
H118   H     0.16797   0.25116   0.28842   0.00000  Uiso   1.00
H119   H     0.26964   0.19679   0.10415   0.00000  Uiso   1.00
H120   H     0.52639   0.06579   0.33625   0.00000  Uiso   1.00
H121   H     0.06203   0.34525   0.36150   0.00000  Uiso   1.00
H122   H     0.27642   0.23060   0.97293   0.00000  Uiso   1.00
H123   H     0.41005   0.44752   0.22866   0.00000  Uiso   1.00
H124   H     0.52656   0.38420   0.28225   0.00000  Uiso   1.00
H125   H     0.30634   0.51673   0.29424   0.00000  Uiso   1.00
H126   H     0.40801   0.46236   0.10997   0.00000  Uiso   1.00
H127   H     0.63870   0.28134   0.34097   0.00000  Uiso   1.00
H128   H     0.17433   0.56080   0.36622   0.00000  Uiso   1.00
H129   H     0.38872   0.44615   0.97765   0.00000  Uiso   1.00
O130   O     0.65681   0.12738   0.37378   0.00000  Uiso   1.00
O131   O     0.04758   0.49402   0.40690   0.00000  Uiso   1.00
O132   O     0.32886   0.34360   0.89711   0.00000  Uiso   1.00
N133   N     0.53684   0.12521   0.33000   0.00000  Uiso   1.00
N134   N     0.10270   0.38648   0.35361   0.00000  Uiso   1.00
N135   N     0.30311   0.27930   0.99033   0.00000  Uiso   1.00
N136   N     0.59727   0.24120   0.33254   0.00000  Uiso   1.00
N137   N     0.16313   0.50247   0.35615   0.00000  Uiso   1.00
N138   N     0.36354   0.39529   0.99287   0.00000  Uiso   1.00
C139   C     0.19107   0.74657   0.72441   0.00000  Uiso   1.00
C140   C     0.11348   0.75356   0.75412   0.00000  Uiso   1.00
C141   C     0.08192   0.82405   0.77770   0.00000  Uiso   1.00
C142   C     0.01030   0.81783   0.80298   0.00000  Uiso   1.00
C143   C     0.89572   0.83995   0.84890   0.00000  Uiso   1.00
C144   C     0.23313   0.68156   0.76064   0.00000  Uiso   1.00
C145   C     0.30217   0.69150   0.78969   0.00000  Uiso   1.00
C146   C     0.33127   0.62466   0.82046   0.00000  Uiso   1.00
C147   C     0.40248   0.53498   0.87645   0.00000  Uiso   1.00
C148   C     0.17789   0.71110   0.66052   0.00000  Uiso   1.00
C149   C     0.20049   0.74588   0.60539   0.00000  Uiso   1.00
C150   C     0.18310   0.70390   0.55186   0.00000  Uiso   1.00
C151   C     0.16853   0.66010   0.45241   0.00000  Uiso   1.00
C152   C     0.12000   0.61016   0.72740   0.00000  Uiso   1.00
C153   C     0.07489   0.67947   0.75575   0.00000  Uiso   1.00
C154   C     0.00329   0.67314   0.78100   0.00000  Uiso   1.00
C155   C     0.97163   0.74361   0.80461   0.00000  Uiso   1.00
C156   C     0.19454   0.60747   0.76227   0.00000  Uiso   1.00
C157   C     0.22355   0.54059   0.79299   0.00000  Uiso   1.00
C158   C     0.29261   0.55044   0.82208   0.00000  Uiso   1.00
C159   C     0.13929   0.63702   0.66215   0.00000  Uiso   1.00
C160   C     0.12186   0.59497   0.60870   0.00000  Uiso   1.00
C161   C     0.14443   0.62968   0.55349   0.00000  Uiso   1.00
H162   H     0.22112   0.80424   0.72315   0.00000  Uiso   1.00
H163   H     0.11181   0.88137   0.77644   0.00000  Uiso   1.00
H164   H     0.33203   0.74884   0.78842   0.00000  Uiso   1.00
H165   H     0.23036   0.80321   0.60415   0.00000  Uiso   1.00
H166   H     0.97361   0.93421   0.83625   0.00000  Uiso   1.00
H167   H     0.43797   0.65475   0.86150   0.00000  Uiso   1.00
H168   H     0.22358   0.76940   0.47293   0.00000  Uiso   1.00
H169   H     0.08995   0.55248   0.72866   0.00000  Uiso   1.00
H170   H     0.97344   0.61580   0.78225   0.00000  Uiso   1.00
H171   H     0.19366   0.48327   0.79424   0.00000  Uiso   1.00
H172   H     0.09199   0.53764   0.60997   0.00000  Uiso   1.00
H173   H     0.86130   0.71866   0.84097   0.00000  Uiso   1.00
H174   H     0.32567   0.43920   0.86622   0.00000  Uiso   1.00
H175   H     0.11128   0.55385   0.47765   0.00000  Uiso   1.00
O176   O     0.84319   0.87262   0.87378   0.00000  Uiso   1.00
O177   O     0.45242   0.50598   0.90690   0.00000  Uiso   1.00
O178   O     0.17114   0.65640   0.39711   0.00000  Uiso   1.00
N179   N     0.96316   0.87479   0.83000   0.00000  Uiso   1.00
N180   N     0.39730   0.61352   0.85361   0.00000  Uiso   1.00
N181   N     0.19689   0.72070   0.49033   0.00000  Uiso   1.00
N182   N     0.90273   0.75880   0.83254   0.00000  Uiso   1.00
N183   N     0.33687   0.49753   0.85615   0.00000  Uiso   1.00
N184   N     0.13646   0.60471   0.49287   0.00000  Uiso   1.00
C185   C     0.30893   0.24657   0.72441   0.00000  Uiso   1.00
C186   C     0.38652   0.25356   0.75412   0.00000  Uiso   1.00
C187   C     0.41808   0.32405   0.77770   0.00000  Uiso   1.00
C188   C     0.48970   0.31783   0.80298   0.00000  Uiso   1.00
C189   C     0.60428   0.33995   0.84890   0.00000  Uiso   1.00
C190   C     0.26687   0.18156   0.76064   0.00000  Uiso   1.00
C191   C     0.19783   0.19150   0.78969   0.00000  Uiso   1.00
C192   C     0.16873   0.12466   0.82046   0.00000  Uiso   1.00
C193   C     0.09752   0.03498   0.87645   0.00000  Uiso   1.00
C194   C     0.32211   0.21110   0.66052   0.00000  Uiso   1.00
C195   C     0.29951   0.24588   0.60539   0.00000  Uiso   1.00
C196   C     0.31690   0.20390   0.55186   0.00000  Uiso   1.00
C197   C     0.33147   0.16010   0.45241   0.00000  Uiso   1.00
C198   C     0.38000   0.11016   0.72740   0.00000  Uiso   1.00
C199   C     0.42511   0.17947   0.75575   0.00000  Uiso   1.00
C200   C     0.49671   0.17314   0.78100   0.00000  Uiso   1.00
C201   C     0.52837   0.24361   0.80461   0.00000  Uiso   1.00
C202   C     0.30546   0.10747   0.76227   0.00000  Uiso   1.00
C203   C     0.27645   0.04059   0.79299   0.00000  Uiso   1.00
C204   C     0.20739   0.05044   0.82208   0.00000  Uiso   1.00
C205   C     0.36071   0.13702   0.66215   0.00000  Uiso   1.00
C206   C     0.37814   0.09497   0.60870   0.00000  Uiso   1.00
C207   C     0.35557   0.12968   0.55349   0.00000  Uiso   1.00
H208   H     0.27888   0.30424   0.72315   0.00000  Uiso   1.00
H209   H     0.38819   0.38137   0.77644   0.00000  Uiso   1.00
H210   H     0.16797   0.24884   0.78842   0.00000  Uiso   1.00
H211   H     0.26964   0.30321   0.60415   0.00000  Uiso   1.00
H212   H     0.52639   0.43421   0.83625   0.00000  Uiso   1.00
H213   H     0.06203   0.15475   0.86150   0.00000  Uiso   1.00
H214   H     0.27642   0.26940   0.47293   0.00000  Uiso   1.00
H215   H     0.41005   0.05248   0.72866   0.00000  Uiso   1.00
H216   H     0.52656   0.11580   0.78225   0.00000  Uiso   1.00
H217   H     0.30634   0.98327   0.79424   0.00000  Uiso   1.00
H218   H     0.40801   0.03764   0.60997   0.00000  Uiso   1.00
H219   H     0.63870   0.21866   0.84097   0.00000  Uiso   1.00
H220   H     0.17433   0.93920   0.86622   0.00000  Uiso   1.00
H221   H     0.38872   0.05385   0.47765   0.00000  Uiso   1.00
O222   O     0.65681   0.37262   0.87378   0.00000  Uiso   1.00
O223   O     0.04758   0.00598   0.90690   0.00000  Uiso   1.00
O224   O     0.32886   0.15640   0.39711   0.00000  Uiso   1.00
N225   N     0.53684   0.37479   0.83000   0.00000  Uiso   1.00
N226   N     0.10270   0.11352   0.85361   0.00000  Uiso   1.00
N227   N     0.30311   0.22070   0.49033   0.00000  Uiso   1.00
N228   N     0.59727   0.25880   0.83254   0.00000  Uiso   1.00
N229   N     0.16313   0.99753   0.85615   0.00000  Uiso   1.00
N230   N     0.36354   0.10471   0.49287   0.00000  Uiso   1.00
C231   C     0.19107   0.75343   0.22441   0.00000  Uiso   1.00
C232   C     0.11348   0.74644   0.25412   0.00000  Uiso   1.00
C233   C     0.08192   0.67595   0.27770   0.00000  Uiso   1.00
C234   C     0.01030   0.68217   0.30298   0.00000  Uiso   1.00
C235   C     0.89572   0.66005   0.34890   0.00000  Uiso   1.00
C236   C     0.23313   0.81844   0.26064   0.00000  Uiso   1.00
C237   C     0.30217   0.80850   0.28969   0.00000  Uiso   1.00
C238   C     0.33127   0.87534   0.32046   0.00000  Uiso   1.00
C239   C     0.40248   0.96502   0.37645   0.00000  Uiso   1.00
C240   C     0.17789   0.78890   0.16052   0.00000  Uiso   1.00
C241   C     0.20049   0.75412   0.10539   0.00000  Uiso   1.00
C242   C     0.18310   0.79610   0.05186   0.00000  Uiso   1.00
C243   C     0.16853   0.83990   0.95241   0.00000  Uiso   1.00
C244   C     0.12000   0.88984   0.22740   0.00000  Uiso   1.00
C245   C     0.07489   0.82053   0.25575   0.00000  Uiso   1.00
C246   C     0.00329   0.82686   0.28100   0.00000  Uiso   1.00
C247   C     0.97163   0.75639   0.30461   0.00000  Uiso   1.00
C248   C     0.19454   0.89253   0.26227   0.00000  Uiso   1.00
C249   C     0.22355   0.95941   0.29299   0.00000  Uiso   1.00
C250   C     0.29261   0.94956   0.32208   0.00000  Uiso   1.00
C251   C     0.13929   0.86298   0.16215   0.00000  Uiso   1.00
C252   C     0.12186   0.90503   0.10870   0.00000  Uiso   1.00
C253   C     0.14443   0.87032   0.05349   0.00000  Uiso   1.00
H254   H     0.22112   0.69576   0.22315   0.00000  Uiso   1.00
H255   H     0.11181   0.61863   0.27644   0.00000  Uiso   1.00
H256   H     0.33203   0.75116   0.28842   0.00000  Uiso   1.00
H257   H     0.23036   0.69679   0.10415   0.00000  Uiso   1.00
H258   H     0.97361   0.56579   0.33625   0.00000  Uiso   1.00
H259   H     0.43797   0.84525   0.36150   0.00000  Uiso   1.00
H260   H     0.22358   0.73060   0.97293   0.00000  Uiso   1.00
H261   H     0.08995   0.94752   0.22866   0.00000  Uiso   1.00
H262   H     0.97344   0.88420   0.28225   0.00000  Uiso   1.00
H263   H     0.19366   0.01673   0.29424   0.00000  Uiso   1.00
H264   H     0.09199   0.96236   0.10997   0.00000  Uiso   1.00
H265   H     0.86130   0.78134   0.34097   0.00000  Uiso   1.00
H266   H     0.32567   0.06080   0.36622   0.00000  Uiso   1.00
H267   H     0.11128   0.94615   0.97765   0.00000  Uiso   1.00
O268   O     0.84319   0.62738   0.37378   0.00000  Uiso   1.00
O269   O     0.45242   0.99402   0.40690   0.00000  Uiso   1.00
O270   O     0.17114   0.84360   0.89711   0.00000  Uiso   1.00
N271   N     0.96316   0.62521   0.33000   0.00000  Uiso   1.00
N272   N     0.39730   0.88648   0.35361   0.00000  Uiso   1.00
N273   N     0.19689   0.77930   0.99033   0.00000  Uiso   1.00
N274   N     0.90273   0.74120   0.33254   0.00000  Uiso   1.00
N275   N     0.33687   0.00247   0.35615   0.00000  Uiso   1.00
N276   N     0.13646   0.89529   0.99287   0.00000  Uiso   1.00
C277   C     0.69107   0.74657   0.77559   0.00000  Uiso   1.00
C278   C     0.61348   0.75356   0.74588   0.00000  Uiso   1.00
C279   C     0.58192   0.82405   0.72230   0.00000  Uiso   1.00
C280   C     0.51030   0.81783   0.69702   0.00000  Uiso   1.00
C281   C     0.39572   0.83995   0.65110   0.00000  Uiso   1.00
C282   C     0.73313   0.68156   0.73936   0.00000  Uiso   1.00
C283   C     0.80217   0.69150   0.71031   0.00000  Uiso   1.00
C284   C     0.83127   0.62466   0.67954   0.00000  Uiso   1.00
C285   C     0.90248   0.53498   0.62355   0.00000  Uiso   1.00
C286   C     0.67789   0.71110   0.83948   0.00000  Uiso   1.00
C287   C     0.70049   0.74588   0.89461   0.00000  Uiso   1.00
C288   C     0.68310   0.70390   0.94814   0.00000  Uiso   1.00
C289   C     0.66853   0.66010   0.04759   0.00000  Uiso   1.00
C290   C     0.62000   0.61016   0.77260   0.00000  Uiso   1.00
C291   C     0.57489   0.67947   0.74425   0.00000  Uiso   1.00
C292   C     0.50329   0.67314   0.71900   0.00000  Uiso   1.00
C293   C     0.47163   0.74361   0.69539   0.00000  Uiso   1.00
C294   C     0.69454   0.60747   0.73773   0.00000  Uiso   1.00
C295   C     0.72355   0.54059   0.70701   0.00000  Uiso   1.00
C296   C     0.79261   0.55044   0.67792   0.00000  Uiso   1.00
C297   C     0.63929   0.63702   0.83785   0.00000  Uiso   1.00
C298   C     0.62186   0.59497   0.89130   0.00000  Uiso   1.00
C299   C     0.64443   0.62968   0.94651   0.00000  Uiso   1.00
H300   H     0.72112   0.80424   0.77685   0.00000  Uiso   1.00
H301   H     0.61181   0.88137   0.72356   0.00000  Uiso   1.00
H302   H     0.83203   0.74884   0.71158   0.00000  Uiso   1.00
H303   H     0.73036   0.80321   0.89585   0.00000  Uiso   1.00
H304   H     0.47361   0.93421   0.66375   0.00000  Uiso   1.00
H305   H     0.93797   0.65475   0.63850   0.00000  Uiso   1.00
H306   H     0.72358   0.76940   0.02707   0.00000  Uiso   1.00
H307   H     0.58995   0.55248   0.77134   0.00000  Uiso   1.00
H308   H     0.47344   0.61580   0.71775   0.00000  Uiso   1.00
H309   H     0.69366   0.48327   0.70576   0.00000  Uiso   1.00
H310   H     0.59199   0.53764   0.89003   0.00000  Uiso   1.00
H311   H     0.36130   0.71866   0.65903   0.00000  Uiso   1.00
H312   H     0.82567   0.43920   0.63378   0.00000  Uiso   1.00
H313   H     0.61128   0.55385   0.02235   0.00000  Uiso   1.00
O314   O     0.34319   0.87262   0.62622   0.00000  Uiso   1.00
O315   O     0.95242   0.50598   0.59310   0.00000  Uiso   1.00
O316   O     0.67114   0.65640   0.10289   0.00000  Uiso   1.00
N317   N     0.46316   0.87479   0.67000   0.00000  Uiso   1.00
N318   N     0.89730   0.61352   0.64639   0.00000  Uiso   1.00
N319   N     0.69689   0.72070   0.00967   0.00000  Uiso   1.00
N320   N     0.40273   0.75880   0.66746   0.00000  Uiso   1.00
N321   N     0.83687   0.49753   0.64385   0.00000  Uiso   1.00
N322   N     0.63646   0.60471   0.00713   0.00000  Uiso   1.00
C323   C     0.80893   0.25343   0.27559   0.00000  Uiso   1.00
C324   C     0.88652   0.24644   0.24588   0.00000  Uiso   1.00
C325   C     0.91808   0.17595   0.22230   0.00000  Uiso   1.00
C326   C     0.98970   0.18217   0.19702   0.00000  Uiso   1.00
C327   C     0.10428   0.16005   0.15110   0.00000  Uiso   1.00
C328   C     0.76687   0.31844   0.23936   0.00000  Uiso   1.00
C329   C     0.69783   0.30850   0.21031   0.00000  Uiso   1.00
C330   C     0.66873   0.37534   0.17954   0.00000  Uiso   1.00
C331   C     0.59752   0.46502   0.12355   0.00000  Uiso   1.00
C332   C     0.82211   0.28890   0.33948   0.00000  Uiso   1.00
C333   C     0.79951   0.25412   0.39461   0.00000  Uiso   1.00
C334   C     0.81690   0.29610   0.44814   0.00000  Uiso   1.00
C335   C     0.83147   0.33990   0.54759   0.00000  Uiso   1.00
C336   C     0.88000   0.38984   0.27260   0.00000  Uiso   1.00
C337   C     0.92511   0.32053   0.24425   0.00000  Uiso   1.00
C338   C     0.99671   0.32686   0.21900   0.00000  Uiso   1.00
C339   C     0.02837   0.25639   0.19539   0.00000  Uiso   1.00
C340   C     0.80546   0.39253   0.23773   0.00000  Uiso   1.00
C341   C     0.77645   0.45941   0.20701   0.00000  Uiso   1.00
C342   C     0.70739   0.44956   0.17792   0.00000  Uiso   1.00
C343   C     0.86071   0.36298   0.33785   0.00000  Uiso   1.00
C344   C     0.87814   0.40503   0.39130   0.00000  Uiso   1.00
C345   C     0.85557   0.37032   0.44651   0.00000  Uiso   1.00
H346   H     0.77888   0.19576   0.27685   0.00000  Uiso   1.00
H347   H     0.88819   0.11863   0.22356   0.00000  Uiso   1.00
H348   H     0.66797   0.25116   0.21158   0.00000  Uiso   1.00
H349   H     0.76964   0.19679   0.39585   0.00000  Uiso   1.00
H350   H     0.02639   0.06579   0.16375   0.00000  Uiso   1.00
H351   H     0.56203   0.34525   0.13850   0.00000  Uiso   1.00
H352   H     0.77642   0.23060   0.52707   0.00000  Uiso   1.00
H353   H     0.91005   0.44752   0.27134   0.00000  Uiso   1.00
H354   H     0.02656   0.38420   0.21775   0.00000  Uiso   1.00
H355   H     0.80634   0.51673   0.20576   0.00000  Uiso   1.00
H356   H     0.90801   0.46236   0.39003   0.00000  Uiso   1.00
H357   H     0.13870   0.28134   0.15903   0.00000  Uiso   1.00
H358   H     0.67433   0.56080   0.13378   0.00000  Uiso   1.00
H359   H     0.88872   0.44615   0.52235   0.00000  Uiso   1.00
O360   O     0.15681   0.12738   0.12622   0.00000  Uiso   1.00
O361   O     0.54758   0.49402   0.09310   0.00000  Uiso   1.00
O362   O     0.82886   0.34360   0.60289   0.00000  Uiso   1.00
N363   N     0.03684   0.12521   0.17000   0.00000  Uiso   1.00
N364   N     0.60270   0.38648   0.14639   0.00000  Uiso   1.00
N365   N     0.80311   0.27930   0.50967   0.00000  Uiso   1.00
N366   N     0.09727   0.24120   0.16746   0.00000  Uiso   1.00
N367   N     0.66313   0.50247   0.14385   0.00000  Uiso   1.00
N368   N     0.86354   0.39529   0.50713   0.00000  Uiso   1.00
