data_job_05487
_audit_creation_date              2018-12-19
_audit_creation_method            'Materials Studio'
_symmetry_space_group_name_H-M    'P1'
_symmetry_Int_Tables_number       1
_symmetry_cell_setting            triclinic
loop_
_symmetry_equiv_pos_as_xyz
  x,y,z
_cell_length_a                    12.2428
_cell_length_b                    14.4550
_cell_length_c                    9.4761
_cell_angle_alpha                 90.0000
_cell_angle_beta                  102.7548
_cell_angle_gamma                 90.0000
loop_
_atom_site_label
_atom_site_type_symbol
_atom_site_fract_x
_atom_site_fract_y
_atom_site_fract_z
_atom_site_U_iso_or_equiv
_atom_site_adp_type
_atom_site_occupancy
C1     C     0.93559   0.26352   0.54704   0.00000  Uiso   1.00
C2     C     0.01802   0.18730   0.53066   0.00000  Uiso   1.00
C3     C     0.10628   0.19605   0.46149   0.00000  Uiso   1.00
C4     C     0.17210   0.11823   0.45806   0.00000  Uiso   1.00
C5     C     0.30337   0.01257   0.42290   0.00000  Uiso   1.00
C6     C     0.81934   0.22532   0.48158   0.00000  Uiso   1.00
C7     C     0.74055   0.26605   0.37117   0.00000  Uiso   1.00
C8     C     0.63912   0.22023   0.32644   0.00000  Uiso   1.00
C9     C     0.46190   0.17365   0.21516   0.00000  Uiso   1.00
C10    C     0.94196   0.27255   0.70898   0.00000  Uiso   1.00
C11    C     0.96625   0.35300   0.78977   0.00000  Uiso   1.00
C12    C     0.96804   0.34695   0.93649   0.00000  Uiso   1.00
C13    C     0.98122   0.37370   0.17829   0.00000  Uiso   1.00
C14    C     0.89555   0.10975   0.66395   0.00000  Uiso   1.00
C15    C     0.99626   0.10378   0.59416   0.00000  Uiso   1.00
C16    C     0.06198   0.02593   0.59084   0.00000  Uiso   1.00
C17    C     0.15032   0.03456   0.52168   0.00000  Uiso   1.00
C18    C     0.79759   0.14181   0.54508   0.00000  Uiso   1.00
C19    C     0.69625   0.09593   0.50051   0.00000  Uiso   1.00
C20    C     0.61733   0.13657   0.39005   0.00000  Uiso   1.00
C21    C     0.92022   0.18904   0.77249   0.00000  Uiso   1.00
C22    C     0.92196   0.18287   0.91911   0.00000  Uiso   1.00
C23    C     0.94625   0.26328   0.00011   0.00000  Uiso   1.00
H24    H     0.95251   0.32854   0.49760   0.00000  Uiso   1.00
H25    H     0.12307   0.26069   0.41235   0.00000  Uiso   1.00
H26    H     0.75740   0.33068   0.32206   0.00000  Uiso   1.00
H27    H     0.98307   0.41761   0.74059   0.00000  Uiso   1.00
H28    H     0.30255   0.14863   0.34580   0.00000  Uiso   1.00
H29    H     0.53149   0.29623   0.15544   0.00000  Uiso   1.00
H30    H     0.00737   0.47954   0.03800   0.00000  Uiso   1.00
H31    H     0.87861   0.04473   0.71338   0.00000  Uiso   1.00
H32    H     0.04513   0.96130   0.63998   0.00000  Uiso   1.00
H33    H     0.67945   0.03130   0.54968   0.00000  Uiso   1.00
H34    H     0.90513   0.11823   0.96821   0.00000  Uiso   1.00
H35    H     0.23929   0.90563   0.53054   0.00000  Uiso   1.00
H36    H     0.46822   0.05323   0.34018   0.00000  Uiso   1.00
H37    H     0.94411   0.23654   0.22275   0.00000  Uiso   1.00
O38    O     0.38177   0.97737   0.38595   0.00000  Uiso   1.00
O39    O     0.37016   0.17102   0.13622   0.00000  Uiso   1.00
O40    O     0.99451   0.41152   0.29412   0.00000  Uiso   1.00
N41    N     0.26483   0.10290   0.39938   0.00000  Uiso   1.00
N42    N     0.54394   0.24088   0.22138   0.00000  Uiso   1.00
N43    N     0.98882   0.41227   0.04650   0.00000  Uiso   1.00
N44    N     0.23078   0.97214   0.49879   0.00000  Uiso   1.00
N45    N     0.50990   0.11013   0.32080   0.00000  Uiso   1.00
N46    N     0.95478   0.28152   0.14591   0.00000  Uiso   1.00
C47    C     0.93559   0.73648   0.04704   0.00000  Uiso   1.00
C48    C     0.01802   0.81270   0.03066   0.00000  Uiso   1.00
C49    C     0.10628   0.80395   0.96149   0.00000  Uiso   1.00
C50    C     0.17210   0.88177   0.95806   0.00000  Uiso   1.00
C51    C     0.30337   0.98743   0.92290   0.00000  Uiso   1.00
C52    C     0.81934   0.77468   0.98158   0.00000  Uiso   1.00
C53    C     0.74055   0.73395   0.87117   0.00000  Uiso   1.00
C54    C     0.63912   0.77977   0.82644   0.00000  Uiso   1.00
C55    C     0.46190   0.82635   0.71516   0.00000  Uiso   1.00
C56    C     0.94196   0.72745   0.20898   0.00000  Uiso   1.00
C57    C     0.96625   0.64700   0.28977   0.00000  Uiso   1.00
C58    C     0.96804   0.65305   0.43649   0.00000  Uiso   1.00
C59    C     0.98122   0.62630   0.67829   0.00000  Uiso   1.00
C60    C     0.89555   0.89025   0.16395   0.00000  Uiso   1.00
C61    C     0.99626   0.89622   0.09416   0.00000  Uiso   1.00
C62    C     0.06198   0.97407   0.09084   0.00000  Uiso   1.00
C63    C     0.15032   0.96544   0.02168   0.00000  Uiso   1.00
C64    C     0.79759   0.85819   0.04508   0.00000  Uiso   1.00
C65    C     0.69625   0.90407   0.00051   0.00000  Uiso   1.00
C66    C     0.61733   0.86343   0.89005   0.00000  Uiso   1.00
C67    C     0.92022   0.81096   0.27249   0.00000  Uiso   1.00
C68    C     0.92196   0.81713   0.41911   0.00000  Uiso   1.00
C69    C     0.94625   0.73672   0.50011   0.00000  Uiso   1.00
H70    H     0.95251   0.67146   0.99760   0.00000  Uiso   1.00
H71    H     0.12307   0.73931   0.91235   0.00000  Uiso   1.00
H72    H     0.75740   0.66932   0.82206   0.00000  Uiso   1.00
H73    H     0.98307   0.58239   0.24059   0.00000  Uiso   1.00
H74    H     0.30255   0.85137   0.84580   0.00000  Uiso   1.00
H75    H     0.53149   0.70377   0.65544   0.00000  Uiso   1.00
H76    H     0.00737   0.52046   0.53800   0.00000  Uiso   1.00
H77    H     0.87861   0.95527   0.21338   0.00000  Uiso   1.00
H78    H     0.04513   0.03870   0.13998   0.00000  Uiso   1.00
H79    H     0.67945   0.96870   0.04968   0.00000  Uiso   1.00
H80    H     0.90513   0.88177   0.46821   0.00000  Uiso   1.00
H81    H     0.23929   0.09437   0.03054   0.00000  Uiso   1.00
H82    H     0.46822   0.94677   0.84018   0.00000  Uiso   1.00
H83    H     0.94411   0.76346   0.72275   0.00000  Uiso   1.00
O84    O     0.38177   0.02263   0.88595   0.00000  Uiso   1.00
O85    O     0.37016   0.82898   0.63622   0.00000  Uiso   1.00
O86    O     0.99451   0.58848   0.79412   0.00000  Uiso   1.00
N87    N     0.26483   0.89710   0.89938   0.00000  Uiso   1.00
N88    N     0.54394   0.75912   0.72138   0.00000  Uiso   1.00
N89    N     0.98882   0.58773   0.54650   0.00000  Uiso   1.00
N90    N     0.23078   0.02786   0.99879   0.00000  Uiso   1.00
N91    N     0.50990   0.88987   0.82080   0.00000  Uiso   1.00
N92    N     0.95478   0.71848   0.64591   0.00000  Uiso   1.00
