data_job_06698
_audit_creation_date              2018-12-19
_audit_creation_method            'Materials Studio'
_symmetry_space_group_name_H-M    'P1'
_symmetry_Int_Tables_number       1
_symmetry_cell_setting            triclinic
loop_
_symmetry_equiv_pos_as_xyz
  x,y,z
_cell_length_a                    23.9994
_cell_length_b                    22.2820
_cell_length_c                    18.4814
_cell_angle_alpha                 107.9150
_cell_angle_beta                  109.5360
_cell_angle_gamma                 78.1107
loop_
_atom_site_label
_atom_site_type_symbol
_atom_site_fract_x
_atom_site_fract_y
_atom_site_fract_z
_atom_site_U_iso_or_equiv
_atom_site_adp_type
_atom_site_occupancy
C1     C     0.69089   0.37186   0.26031   0.00000  Uiso   1.00
C2     C     0.66785   0.31567   0.19151   0.00000  Uiso   1.00
C3     C     0.67758   0.29878   0.11754   0.00000  Uiso   1.00
C4     C     0.65272   0.24579   0.06264   0.00000  Uiso   1.00
C5     C     0.62201   0.16386   0.95299   0.00000  Uiso   1.00
C6     C     0.63622   0.41168   0.28216   0.00000  Uiso   1.00
C7     C     0.61936   0.47551   0.28440   0.00000  Uiso   1.00
C8     C     0.56789   0.50334   0.30582   0.00000  Uiso   1.00
C9     C     0.48810   0.57047   0.33695   0.00000  Uiso   1.00
C10    C     0.72648   0.34433   0.33059   0.00000  Uiso   1.00
C11    C     0.78550   0.35154   0.37358   0.00000  Uiso   1.00
C12    C     0.81000   0.32269   0.43579   0.00000  Uiso   1.00
C13    C     0.87034   0.28525   0.54212   0.00000  Uiso   1.00
C14    C     0.62945   0.30779   0.29436   0.00000  Uiso   1.00
C15    C     0.63448   0.28087   0.21001   0.00000  Uiso   1.00
C16    C     0.60961   0.22790   0.15521   0.00000  Uiso   1.00
C17    C     0.61930   0.21093   0.08117   0.00000  Uiso   1.00
C18    C     0.60286   0.37688   0.30065   0.00000  Uiso   1.00
C19    C     0.55140   0.40463   0.32207   0.00000  Uiso   1.00
C20    C     0.53446   0.46848   0.32435   0.00000  Uiso   1.00
C21    C     0.69311   0.30953   0.34909   0.00000  Uiso   1.00
C22    C     0.71753   0.28066   0.41124   0.00000  Uiso   1.00
C23    C     0.77657   0.28783   0.45432   0.00000  Uiso   1.00
H24    H     0.71686   0.39895   0.24591   0.00000  Uiso   1.00
H25    H     0.70340   0.32572   0.10325   0.00000  Uiso   1.00
H26    H     0.64520   0.50242   0.27009   0.00000  Uiso   1.00
H27    H     0.81130   0.37847   0.35925   0.00000  Uiso   1.00
H28    H     0.67374   0.22920   0.95322   0.00000  Uiso   1.00
H29    H     0.55103   0.60179   0.30505   0.00000  Uiso   1.00
H30    H     0.90130   0.34043   0.49306   0.00000  Uiso   1.00
H31    H     0.60347   0.28070   0.30876   0.00000  Uiso   1.00
H32    H     0.58379   0.20098   0.16954   0.00000  Uiso   1.00
H33    H     0.52559   0.37769   0.33638   0.00000  Uiso   1.00
H34    H     0.69169   0.25374   0.42554   0.00000  Uiso   1.00
H35    H     0.57666   0.12796   0.00702   0.00000  Uiso   1.00
H36    H     0.45395   0.50056   0.35886   0.00000  Uiso   1.00
H37    H     0.80421   0.23919   0.54686   0.00000  Uiso   1.00
O38    O     0.61428   0.12828   0.88739   0.00000  Uiso   1.00
O39    O     0.45330   0.61711   0.34900   0.00000  Uiso   1.00
O40    O     0.91284   0.27421   0.59566   0.00000  Uiso   1.00
N41    N     0.65360   0.21630   0.98499   0.00000  Uiso   1.00
N42    N     0.53887   0.56466   0.31392   0.00000  Uiso   1.00
N43    N     0.86634   0.32032   0.48971   0.00000  Uiso   1.00
N44    N     0.60136   0.16183   0.01394   0.00000  Uiso   1.00
N45    N     0.48663   0.51018   0.34288   0.00000  Uiso   1.00
N46    N     0.81410   0.26584   0.51866   0.00000  Uiso   1.00
C47    C     0.46850   0.74391   0.65221   0.00000  Uiso   1.00
C48    C     0.41438   0.71406   0.59069   0.00000  Uiso   1.00
C49    C     0.35540   0.73900   0.58356   0.00000  Uiso   1.00
C50    C     0.31236   0.70448   0.52342   0.00000  Uiso   1.00
C51    C     0.22597   0.66684   0.43570   0.00000  Uiso   1.00
C52    C     0.50357   0.69384   0.69613   0.00000  Uiso   1.00
C53    C     0.51959   0.70178   0.77766   0.00000  Uiso   1.00
C54    C     0.55164   0.65024   0.80627   0.00000  Uiso   1.00
C55    C     0.60376   0.58122   0.88225   0.00000  Uiso   1.00
C56    C     0.50705   0.75143   0.60529   0.00000  Uiso   1.00
C57    C     0.52601   0.80779   0.61046   0.00000  Uiso   1.00
C58    C     0.56100   0.80474   0.56261   0.00000  Uiso   1.00
C59    C     0.61851   0.82514   0.49756   0.00000  Uiso   1.00
C60    C     0.49694   0.63826   0.55806   0.00000  Uiso   1.00
C61    C     0.42983   0.65667   0.53955   0.00000  Uiso   1.00
C62    C     0.38686   0.62211   0.47940   0.00000  Uiso   1.00
C63    C     0.32783   0.64699   0.47219   0.00000  Uiso   1.00
C64    C     0.51902   0.63645   0.64499   0.00000  Uiso   1.00
C65    C     0.55105   0.58489   0.67349   0.00000  Uiso   1.00
C66    C     0.56711   0.59275   0.75504   0.00000  Uiso   1.00
C67    C     0.52249   0.69404   0.55415   0.00000  Uiso   1.00
C68    C     0.55747   0.69090   0.50629   0.00000  Uiso   1.00
C69    C     0.57647   0.74725   0.51138   0.00000  Uiso   1.00
H70    H     0.45648   0.78858   0.69202   0.00000  Uiso   1.00
H71    H     0.34346   0.78341   0.62316   0.00000  Uiso   1.00
H72    H     0.50763   0.74620   0.81722   0.00000  Uiso   1.00
H73    H     0.51405   0.85219   0.65004   0.00000  Uiso   1.00
H74    H     0.22498   0.75235   0.52427   0.00000  Uiso   1.00
H75    H     0.57116   0.67389   0.93346   0.00000  Uiso   1.00
H76    H     0.58468   0.89741   0.58094   0.00000  Uiso   1.00
H77    H     0.50897   0.59358   0.51824   0.00000  Uiso   1.00
H78    H     0.39883   0.57770   0.43983   0.00000  Uiso   1.00
H79    H     0.56300   0.54049   0.63390   0.00000  Uiso   1.00
H80    H     0.56941   0.64648   0.46672   0.00000  Uiso   1.00
H81    H     0.26991   0.58539   0.37548   0.00000  Uiso   1.00
H82    H     0.61610   0.50693   0.78468   0.00000  Uiso   1.00
H83    H     0.62962   0.73044   0.43216   0.00000  Uiso   1.00
O84    O     0.17405   0.66193   0.40145   0.00000  Uiso   1.00
O85    O     0.62823   0.55901   0.93829   0.00000  Uiso   1.00
O86    O     0.64597   0.85225   0.47580   0.00000  Uiso   1.00
N87    N     0.25067   0.71524   0.50000   0.00000  Uiso   1.00
N88    N     0.57432   0.64189   0.88257   0.00000  Uiso   1.00
N89    N     0.58697   0.85085   0.55301   0.00000  Uiso   1.00
N90    N     0.27485   0.62540   0.41994   0.00000  Uiso   1.00
N91    N     0.59850   0.55204   0.80251   0.00000  Uiso   1.00
N92    N     0.61115   0.76101   0.47295   0.00000  Uiso   1.00
C93    C     0.38794   0.23778   0.71504   0.00000  Uiso   1.00
C94    C     0.35579   0.19391   0.73249   0.00000  Uiso   1.00
C95    C     0.38255   0.14220   0.76359   0.00000  Uiso   1.00
C96    C     0.34540   0.10804   0.77517   0.00000  Uiso   1.00
C97    C     0.30487   0.03732   0.80509   0.00000  Uiso   1.00
C98    C     0.35942   0.23615   0.62741   0.00000  Uiso   1.00
C99    C     0.38923   0.21996   0.57017   0.00000  Uiso   1.00
C100   C     0.35513   0.22136   0.49331   0.00000  Uiso   1.00
C101   C     0.32023   0.21626   0.36011   0.00000  Uiso   1.00
C102   C     0.37078   0.30471   0.76143   0.00000  Uiso   1.00
C103   C     0.41015   0.34618   0.81686   0.00000  Uiso   1.00
C104   C     0.38562   0.40532   0.85282   0.00000  Uiso   1.00
C105   C     0.36837   0.50668   0.92770   0.00000  Uiso   1.00
C106   C     0.27438   0.26906   0.68032   0.00000  Uiso   1.00
C107   C     0.29411   0.21090   0.71362   0.00000  Uiso   1.00
C108   C     0.25691   0.17682   0.72517   0.00000  Uiso   1.00
C109   C     0.28361   0.12507   0.75629   0.00000  Uiso   1.00
C110   C     0.29774   0.25314   0.60855   0.00000  Uiso   1.00
C111   C     0.26359   0.25457   0.53176   0.00000  Uiso   1.00
C112   C     0.29334   0.23839   0.47442   0.00000  Uiso   1.00
C113   C     0.30910   0.32171   0.74257   0.00000  Uiso   1.00
C114   C     0.28451   0.38079   0.77845   0.00000  Uiso   1.00
C115   C     0.32383   0.42235   0.83393   0.00000  Uiso   1.00
H116   H     0.43596   0.22455   0.72972   0.00000  Uiso   1.00
H117   H     0.43028   0.12906   0.77816   0.00000  Uiso   1.00
H118   H     0.43696   0.20682   0.58478   0.00000  Uiso   1.00
H119   H     0.45788   0.33302   0.83144   0.00000  Uiso   1.00
H120   H     0.39679   0.03068   0.82353   0.00000  Uiso   1.00
H121   H     0.41087   0.19465   0.41578   0.00000  Uiso   1.00
H122   H     0.45498   0.46077   0.93590   0.00000  Uiso   1.00
H123   H     0.22636   0.28229   0.66564   0.00000  Uiso   1.00
H124   H     0.20919   0.18998   0.71057   0.00000  Uiso   1.00
H125   H     0.21586   0.26773   0.51719   0.00000  Uiso   1.00
H126   H     0.23678   0.39393   0.76384   0.00000  Uiso   1.00
H127   H     0.21734   0.08012   0.76867   0.00000  Uiso   1.00
H128   H     0.23142   0.24409   0.36092   0.00000  Uiso   1.00
H129   H     0.27553   0.51021   0.88104   0.00000  Uiso   1.00
O130   O     0.29955   0.99362   0.82679   0.00000  Uiso   1.00
O131   O     0.31803   0.20875   0.29185   0.00000  Uiso   1.00
O132   O     0.37590   0.55789   0.97422   0.00000  Uiso   1.00
N133   N     0.35692   0.05499   0.80447   0.00000  Uiso   1.00
N134   N     0.37008   0.20828   0.42325   0.00000  Uiso   1.00
N135   N     0.41132   0.45709   0.90949   0.00000  Uiso   1.00
N136   N     0.26035   0.08160   0.77495   0.00000  Uiso   1.00
N137   N     0.27352   0.23488   0.39373   0.00000  Uiso   1.00
N138   N     0.31476   0.48369   0.87997   0.00000  Uiso   1.00
C139   C     0.29374   0.84381   0.21023   0.00000  Uiso   1.00
C140   C     0.26827   0.79683   0.13128   0.00000  Uiso   1.00
C141   C     0.28658   0.73216   0.11145   0.00000  Uiso   1.00
C142   C     0.25769   0.69733   0.03627   0.00000  Uiso   1.00
C143   C     0.22506   0.62000   0.92182   0.00000  Uiso   1.00
C144   C     0.24113   0.87581   0.24237   0.00000  Uiso   1.00
C145   C     0.23663   0.87754   0.31594   0.00000  Uiso   1.00
C146   C     0.18489   0.90920   0.33428   0.00000  Uiso   1.00
C147   C     0.11014   0.95452   0.39232   0.00000  Uiso   1.00
C148   C     0.31433   0.89520   0.18971   0.00000  Uiso   1.00
C149   C     0.37136   0.91326   0.21901   0.00000  Uiso   1.00
C150   C     0.38125   0.96126   0.19302   0.00000  Uiso   1.00
C151   C     0.42015   0.03669   0.16930   0.00000  Uiso   1.00
C152   C     0.20986   0.89696   0.11199   0.00000  Uiso   1.00
C153   C     0.22271   0.82571   0.07792   0.00000  Uiso   1.00
C154   C     0.19379   0.79097   0.00275   0.00000  Uiso   1.00
C155   C     0.21206   0.72626   0.98281   0.00000  Uiso   1.00
C156   C     0.19557   0.90468   0.18901   0.00000  Uiso   1.00
C157   C     0.14383   0.93635   0.20725   0.00000  Uiso   1.00
C158   C     0.13925   0.93813   0.28082   0.00000  Uiso   1.00
C159   C     0.26877   0.92407   0.13634   0.00000  Uiso   1.00
C160   C     0.27857   0.97206   0.11031   0.00000  Uiso   1.00
C161   C     0.33561   0.99019   0.13957   0.00000  Uiso   1.00
H162   H     0.32920   0.82133   0.25178   0.00000  Uiso   1.00
H163   H     0.32184   0.70984   0.15276   0.00000  Uiso   1.00
H164   H     0.27189   0.85520   0.35723   0.00000  Uiso   1.00
H165   H     0.40661   0.89091   0.26031   0.00000  Uiso   1.00
H166   H     0.29357   0.59895   0.01947   0.00000  Uiso   1.00
H167   H     0.18826   0.90548   0.45060   0.00000  Uiso   1.00
H168   H     0.47234   0.98078   0.24623   0.00000  Uiso   1.00
H169   H     0.17439   0.91944   0.07044   0.00000  Uiso   1.00
H170   H     0.15854   0.81332   0.96147   0.00000  Uiso   1.00
H171   H     0.10859   0.95869   0.16594   0.00000  Uiso   1.00
H172   H     0.24330   0.99440   0.06902   0.00000  Uiso   1.00
H173   H     0.16102   0.68294   0.86421   0.00000  Uiso   1.00
H174   H     0.05571   0.98947   0.29535   0.00000  Uiso   1.00
H175   H     0.33979   0.06477   0.09097   0.00000  Uiso   1.00
O176   O     0.21964   0.56937   0.87343   0.00000  Uiso   1.00
O177   O     0.08149   0.97153   0.43907   0.00000  Uiso   1.00
O178   O     0.45419   0.07031   0.17094   0.00000  Uiso   1.00
N179   N     0.26456   0.63328   0.99787   0.00000  Uiso   1.00
N180   N     0.16610   0.91986   0.40096   0.00000  Uiso   1.00
N181   N     0.43168   0.99027   0.20990   0.00000  Uiso   1.00
N182   N     0.19324   0.67848   0.91433   0.00000  Uiso   1.00
N183   N     0.09478   0.96505   0.31741   0.00000  Uiso   1.00
N184   N     0.36036   0.03546   0.12636   0.00000  Uiso   1.00
C185   C     0.85203   0.86590   0.29210   0.00000  Uiso   1.00
C186   C     0.81556   0.81720   0.29167   0.00000  Uiso   1.00
C187   C     0.77133   0.82975   0.32889   0.00000  Uiso   1.00
C188   C     0.74315   0.77873   0.32147   0.00000  Uiso   1.00
C189   C     0.68413   0.71244   0.32733   0.00000  Uiso   1.00
C190   C     0.84307   0.86177   0.20510   0.00000  Uiso   1.00
C191   C     0.82198   0.91179   0.16955   0.00000  Uiso   1.00
C192   C     0.81698   0.89827   0.08926   0.00000  Uiso   1.00
C193   C     0.80071   0.90119   0.96074   0.00000  Uiso   1.00
C194   C     0.91708   0.84134   0.32513   0.00000  Uiso   1.00
C195   C     0.95822   0.87420   0.39048   0.00000  Uiso   1.00
C196   C     0.01553   0.84350   0.41123   0.00000  Uiso   1.00
C197   C     0.11418   0.81471   0.46906   0.00000  Uiso   1.00
C198   C     0.88065   0.75296   0.21273   0.00000  Uiso   1.00
C199   C     0.83110   0.75585   0.24856   0.00000  Uiso   1.00
C200   C     0.80299   0.70479   0.24108   0.00000  Uiso   1.00
C201   C     0.75873   0.71727   0.27829   0.00000  Uiso   1.00
C202   C     0.85862   0.80042   0.16200   0.00000  Uiso   1.00
C203   C     0.85365   0.78683   0.08174   0.00000  Uiso   1.00
C204   C     0.83255   0.83682   0.04607   0.00000  Uiso   1.00
C205   C     0.93263   0.77999   0.28202   0.00000  Uiso   1.00
C206   C     0.98989   0.74924   0.30267   0.00000  Uiso   1.00
C207   C     0.03111   0.78204   0.36804   0.00000  Uiso   1.00
H208   H     0.83993   0.91367   0.32566   0.00000  Uiso   1.00
H209   H     0.75930   0.87724   0.36224   0.00000  Uiso   1.00
H210   H     0.80996   0.95926   0.20293   0.00000  Uiso   1.00
H211   H     0.94618   0.92168   0.42382   0.00000  Uiso   1.00
H212   H     0.67676   0.80980   0.38377   0.00000  Uiso   1.00
H213   H     0.78358   0.98275   0.04785   0.00000  Uiso   1.00
H214   H     0.07083   0.90351   0.51365   0.00000  Uiso   1.00
H215   H     0.89276   0.70519   0.17917   0.00000  Uiso   1.00
H216   H     0.81503   0.65732   0.20772   0.00000  Uiso   1.00
H217   H     0.86569   0.73935   0.04840   0.00000  Uiso   1.00
H218   H     0.00190   0.70176   0.26930   0.00000  Uiso   1.00
H219   H     0.72199   0.63131   0.25835   0.00000  Uiso   1.00
H220   H     0.82882   0.80426   0.92243   0.00000  Uiso   1.00
H221   H     0.11606   0.72501   0.38823   0.00000  Uiso   1.00
O222   O     0.64728   0.69283   0.34246   0.00000  Uiso   1.00
O223   O     0.78744   0.91974   0.90176   0.00000  Uiso   1.00
O224   O     0.16429   0.81577   0.51287   0.00000  Uiso   1.00
N225   N     0.69808   0.77436   0.35034   0.00000  Uiso   1.00
N226   N     0.79794   0.93606   0.03628   0.00000  Uiso   1.00
N227   N     0.06650   0.86197   0.47175   0.00000  Uiso   1.00
N228   N     0.72242   0.67831   0.28286   0.00000  Uiso   1.00
N229   N     0.82228   0.84001   0.96879   0.00000  Uiso   1.00
N230   N     0.09083   0.76593   0.40426   0.00000  Uiso   1.00
C231   C     0.93779   0.16119   0.86976   0.00000  Uiso   1.00
C232   C     0.89041   0.14686   0.78950   0.00000  Uiso   1.00
C233   C     0.89583   0.14868   0.71779   0.00000  Uiso   1.00
C234   C     0.84745   0.13401   0.65101   0.00000  Uiso   1.00
C235   C     0.78178   0.11416   0.52565   0.00000  Uiso   1.00
C236   C     0.94904   0.10254   0.90091   0.00000  Uiso   1.00
C237   C     0.00376   0.06711   0.92288   0.00000  Uiso   1.00
C238   C     0.00474   0.01513   0.94990   0.00000  Uiso   1.00
C239   C     0.03010   0.92650   0.99755   0.00000  Uiso   1.00
C240   C     0.90846   0.21408   0.92500   0.00000  Uiso   1.00
C241   C     0.92906   0.27242   0.96723   0.00000  Uiso   1.00
C242   C     0.89589   0.31435   0.01454   0.00000  Uiso   1.00
C243   C     0.85824   0.39889   0.09959   0.00000  Uiso   1.00
C244   C     0.84225   0.13190   0.87871   0.00000  Uiso   1.00
C245   C     0.83851   0.13095   0.79437   0.00000  Uiso   1.00
C246   C     0.79011   0.11628   0.72768   0.00000  Uiso   1.00
C247   C     0.79546   0.11808   0.65588   0.00000  Uiso   1.00
C248   C     0.89714   0.08664   0.90577   0.00000  Uiso   1.00
C249   C     0.89804   0.03470   0.93277   0.00000  Uiso   1.00
C250   C     0.95275   0.99920   0.95477   0.00000  Uiso   1.00
C251   C     0.85656   0.19817   0.92986   0.00000  Uiso   1.00
C252   C     0.82335   0.24002   0.97712   0.00000  Uiso   1.00
C253   C     0.84390   0.29841   0.01941   0.00000  Uiso   1.00
H254   H     0.97820   0.17357   0.86598   0.00000  Uiso   1.00
H255   H     0.93600   0.16099   0.71405   0.00000  Uiso   1.00
H256   H     0.04391   0.07943   0.91912   0.00000  Uiso   1.00
H257   H     0.96923   0.28471   0.96345   0.00000  Uiso   1.00
H258   H     0.86633   0.14000   0.54774   0.00000  Uiso   1.00
H259   H     0.09387   0.96805   0.98016   0.00000  Uiso   1.00
H260   H     0.93639   0.40092   0.07366   0.00000  Uiso   1.00
H261   H     0.80184   0.11952   0.88249   0.00000  Uiso   1.00
H262   H     0.74996   0.10397   0.73146   0.00000  Uiso   1.00
H263   H     0.85788   0.02241   0.93653   0.00000  Uiso   1.00
H264   H     0.78319   0.22769   0.98087   0.00000  Uiso   1.00
H265   H     0.71534   0.09372   0.56187   0.00000  Uiso   1.00
H266   H     0.94288   0.92177   0.99430   0.00000  Uiso   1.00
H267   H     0.78540   0.35464   0.08779   0.00000  Uiso   1.00
O268   O     0.75990   0.10759   0.45515   0.00000  Uiso   1.00
O269   O     0.05842   0.88200   0.02249   0.00000  Uiso   1.00
O270   O     0.85181   0.44992   0.14515   0.00000  Uiso   1.00
N271   N     0.83791   0.13126   0.57180   0.00000  Uiso   1.00
N272   N     0.05065   0.97048   0.97607   0.00000  Uiso   1.00
N273   N     0.90342   0.37518   0.06350   0.00000  Uiso   1.00
N274   N     0.75666   0.10636   0.57940   0.00000  Uiso   1.00
N275   N     0.96940   0.94558   0.98368   0.00000  Uiso   1.00
N276   N     0.82218   0.35028   0.07111   0.00000  Uiso   1.00
C277   C     0.55186   0.81985   0.13253   0.00000  Uiso   1.00
C278   C     0.57280   0.87679   0.20146   0.00000  Uiso   1.00
C279   C     0.58728   0.87949   0.28156   0.00000  Uiso   1.00
C280   C     0.60551   0.93589   0.33544   0.00000  Uiso   1.00
C281   C     0.63751   0.01642   0.44634   0.00000  Uiso   1.00
C282   C     0.59511   0.80434   0.08305   0.00000  Uiso   1.00
C283   C     0.62833   0.74612   0.06360   0.00000  Uiso   1.00
C284   C     0.66534   0.74153   0.01779   0.00000  Uiso   1.00
C285   C     0.73194   0.70956   0.94482   0.00000  Uiso   1.00
C286   C     0.49222   0.84376   0.08102   0.00000  Uiso   1.00
C287   C     0.43893   0.81868   0.05984   0.00000  Uiso   1.00
C288   C     0.38931   0.84727   0.01231   0.00000  Uiso   1.00
C289   C     0.29615   0.87651   0.93618   0.00000  Uiso   1.00
C290   C     0.55849   0.91520   0.08576   0.00000  Uiso   1.00
C291   C     0.57641   0.92858   0.17605   0.00000  Uiso   1.00
C292   C     0.59462   0.98499   0.22983   0.00000  Uiso   1.00
C293   C     0.60911   0.98778   0.31000   0.00000  Uiso   1.00
C294   C     0.59872   0.85612   0.05765   0.00000  Uiso   1.00
C295   C     0.63567   0.85162   0.01186   0.00000  Uiso   1.00
C296   C     0.66895   0.79342   0.99235   0.00000  Uiso   1.00
C297   C     0.49582   0.89555   0.05562   0.00000  Uiso   1.00
C298   C     0.44627   0.92418   0.00811   0.00000  Uiso   1.00
C299   C     0.39292   0.89916   0.98686   0.00000  Uiso   1.00
H300   H     0.54906   0.77952   0.15230   0.00000  Uiso   1.00
H301   H     0.58449   0.83940   0.30120   0.00000  Uiso   1.00
H302   H     0.62553   0.70605   0.08326   0.00000  Uiso   1.00
H303   H     0.43616   0.77860   0.07951   0.00000  Uiso   1.00
H304   H     0.62538   0.92862   0.45508   0.00000  Uiso   1.00
H305   H     0.71191   0.64744   0.99552   0.00000  Uiso   1.00
H306   H     0.31258   0.80042   0.98761   0.00000  Uiso   1.00
H307   H     0.56130   0.95552   0.06598   0.00000  Uiso   1.00
H308   H     0.59740   0.02506   0.21015   0.00000  Uiso   1.00
H309   H     0.63845   0.89171   0.99221   0.00000  Uiso   1.00
H310   H     0.44908   0.96426   0.98846   0.00000  Uiso   1.00
H311   H     0.63586   0.07931   0.38118   0.00000  Uiso   1.00
H312   H     0.72239   0.79812   0.92162   0.00000  Uiso   1.00
H313   H     0.32306   0.95111   0.91371   0.00000  Uiso   1.00
O314   O     0.65417   0.04653   0.51452   0.00000  Uiso   1.00
O315   O     0.76768   0.67762   0.91159   0.00000  Uiso   1.00
O316   O     0.24377   0.87834   0.90122   0.00000  Uiso   1.00
N317   N     0.62288   0.95454   0.41790   0.00000  Uiso   1.00
N318   N     0.70379   0.69166   0.98825   0.00000  Uiso   1.00
N319   N     0.33045   0.83468   0.98084   0.00000  Uiso   1.00
N320   N     0.62852   0.03563   0.37814   0.00000  Uiso   1.00
N321   N     0.70943   0.77274   0.94849   0.00000  Uiso   1.00
N322   N     0.33609   0.91576   0.94108   0.00000  Uiso   1.00
C323   C     0.83203   0.41721   0.72760   0.00000  Uiso   1.00
C324   C     0.88515   0.44987   0.78762   0.00000  Uiso   1.00
C325   C     0.94459   0.42755   0.79416   0.00000  Uiso   1.00
C326   C     0.98654   0.46438   0.85292   0.00000  Uiso   1.00
C327   C     0.07161   0.50642   0.93843   0.00000  Uiso   1.00
C328   C     0.79408   0.46559   0.68255   0.00000  Uiso   1.00
C329   C     0.77694   0.45649   0.60074   0.00000  Uiso   1.00
C330   C     0.74222   0.50656   0.57105   0.00000  Uiso   1.00
C331   C     0.68585   0.57300   0.49344   0.00000  Uiso   1.00
C332   C     0.79549   0.40819   0.77616   0.00000  Uiso   1.00
C333   C     0.77951   0.35082   0.77305   0.00000  Uiso   1.00
C334   C     0.74596   0.35256   0.82216   0.00000  Uiso   1.00
C335   C     0.69178   0.32987   0.88990   0.00000  Uiso   1.00
C336   C     0.80085   0.52230   0.82033   0.00000  Uiso   1.00
C337   C     0.86822   0.50695   0.83799   0.00000  Uiso   1.00
C338   C     0.91009   0.54382   0.89676   0.00000  Uiso   1.00
C339   C     0.96958   0.52157   0.90338   0.00000  Uiso   1.00
C340   C     0.77715   0.52267   0.73292   0.00000  Uiso   1.00
C341   C     0.74244   0.57277   0.70334   0.00000  Uiso   1.00
C342   C     0.72525   0.56375   0.62151   0.00000  Uiso   1.00
C343   C     0.77855   0.46527   0.82654   0.00000  Uiso   1.00
C344   C     0.74502   0.46710   0.87566   0.00000  Uiso   1.00
C345   C     0.72900   0.40975   0.87263   0.00000  Uiso   1.00
H346   H     0.84521   0.37277   0.68837   0.00000  Uiso   1.00
H347   H     0.95768   0.38337   0.75516   0.00000  Uiso   1.00
H348   H     0.79005   0.41231   0.56177   0.00000  Uiso   1.00
H349   H     0.79262   0.30666   0.73406   0.00000  Uiso   1.00
H350   H     0.07489   0.42032   0.85139   0.00000  Uiso   1.00
H351   H     0.72142   0.48133   0.44363   0.00000  Uiso   1.00
H352   H     0.72685   0.25854   0.80693   0.00000  Uiso   1.00
H353   H     0.78766   0.56674   0.85955   0.00000  Uiso   1.00
H354   H     0.89697   0.58800   0.93573   0.00000  Uiso   1.00
H355   H     0.72934   0.61693   0.74234   0.00000  Uiso   1.00
H356   H     0.73192   0.51128   0.91463   0.00000  Uiso   1.00
H357   H     0.02563   0.58640   0.99795   0.00000  Uiso   1.00
H358   H     0.67215   0.64741   0.59018   0.00000  Uiso   1.00
H359   H     0.67758   0.42462   0.95349   0.00000  Uiso   1.00
O360   O     0.12321   0.51385   0.97168   0.00000  Uiso   1.00
O361   O     0.65945   0.59388   0.43671   0.00000  Uiso   1.00
O362   O     0.66658   0.30159   0.91335   0.00000  Uiso   1.00
N363   N     0.04830   0.45648   0.87544   0.00000  Uiso   1.00
N364   N     0.71783   0.51353   0.49421   0.00000  Uiso   1.00
N365   N     0.72289   0.30524   0.83385   0.00000  Uiso   1.00
N366   N     0.02179   0.54585   0.95430   0.00000  Uiso   1.00
N367   N     0.69132   0.60289   0.57307   0.00000  Uiso   1.00
N368   N     0.69638   0.39460   0.91271   0.00000  Uiso   1.00
C369   C     0.88895   0.90416   0.56626   0.00000  Uiso   1.00
C370   C     0.94494   0.93499   0.61947   0.00000  Uiso   1.00
C371   C     0.97047   0.97762   0.60256   0.00000  Uiso   1.00
C372   C     0.02164   0.00046   0.65892   0.00000  Uiso   1.00
C373   C     0.10480   0.05127   0.73080   0.00000  Uiso   1.00
C374   C     0.84623   0.92065   0.61663   0.00000  Uiso   1.00
C375   C     0.78877   0.95120   0.59733   0.00000  Uiso   1.00
C376   C     0.75684   0.96195   0.65129   0.00000  Uiso   1.00
C377   C     0.68674   0.99044   0.71874   0.00000  Uiso   1.00
C378   C     0.90684   0.83269   0.55188   0.00000  Uiso   1.00
C379   C     0.90032   0.78929   0.47813   0.00000  Uiso   1.00
C380   C     0.91941   0.72598   0.47758   0.00000  Uiso   1.00
C381   C     0.94341   0.61792   0.44449   0.00000  Uiso   1.00
C382   C     0.93442   0.86890   0.69641   0.00000  Uiso   1.00
C383   C     0.96963   0.91584   0.69016   0.00000  Uiso   1.00
C384   C     0.02078   0.93861   0.74655   0.00000  Uiso   1.00
C385   C     0.04638   0.98127   0.72973   0.00000  Uiso   1.00
C386   C     0.87093   0.90150   0.68732   0.00000  Uiso   1.00
C387   C     0.83907   0.91219   0.74132   0.00000  Uiso   1.00
C388   C     0.78158   0.94276   0.72211   0.00000  Uiso   1.00
C389   C     0.93154   0.81354   0.62257   0.00000  Uiso   1.00
C390   C     0.95063   0.75028   0.62213   0.00000  Uiso   1.00
C391   C     0.94415   0.70680   0.54840   0.00000  Uiso   1.00
H392   H     0.86972   0.91907   0.51122   0.00000  Uiso   1.00
H393   H     0.95134   0.99244   0.54785   0.00000  Uiso   1.00
H394   H     0.76967   0.96601   0.54262   0.00000  Uiso   1.00
H395   H     0.88121   0.80413   0.42344   0.00000  Uiso   1.00
H396   H     0.05272   0.06535   0.61964   0.00000  Uiso   1.00
H397   H     0.66964   0.00961   0.60859   0.00000  Uiso   1.00
H398   H     0.90483   0.66825   0.35729   0.00000  Uiso   1.00
H399   H     0.95364   0.85399   0.75145   0.00000  Uiso   1.00
H400   H     0.03988   0.92379   0.80126   0.00000  Uiso   1.00
H401   H     0.85820   0.89736   0.79602   0.00000  Uiso   1.00
H402   H     0.96974   0.73548   0.67685   0.00000  Uiso   1.00
H403   H     0.12457   0.00963   0.82532   0.00000  Uiso   1.00
H404   H     0.74149   0.95389   0.81427   0.00000  Uiso   1.00
H405   H     0.97669   0.61253   0.56296   0.00000  Uiso   1.00
O406   O     0.14384   0.08459   0.75092   0.00000  Uiso   1.00
O407   O     0.64126   0.01146   0.73642   0.00000  Uiso   1.00
O408   O     0.94983   0.56360   0.40671   0.00000  Uiso   1.00
N409   N     0.05780   0.04265   0.66121   0.00000  Uiso   1.00
N410   N     0.69965   0.99055   0.65088   0.00000  Uiso   1.00
N411   N     0.91952   0.67140   0.41593   0.00000  Uiso   1.00
N412   N     0.09647   0.01267   0.77188   0.00000  Uiso   1.00
N413   N     0.73831   0.96056   0.76155   0.00000  Uiso   1.00
N414   N     0.95819   0.64142   0.52660   0.00000  Uiso   1.00
C415   C     0.92348   0.26037   0.26168   0.00000  Uiso   1.00
C416   C     0.94947   0.30610   0.34150   0.00000  Uiso   1.00
C417   C     0.94405   0.37170   0.35661   0.00000  Uiso   1.00
C418   C     0.97106   0.40511   0.43355   0.00000  Uiso   1.00
C419   C     0.00669   0.48085   0.54841   0.00000  Uiso   1.00
C420   C     0.97578   0.21370   0.24191   0.00000  Uiso   1.00
C421   C     0.99246   0.20159   0.17329   0.00000  Uiso   1.00
C422   C     0.04161   0.15721   0.16640   0.00000  Uiso   1.00
C423   C     0.11805   0.08946   0.12662   0.00000  Uiso   1.00
C424   C     0.88467   0.22204   0.27684   0.00000  Uiso   1.00
C425   C     0.82475   0.21693   0.23758   0.00000  Uiso   1.00
C426   C     0.79719   0.17956   0.26009   0.00000  Uiso   1.00
C427   C     0.73217   0.12476   0.27455   0.00000  Uiso   1.00
C428   C     0.98109   0.20306   0.37144   0.00000  Uiso   1.00
C429   C     0.98077   0.27497   0.40112   0.00000  Uiso   1.00
C430   C     0.00779   0.30830   0.47806   0.00000  Uiso   1.00
C431   C     0.00241   0.37393   0.49328   0.00000  Uiso   1.00
C432   C     0.00707   0.18257   0.30153   0.00000  Uiso   1.00
C433   C     0.05620   0.13819   0.29473   0.00000  Uiso   1.00
C434   C     0.07296   0.12603   0.22612   0.00000  Uiso   1.00
C435   C     0.91596   0.19091   0.33646   0.00000  Uiso   1.00
C436   C     0.88849   0.15354   0.35903   0.00000  Uiso   1.00
C437   C     0.82854   0.14838   0.31981   0.00000  Uiso   1.00
H438   H     0.89912   0.28460   0.21526   0.00000  Uiso   1.00
H439   H     0.91984   0.39577   0.31045   0.00000  Uiso   1.00
H440   H     0.96824   0.22568   0.12716   0.00000  Uiso   1.00
H441   H     0.80055   0.24102   0.19144   0.00000  Uiso   1.00
H442   H     0.95662   0.50529   0.44228   0.00000  Uiso   1.00
H443   H     0.05866   0.14664   0.05578   0.00000  Uiso   1.00
H444   H     0.70507   0.17899   0.19134   0.00000  Uiso   1.00
H445   H     0.00545   0.17883   0.41786   0.00000  Uiso   1.00
H446   H     0.03200   0.28420   0.52418   0.00000  Uiso   1.00
H447   H     0.08040   0.11411   0.34088   0.00000  Uiso   1.00
H448   H     0.91272   0.12946   0.40517   0.00000  Uiso   1.00
H449   H     0.04766   0.41473   0.61575   0.00000  Uiso   1.00
H450   H     0.14970   0.05608   0.22925   0.00000  Uiso   1.00
H451   H     0.79610   0.08844   0.36481   0.00000  Uiso   1.00
O452   O     0.01771   0.53123   0.59530   0.00000  Uiso   1.00
O453   O     0.15157   0.06069   0.08821   0.00000  Uiso   1.00
O454   O     0.68766   0.10314   0.26606   0.00000  Uiso   1.00
N455   N     0.97440   0.46952   0.46852   0.00000  Uiso   1.00
N456   N     0.06980   0.13421   0.10717   0.00000  Uiso   1.00
N457   N     0.73922   0.16444   0.23389   0.00000  Uiso   1.00
N458   N     0.02338   0.42079   0.56187   0.00000  Uiso   1.00
N459   N     0.11879   0.08548   0.20051   0.00000  Uiso   1.00
N460   N     0.78821   0.11572   0.32723   0.00000  Uiso   1.00
C461   C     0.42589   0.28561   0.03040   0.00000  Uiso   1.00
C462   C     0.46637   0.33426   0.04147   0.00000  Uiso   1.00
C463   C     0.51178   0.32387   0.00673   0.00000  Uiso   1.00
C464   C     0.54373   0.37444   0.02432   0.00000  Uiso   1.00
C465   C     0.60859   0.44103   0.03386   0.00000  Uiso   1.00
C466   C     0.43245   0.28113   0.11360   0.00000  Uiso   1.00
C467   C     0.44934   0.22606   0.13951   0.00000  Uiso   1.00
C468   C     0.45273   0.23190   0.21782   0.00000  Uiso   1.00
C469   C     0.46489   0.21599   0.33933   0.00000  Uiso   1.00
C470   C     0.36241   0.31565   0.99986   0.00000  Uiso   1.00
C471   C     0.32039   0.28960   0.93015   0.00000  Uiso   1.00
C472   C     0.26480   0.32451   0.91270   0.00000  Uiso   1.00
C473   C     0.16819   0.36220   0.85761   0.00000  Uiso   1.00
C474   C     0.40188   0.39391   0.12340   0.00000  Uiso   1.00
C475   C     0.45333   0.39309   0.09198   0.00000  Uiso   1.00
C476   C     0.48522   0.44370   0.10963   0.00000  Uiso   1.00
C477   C     0.53067   0.43338   0.07492   0.00000  Uiso   1.00
C478   C     0.41941   0.33995   0.16411   0.00000  Uiso   1.00
C479   C     0.42278   0.34588   0.24240   0.00000  Uiso   1.00
C480   C     0.43967   0.29084   0.26842   0.00000  Uiso   1.00
C481   C     0.34936   0.37448   0.05037   0.00000  Uiso   1.00
C482   C     0.29383   0.40943   0.03304   0.00000  Uiso   1.00
C483   C     0.25173   0.38344   0.96331   0.00000  Uiso   1.00
H484   H     0.43605   0.23981   0.99107   0.00000  Uiso   1.00
H485   H     0.52187   0.27833   0.96765   0.00000  Uiso   1.00
H486   H     0.45943   0.18054   0.10040   0.00000  Uiso   1.00
H487   H     0.33050   0.24407   0.89107   0.00000  Uiso   1.00
H488   H     0.61127   0.34698   0.96398   0.00000  Uiso   1.00
H489   H     0.47960   0.14077   0.24389   0.00000  Uiso   1.00
H490   H     0.20772   0.27475   0.80247   0.00000  Uiso   1.00
H491   H     0.39173   0.43971   0.16273   0.00000  Uiso   1.00
H492   H     0.47512   0.48921   0.14872   0.00000  Uiso   1.00
H493   H     0.41268   0.39141   0.28147   0.00000  Uiso   1.00
H494   H     0.28375   0.45495   0.07214   0.00000  Uiso   1.00
H495   H     0.57333   0.51814   0.11095   0.00000  Uiso   1.00
H496   H     0.44165   0.31193   0.39085   0.00000  Uiso   1.00
H497   H     0.16978   0.44590   0.94944   0.00000  Uiso   1.00
O498   O     0.64797   0.46151   0.02517   0.00000  Uiso   1.00
O499   O     0.47520   0.19097   0.39240   0.00000  Uiso   1.00
O500   O     0.11851   0.36674   0.81327   0.00000  Uiso   1.00
N501   N     0.59089   0.38048   0.00048   0.00000  Uiso   1.00
N502   N     0.46779   0.18768   0.26218   0.00000  Uiso   1.00
N503   N     0.21361   0.31293   0.84950   0.00000  Uiso   1.00
N504   N     0.57048   0.47257   0.07956   0.00000  Uiso   1.00
N505   N     0.44737   0.27978   0.34126   0.00000  Uiso   1.00
N506   N     0.19319   0.40503   0.92858   0.00000  Uiso   1.00
C507   C     0.37363   0.91352   0.59169   0.00000  Uiso   1.00
C508   C     0.42351   0.94240   0.66303   0.00000  Uiso   1.00
C509   C     0.44359   0.92751   0.73579   0.00000  Uiso   1.00
C510   C     0.48968   0.95917   0.79346   0.00000  Uiso   1.00
C511   C     0.56330   0.99720   0.90648   0.00000  Uiso   1.00
C512   C     0.32840   0.96918   0.57078   0.00000  Uiso   1.00
C513   C     0.26851   0.97680   0.56596   0.00000  Uiso   1.00
C514   C     0.23452   0.03100   0.54596   0.00000  Uiso   1.00
C515   C     0.16047   0.11058   0.51569   0.00000  Uiso   1.00
C516   C     0.40060   0.88568   0.52278   0.00000  Uiso   1.00
C517   C     0.40140   0.82309   0.47760   0.00000  Uiso   1.00
C518   C     0.42819   0.80699   0.41718   0.00000  Uiso   1.00
C519   C     0.46624   0.75693   0.31239   0.00000  Uiso   1.00
C520   C     0.41978   0.99625   0.56472   0.00000  Uiso   1.00
C521   C     0.44858   0.98734   0.64838   0.00000  Uiso   1.00
C522   C     0.49465   0.01903   0.70596   0.00000  Uiso   1.00
C523   C     0.51479   0.00418   0.77879   0.00000  Uiso   1.00
C524   C     0.35346   0.01411   0.55613   0.00000  Uiso   1.00
C525   C     0.31956   0.06832   0.53613   0.00000  Uiso   1.00
C526   C     0.25963   0.07602   0.53129   0.00000  Uiso   1.00
C527   C     0.42567   0.93061   0.50814   0.00000  Uiso   1.00
C528   C     0.45246   0.91461   0.44777   0.00000  Uiso   1.00
C529   C     0.45330   0.85201   0.40250   0.00000  Uiso   1.00
H530   H     0.35412   0.87855   0.60309   0.00000  Uiso   1.00
H531   H     0.42418   0.89274   0.74711   0.00000  Uiso   1.00
H532   H     0.24912   0.94201   0.57729   0.00000  Uiso   1.00
H533   H     0.38200   0.78833   0.48895   0.00000  Uiso   1.00
H534   H     0.51290   0.92830   0.90032   0.00000  Uiso   1.00
H535   H     0.14377   0.03220   0.54223   0.00000  Uiso   1.00
H536   H     0.42397   0.70812   0.35594   0.00000  Uiso   1.00
H537   H     0.43929   0.03123   0.55332   0.00000  Uiso   1.00
H538   H     0.51403   0.05380   0.69460   0.00000  Uiso   1.00
H539   H     0.33897   0.10308   0.52479   0.00000  Uiso   1.00
H540   H     0.47185   0.94939   0.43645   0.00000  Uiso   1.00
H541   H     0.58582   0.05903   0.85771   0.00000  Uiso   1.00
H542   H     0.21670   0.16292   0.49962   0.00000  Uiso   1.00
H543   H     0.49689   0.83885   0.31333   0.00000  Uiso   1.00
O544   O     0.59697   0.00577   0.97287   0.00000  Uiso   1.00
O545   O     0.11270   0.14207   0.50305   0.00000  Uiso   1.00
O546   O     0.48031   0.71690   0.25865   0.00000  Uiso   1.00
N547   N     0.51981   0.95596   0.87090   0.00000  Uiso   1.00
N548   N     0.17470   0.05310   0.53612   0.00000  Uiso   1.00
N549   N     0.43665   0.75013   0.36194   0.00000  Uiso   1.00
N550   N     0.55905   0.02630   0.84797   0.00000  Uiso   1.00
N551   N     0.21395   0.12344   0.51319   0.00000  Uiso   1.00
N552   N     0.47589   0.82047   0.33901   0.00000  Uiso   1.00
