data_job_01199
_audit_creation_date              2018-12-19
_audit_creation_method            'Materials Studio'
_symmetry_space_group_name_H-M    'P1'
_symmetry_Int_Tables_number       1
_symmetry_cell_setting            triclinic
loop_
_symmetry_equiv_pos_as_xyz
  x,y,z
_cell_length_a                    13.0327
_cell_length_b                    21.6027
_cell_length_c                    21.2301
_cell_angle_alpha                 90.0000
_cell_angle_beta                  90.0000
_cell_angle_gamma                 90.0000
loop_
_atom_site_label
_atom_site_type_symbol
_atom_site_fract_x
_atom_site_fract_y
_atom_site_fract_z
_atom_site_U_iso_or_equiv
_atom_site_adp_type
_atom_site_occupancy
C1     C     0.81009   0.36040   0.47331   0.00000  Uiso   1.00
C2     C     0.77776   0.29856   0.50170   0.00000  Uiso   1.00
C3     C     0.81470   0.24087   0.48403   0.00000  Uiso   1.00
C4     C     0.77545   0.18987   0.51571   0.00000  Uiso   1.00
C5     C     0.73639   0.09286   0.55252   0.00000  Uiso   1.00
C6     C     0.71172   0.39110   0.45013   0.00000  Uiso   1.00
C7     C     0.69316   0.41121   0.38910   0.00000  Uiso   1.00
C8     C     0.59832   0.43812   0.37737   0.00000  Uiso   1.00
C9     C     0.45678   0.48481   0.33413   0.00000  Uiso   1.00
C10    C     0.84798   0.39979   0.52819   0.00000  Uiso   1.00
C11    C     0.94397   0.42723   0.53279   0.00000  Uiso   1.00
C12    C     0.96384   0.46147   0.58678   0.00000  Uiso   1.00
C13    C     0.03386   0.52165   0.66474   0.00000  Uiso   1.00
C14    C     0.67467   0.37243   0.56100   0.00000  Uiso   1.00
C15    C     0.70420   0.30510   0.54933   0.00000  Uiso   1.00
C16    C     0.66488   0.25418   0.58105   0.00000  Uiso   1.00
C17    C     0.70176   0.19642   0.56342   0.00000  Uiso   1.00
C18    C     0.63817   0.39763   0.49776   0.00000  Uiso   1.00
C19    C     0.54334   0.42452   0.48612   0.00000  Uiso   1.00
C20    C     0.52463   0.44467   0.42508   0.00000  Uiso   1.00
C21    C     0.77443   0.40632   0.57582   0.00000  Uiso   1.00
C22    C     0.79415   0.44053   0.62981   0.00000  Uiso   1.00
C23    C     0.89015   0.46801   0.63449   0.00000  Uiso   1.00
H24    H     0.86735   0.35532   0.43623   0.00000  Uiso   1.00
H25    H     0.87162   0.23583   0.44717   0.00000  Uiso   1.00
H26    H     0.75010   0.40616   0.35226   0.00000  Uiso   1.00
H27    H     0.00087   0.42216   0.49593   0.00000  Uiso   1.00
H28    H     0.84389   0.10624   0.48028   0.00000  Uiso   1.00
H29    H     0.58767   0.46540   0.28016   0.00000  Uiso   1.00
H30    H     0.11647   0.49915   0.58312   0.00000  Uiso   1.00
H31    H     0.61740   0.37752   0.59808   0.00000  Uiso   1.00
H32    H     0.60796   0.25925   0.61790   0.00000  Uiso   1.00
H33    H     0.48644   0.42957   0.52299   0.00000  Uiso   1.00
H34    H     0.73721   0.44558   0.66666   0.00000  Uiso   1.00
H35    H     0.62989   0.12524   0.61885   0.00000  Uiso   1.00
H36    H     0.37367   0.48441   0.41873   0.00000  Uiso   1.00
H37    H     0.90247   0.51816   0.72169   0.00000  Uiso   1.00
O38    O     0.73516   0.03754   0.55966   0.00000  Uiso   1.00
O39    O     0.39902   0.50875   0.29712   0.00000  Uiso   1.00
O40    O     0.09280   0.55303   0.69459   0.00000  Uiso   1.00
N41    N     0.79483   0.12694   0.51018   0.00000  Uiso   1.00
N42    N     0.55528   0.46273   0.32308   0.00000  Uiso   1.00
N43    N     0.04966   0.49430   0.60631   0.00000  Uiso   1.00
N44    N     0.67968   0.13717   0.58474   0.00000  Uiso   1.00
N45    N     0.44013   0.47295   0.39764   0.00000  Uiso   1.00
N46    N     0.93451   0.50452   0.68087   0.00000  Uiso   1.00
C47    C     0.31009   0.86040   0.47331   0.00000  Uiso   1.00
C48    C     0.27776   0.79856   0.50170   0.00000  Uiso   1.00
C49    C     0.31470   0.74087   0.48403   0.00000  Uiso   1.00
C50    C     0.27545   0.68987   0.51571   0.00000  Uiso   1.00
C51    C     0.23639   0.59286   0.55252   0.00000  Uiso   1.00
C52    C     0.21172   0.89110   0.45013   0.00000  Uiso   1.00
C53    C     0.19316   0.91121   0.38910   0.00000  Uiso   1.00
C54    C     0.09832   0.93812   0.37737   0.00000  Uiso   1.00
C55    C     0.95678   0.98481   0.33413   0.00000  Uiso   1.00
C56    C     0.34798   0.89979   0.52819   0.00000  Uiso   1.00
C57    C     0.44397   0.92723   0.53279   0.00000  Uiso   1.00
C58    C     0.46384   0.96147   0.58678   0.00000  Uiso   1.00
C59    C     0.53386   0.02165   0.66474   0.00000  Uiso   1.00
C60    C     0.17467   0.87243   0.56100   0.00000  Uiso   1.00
C61    C     0.20420   0.80510   0.54933   0.00000  Uiso   1.00
C62    C     0.16488   0.75418   0.58105   0.00000  Uiso   1.00
C63    C     0.20176   0.69642   0.56342   0.00000  Uiso   1.00
C64    C     0.13817   0.89763   0.49776   0.00000  Uiso   1.00
C65    C     0.04334   0.92452   0.48612   0.00000  Uiso   1.00
C66    C     0.02463   0.94467   0.42508   0.00000  Uiso   1.00
C67    C     0.27443   0.90632   0.57582   0.00000  Uiso   1.00
C68    C     0.29415   0.94053   0.62981   0.00000  Uiso   1.00
C69    C     0.39015   0.96801   0.63449   0.00000  Uiso   1.00
H70    H     0.36735   0.85532   0.43623   0.00000  Uiso   1.00
H71    H     0.37162   0.73583   0.44717   0.00000  Uiso   1.00
H72    H     0.25010   0.90616   0.35226   0.00000  Uiso   1.00
H73    H     0.50087   0.92216   0.49593   0.00000  Uiso   1.00
H74    H     0.34389   0.60624   0.48028   0.00000  Uiso   1.00
H75    H     0.08767   0.96540   0.28016   0.00000  Uiso   1.00
H76    H     0.61647   0.99915   0.58312   0.00000  Uiso   1.00
H77    H     0.11740   0.87752   0.59808   0.00000  Uiso   1.00
H78    H     0.10796   0.75925   0.61790   0.00000  Uiso   1.00
H79    H     0.98644   0.92957   0.52299   0.00000  Uiso   1.00
H80    H     0.23721   0.94558   0.66666   0.00000  Uiso   1.00
H81    H     0.12989   0.62524   0.61885   0.00000  Uiso   1.00
H82    H     0.87367   0.98441   0.41873   0.00000  Uiso   1.00
H83    H     0.40247   0.01816   0.72169   0.00000  Uiso   1.00
O84    O     0.23516   0.53754   0.55966   0.00000  Uiso   1.00
O85    O     0.89902   0.00875   0.29712   0.00000  Uiso   1.00
O86    O     0.59280   0.05303   0.69459   0.00000  Uiso   1.00
N87    N     0.29483   0.62694   0.51018   0.00000  Uiso   1.00
N88    N     0.05528   0.96273   0.32308   0.00000  Uiso   1.00
N89    N     0.54966   0.99430   0.60631   0.00000  Uiso   1.00
N90    N     0.17968   0.63717   0.58474   0.00000  Uiso   1.00
N91    N     0.94013   0.97295   0.39764   0.00000  Uiso   1.00
N92    N     0.43451   0.00452   0.68087   0.00000  Uiso   1.00
C93    C     0.18991   0.63960   0.97331   0.00000  Uiso   1.00
C94    C     0.22224   0.70144   0.00170   0.00000  Uiso   1.00
C95    C     0.18530   0.75913   0.98403   0.00000  Uiso   1.00
C96    C     0.22455   0.81013   0.01571   0.00000  Uiso   1.00
C97    C     0.26361   0.90714   0.05252   0.00000  Uiso   1.00
C98    C     0.28828   0.60890   0.95013   0.00000  Uiso   1.00
C99    C     0.30684   0.58879   0.88910   0.00000  Uiso   1.00
C100   C     0.40168   0.56188   0.87737   0.00000  Uiso   1.00
C101   C     0.54322   0.51519   0.83413   0.00000  Uiso   1.00
C102   C     0.15202   0.60021   0.02819   0.00000  Uiso   1.00
C103   C     0.05603   0.57277   0.03279   0.00000  Uiso   1.00
C104   C     0.03616   0.53853   0.08678   0.00000  Uiso   1.00
C105   C     0.96614   0.47835   0.16474   0.00000  Uiso   1.00
C106   C     0.32533   0.62757   0.06100   0.00000  Uiso   1.00
C107   C     0.29580   0.69490   0.04933   0.00000  Uiso   1.00
C108   C     0.33512   0.74582   0.08105   0.00000  Uiso   1.00
C109   C     0.29824   0.80358   0.06342   0.00000  Uiso   1.00
C110   C     0.36183   0.60237   0.99776   0.00000  Uiso   1.00
C111   C     0.45666   0.57548   0.98612   0.00000  Uiso   1.00
C112   C     0.47537   0.55533   0.92508   0.00000  Uiso   1.00
C113   C     0.22557   0.59368   0.07582   0.00000  Uiso   1.00
C114   C     0.20585   0.55947   0.12981   0.00000  Uiso   1.00
C115   C     0.10985   0.53199   0.13449   0.00000  Uiso   1.00
H116   H     0.13265   0.64468   0.93623   0.00000  Uiso   1.00
H117   H     0.12838   0.76417   0.94717   0.00000  Uiso   1.00
H118   H     0.24990   0.59384   0.85226   0.00000  Uiso   1.00
H119   H     0.99913   0.57784   0.99593   0.00000  Uiso   1.00
H120   H     0.15611   0.89376   0.98028   0.00000  Uiso   1.00
H121   H     0.41233   0.53460   0.78016   0.00000  Uiso   1.00
H122   H     0.88353   0.50085   0.08312   0.00000  Uiso   1.00
H123   H     0.38260   0.62248   0.09808   0.00000  Uiso   1.00
H124   H     0.39204   0.74075   0.11790   0.00000  Uiso   1.00
H125   H     0.51356   0.57043   0.02299   0.00000  Uiso   1.00
H126   H     0.26279   0.55442   0.16666   0.00000  Uiso   1.00
H127   H     0.37011   0.87476   0.11885   0.00000  Uiso   1.00
H128   H     0.62633   0.51559   0.91873   0.00000  Uiso   1.00
H129   H     0.09753   0.48184   0.22169   0.00000  Uiso   1.00
O130   O     0.26484   0.96246   0.05966   0.00000  Uiso   1.00
O131   O     0.60098   0.49125   0.79712   0.00000  Uiso   1.00
O132   O     0.90720   0.44697   0.19459   0.00000  Uiso   1.00
N133   N     0.20517   0.87306   0.01018   0.00000  Uiso   1.00
N134   N     0.44472   0.53727   0.82308   0.00000  Uiso   1.00
N135   N     0.95034   0.50570   0.10631   0.00000  Uiso   1.00
N136   N     0.32032   0.86283   0.08474   0.00000  Uiso   1.00
N137   N     0.55987   0.52705   0.89764   0.00000  Uiso   1.00
N138   N     0.06549   0.49548   0.18087   0.00000  Uiso   1.00
C139   C     0.68991   0.13960   0.97331   0.00000  Uiso   1.00
C140   C     0.72224   0.20144   0.00170   0.00000  Uiso   1.00
C141   C     0.68530   0.25913   0.98403   0.00000  Uiso   1.00
C142   C     0.72455   0.31013   0.01571   0.00000  Uiso   1.00
C143   C     0.76361   0.40714   0.05252   0.00000  Uiso   1.00
C144   C     0.78828   0.10890   0.95013   0.00000  Uiso   1.00
C145   C     0.80684   0.08879   0.88910   0.00000  Uiso   1.00
C146   C     0.90168   0.06188   0.87737   0.00000  Uiso   1.00
C147   C     0.04322   0.01519   0.83413   0.00000  Uiso   1.00
C148   C     0.65202   0.10021   0.02819   0.00000  Uiso   1.00
C149   C     0.55603   0.07277   0.03279   0.00000  Uiso   1.00
C150   C     0.53616   0.03853   0.08678   0.00000  Uiso   1.00
C151   C     0.46614   0.97835   0.16474   0.00000  Uiso   1.00
C152   C     0.82533   0.12757   0.06100   0.00000  Uiso   1.00
C153   C     0.79580   0.19490   0.04933   0.00000  Uiso   1.00
C154   C     0.83512   0.24582   0.08105   0.00000  Uiso   1.00
C155   C     0.79824   0.30358   0.06342   0.00000  Uiso   1.00
C156   C     0.86183   0.10237   0.99776   0.00000  Uiso   1.00
C157   C     0.95666   0.07548   0.98612   0.00000  Uiso   1.00
C158   C     0.97537   0.05533   0.92508   0.00000  Uiso   1.00
C159   C     0.72557   0.09368   0.07582   0.00000  Uiso   1.00
C160   C     0.70585   0.05947   0.12981   0.00000  Uiso   1.00
C161   C     0.60985   0.03199   0.13449   0.00000  Uiso   1.00
H162   H     0.63265   0.14468   0.93623   0.00000  Uiso   1.00
H163   H     0.62838   0.26417   0.94717   0.00000  Uiso   1.00
H164   H     0.74990   0.09384   0.85226   0.00000  Uiso   1.00
H165   H     0.49913   0.07784   0.99593   0.00000  Uiso   1.00
H166   H     0.65611   0.39376   0.98028   0.00000  Uiso   1.00
H167   H     0.91233   0.03460   0.78016   0.00000  Uiso   1.00
H168   H     0.38353   0.00085   0.08312   0.00000  Uiso   1.00
H169   H     0.88260   0.12248   0.09808   0.00000  Uiso   1.00
H170   H     0.89204   0.24075   0.11790   0.00000  Uiso   1.00
H171   H     0.01356   0.07043   0.02299   0.00000  Uiso   1.00
H172   H     0.76279   0.05442   0.16666   0.00000  Uiso   1.00
H173   H     0.87011   0.37476   0.11885   0.00000  Uiso   1.00
H174   H     0.12633   0.01559   0.91873   0.00000  Uiso   1.00
H175   H     0.59753   0.98184   0.22169   0.00000  Uiso   1.00
O176   O     0.76484   0.46246   0.05966   0.00000  Uiso   1.00
O177   O     0.10098   0.99125   0.79712   0.00000  Uiso   1.00
O178   O     0.40720   0.94697   0.19459   0.00000  Uiso   1.00
N179   N     0.70517   0.37306   0.01018   0.00000  Uiso   1.00
N180   N     0.94472   0.03727   0.82308   0.00000  Uiso   1.00
N181   N     0.45034   0.00570   0.10631   0.00000  Uiso   1.00
N182   N     0.82032   0.36283   0.08474   0.00000  Uiso   1.00
N183   N     0.05987   0.02705   0.89764   0.00000  Uiso   1.00
N184   N     0.56549   0.99548   0.18087   0.00000  Uiso   1.00
C185   C     0.18991   0.36040   0.02669   0.00000  Uiso   1.00
C186   C     0.22224   0.29856   0.99830   0.00000  Uiso   1.00
C187   C     0.18530   0.24087   0.01597   0.00000  Uiso   1.00
C188   C     0.22455   0.18987   0.98429   0.00000  Uiso   1.00
C189   C     0.26361   0.09286   0.94748   0.00000  Uiso   1.00
C190   C     0.28828   0.39110   0.04987   0.00000  Uiso   1.00
C191   C     0.30684   0.41121   0.11090   0.00000  Uiso   1.00
C192   C     0.40168   0.43812   0.12263   0.00000  Uiso   1.00
C193   C     0.54322   0.48481   0.16587   0.00000  Uiso   1.00
C194   C     0.15202   0.39979   0.97181   0.00000  Uiso   1.00
C195   C     0.05603   0.42723   0.96721   0.00000  Uiso   1.00
C196   C     0.03616   0.46147   0.91322   0.00000  Uiso   1.00
C197   C     0.96614   0.52165   0.83526   0.00000  Uiso   1.00
C198   C     0.32533   0.37243   0.93900   0.00000  Uiso   1.00
C199   C     0.29580   0.30510   0.95067   0.00000  Uiso   1.00
C200   C     0.33512   0.25418   0.91895   0.00000  Uiso   1.00
C201   C     0.29824   0.19642   0.93658   0.00000  Uiso   1.00
C202   C     0.36183   0.39763   0.00224   0.00000  Uiso   1.00
C203   C     0.45666   0.42452   0.01388   0.00000  Uiso   1.00
C204   C     0.47537   0.44467   0.07492   0.00000  Uiso   1.00
C205   C     0.22557   0.40632   0.92418   0.00000  Uiso   1.00
C206   C     0.20585   0.44053   0.87019   0.00000  Uiso   1.00
C207   C     0.10985   0.46801   0.86551   0.00000  Uiso   1.00
H208   H     0.13265   0.35532   0.06377   0.00000  Uiso   1.00
H209   H     0.12838   0.23583   0.05283   0.00000  Uiso   1.00
H210   H     0.24990   0.40616   0.14774   0.00000  Uiso   1.00
H211   H     0.99913   0.42216   0.00407   0.00000  Uiso   1.00
H212   H     0.15611   0.10624   0.01972   0.00000  Uiso   1.00
H213   H     0.41233   0.46540   0.21984   0.00000  Uiso   1.00
H214   H     0.88353   0.49915   0.91688   0.00000  Uiso   1.00
H215   H     0.38260   0.37752   0.90192   0.00000  Uiso   1.00
H216   H     0.39204   0.25925   0.88210   0.00000  Uiso   1.00
H217   H     0.51356   0.42957   0.97701   0.00000  Uiso   1.00
H218   H     0.26279   0.44558   0.83334   0.00000  Uiso   1.00
H219   H     0.37011   0.12524   0.88115   0.00000  Uiso   1.00
H220   H     0.62633   0.48441   0.08127   0.00000  Uiso   1.00
H221   H     0.09753   0.51816   0.77831   0.00000  Uiso   1.00
O222   O     0.26484   0.03754   0.94034   0.00000  Uiso   1.00
O223   O     0.60098   0.50875   0.20288   0.00000  Uiso   1.00
O224   O     0.90720   0.55303   0.80541   0.00000  Uiso   1.00
N225   N     0.20517   0.12694   0.98982   0.00000  Uiso   1.00
N226   N     0.44472   0.46273   0.17692   0.00000  Uiso   1.00
N227   N     0.95034   0.49430   0.89369   0.00000  Uiso   1.00
N228   N     0.32032   0.13717   0.91526   0.00000  Uiso   1.00
N229   N     0.55987   0.47295   0.10236   0.00000  Uiso   1.00
N230   N     0.06549   0.50452   0.81913   0.00000  Uiso   1.00
C231   C     0.68991   0.86040   0.02669   0.00000  Uiso   1.00
C232   C     0.72224   0.79856   0.99830   0.00000  Uiso   1.00
C233   C     0.68530   0.74087   0.01597   0.00000  Uiso   1.00
C234   C     0.72455   0.68987   0.98429   0.00000  Uiso   1.00
C235   C     0.76361   0.59286   0.94748   0.00000  Uiso   1.00
C236   C     0.78828   0.89110   0.04987   0.00000  Uiso   1.00
C237   C     0.80684   0.91121   0.11090   0.00000  Uiso   1.00
C238   C     0.90168   0.93812   0.12263   0.00000  Uiso   1.00
C239   C     0.04322   0.98481   0.16587   0.00000  Uiso   1.00
C240   C     0.65202   0.89979   0.97181   0.00000  Uiso   1.00
C241   C     0.55603   0.92723   0.96721   0.00000  Uiso   1.00
C242   C     0.53616   0.96147   0.91322   0.00000  Uiso   1.00
C243   C     0.46614   0.02165   0.83526   0.00000  Uiso   1.00
C244   C     0.82533   0.87243   0.93900   0.00000  Uiso   1.00
C245   C     0.79580   0.80510   0.95067   0.00000  Uiso   1.00
C246   C     0.83512   0.75418   0.91895   0.00000  Uiso   1.00
C247   C     0.79824   0.69642   0.93658   0.00000  Uiso   1.00
C248   C     0.86183   0.89763   0.00224   0.00000  Uiso   1.00
C249   C     0.95666   0.92452   0.01388   0.00000  Uiso   1.00
C250   C     0.97537   0.94467   0.07492   0.00000  Uiso   1.00
C251   C     0.72557   0.90632   0.92418   0.00000  Uiso   1.00
C252   C     0.70585   0.94053   0.87019   0.00000  Uiso   1.00
C253   C     0.60985   0.96801   0.86551   0.00000  Uiso   1.00
H254   H     0.63265   0.85532   0.06377   0.00000  Uiso   1.00
H255   H     0.62838   0.73583   0.05283   0.00000  Uiso   1.00
H256   H     0.74990   0.90616   0.14774   0.00000  Uiso   1.00
H257   H     0.49913   0.92216   0.00407   0.00000  Uiso   1.00
H258   H     0.65611   0.60624   0.01972   0.00000  Uiso   1.00
H259   H     0.91233   0.96540   0.21984   0.00000  Uiso   1.00
H260   H     0.38353   0.99915   0.91688   0.00000  Uiso   1.00
H261   H     0.88260   0.87752   0.90192   0.00000  Uiso   1.00
H262   H     0.89204   0.75925   0.88210   0.00000  Uiso   1.00
H263   H     0.01356   0.92957   0.97701   0.00000  Uiso   1.00
H264   H     0.76279   0.94558   0.83334   0.00000  Uiso   1.00
H265   H     0.87011   0.62524   0.88115   0.00000  Uiso   1.00
H266   H     0.12633   0.98441   0.08127   0.00000  Uiso   1.00
H267   H     0.59753   0.01816   0.77831   0.00000  Uiso   1.00
O268   O     0.76484   0.53754   0.94034   0.00000  Uiso   1.00
O269   O     0.10098   0.00875   0.20288   0.00000  Uiso   1.00
O270   O     0.40720   0.05303   0.80541   0.00000  Uiso   1.00
N271   N     0.70517   0.62694   0.98982   0.00000  Uiso   1.00
N272   N     0.94472   0.96273   0.17692   0.00000  Uiso   1.00
N273   N     0.45034   0.99430   0.89369   0.00000  Uiso   1.00
N274   N     0.82032   0.63717   0.91526   0.00000  Uiso   1.00
N275   N     0.05987   0.97295   0.10236   0.00000  Uiso   1.00
N276   N     0.56549   0.00452   0.81913   0.00000  Uiso   1.00
C277   C     0.81009   0.63960   0.52669   0.00000  Uiso   1.00
C278   C     0.77776   0.70144   0.49830   0.00000  Uiso   1.00
C279   C     0.81470   0.75913   0.51597   0.00000  Uiso   1.00
C280   C     0.77545   0.81013   0.48429   0.00000  Uiso   1.00
C281   C     0.73639   0.90714   0.44748   0.00000  Uiso   1.00
C282   C     0.71172   0.60890   0.54987   0.00000  Uiso   1.00
C283   C     0.69316   0.58879   0.61090   0.00000  Uiso   1.00
C284   C     0.59832   0.56188   0.62263   0.00000  Uiso   1.00
C285   C     0.45678   0.51519   0.66587   0.00000  Uiso   1.00
C286   C     0.84798   0.60021   0.47181   0.00000  Uiso   1.00
C287   C     0.94397   0.57277   0.46721   0.00000  Uiso   1.00
C288   C     0.96384   0.53853   0.41322   0.00000  Uiso   1.00
C289   C     0.03386   0.47835   0.33526   0.00000  Uiso   1.00
C290   C     0.67467   0.62757   0.43900   0.00000  Uiso   1.00
C291   C     0.70420   0.69490   0.45067   0.00000  Uiso   1.00
C292   C     0.66488   0.74582   0.41895   0.00000  Uiso   1.00
C293   C     0.70176   0.80358   0.43658   0.00000  Uiso   1.00
C294   C     0.63817   0.60237   0.50224   0.00000  Uiso   1.00
C295   C     0.54334   0.57548   0.51388   0.00000  Uiso   1.00
C296   C     0.52463   0.55533   0.57492   0.00000  Uiso   1.00
C297   C     0.77443   0.59368   0.42418   0.00000  Uiso   1.00
C298   C     0.79415   0.55947   0.37019   0.00000  Uiso   1.00
C299   C     0.89015   0.53199   0.36551   0.00000  Uiso   1.00
H300   H     0.86735   0.64468   0.56377   0.00000  Uiso   1.00
H301   H     0.87162   0.76417   0.55283   0.00000  Uiso   1.00
H302   H     0.75010   0.59384   0.64774   0.00000  Uiso   1.00
H303   H     0.00087   0.57784   0.50407   0.00000  Uiso   1.00
H304   H     0.84389   0.89376   0.51972   0.00000  Uiso   1.00
H305   H     0.58767   0.53460   0.71984   0.00000  Uiso   1.00
H306   H     0.11647   0.50085   0.41688   0.00000  Uiso   1.00
H307   H     0.61740   0.62248   0.40192   0.00000  Uiso   1.00
H308   H     0.60796   0.74075   0.38210   0.00000  Uiso   1.00
H309   H     0.48644   0.57043   0.47701   0.00000  Uiso   1.00
H310   H     0.73721   0.55442   0.33334   0.00000  Uiso   1.00
H311   H     0.62989   0.87476   0.38115   0.00000  Uiso   1.00
H312   H     0.37367   0.51559   0.58127   0.00000  Uiso   1.00
H313   H     0.90247   0.48184   0.27831   0.00000  Uiso   1.00
O314   O     0.73516   0.96246   0.44034   0.00000  Uiso   1.00
O315   O     0.39902   0.49125   0.70288   0.00000  Uiso   1.00
O316   O     0.09280   0.44697   0.30541   0.00000  Uiso   1.00
N317   N     0.79483   0.87306   0.48982   0.00000  Uiso   1.00
N318   N     0.55528   0.53727   0.67692   0.00000  Uiso   1.00
N319   N     0.04966   0.50570   0.39369   0.00000  Uiso   1.00
N320   N     0.67968   0.86283   0.41526   0.00000  Uiso   1.00
N321   N     0.44013   0.52705   0.60236   0.00000  Uiso   1.00
N322   N     0.93451   0.49548   0.31913   0.00000  Uiso   1.00
C323   C     0.31009   0.13960   0.52669   0.00000  Uiso   1.00
C324   C     0.27776   0.20144   0.49830   0.00000  Uiso   1.00
C325   C     0.31470   0.25913   0.51597   0.00000  Uiso   1.00
C326   C     0.27545   0.31013   0.48429   0.00000  Uiso   1.00
C327   C     0.23639   0.40714   0.44748   0.00000  Uiso   1.00
C328   C     0.21172   0.10890   0.54987   0.00000  Uiso   1.00
C329   C     0.19316   0.08879   0.61090   0.00000  Uiso   1.00
C330   C     0.09832   0.06188   0.62263   0.00000  Uiso   1.00
C331   C     0.95678   0.01519   0.66587   0.00000  Uiso   1.00
C332   C     0.34798   0.10021   0.47181   0.00000  Uiso   1.00
C333   C     0.44397   0.07277   0.46721   0.00000  Uiso   1.00
C334   C     0.46384   0.03853   0.41322   0.00000  Uiso   1.00
C335   C     0.53386   0.97835   0.33526   0.00000  Uiso   1.00
C336   C     0.17467   0.12757   0.43900   0.00000  Uiso   1.00
C337   C     0.20420   0.19490   0.45067   0.00000  Uiso   1.00
C338   C     0.16488   0.24582   0.41895   0.00000  Uiso   1.00
C339   C     0.20176   0.30358   0.43658   0.00000  Uiso   1.00
C340   C     0.13817   0.10237   0.50224   0.00000  Uiso   1.00
C341   C     0.04334   0.07548   0.51388   0.00000  Uiso   1.00
C342   C     0.02463   0.05533   0.57492   0.00000  Uiso   1.00
C343   C     0.27443   0.09368   0.42418   0.00000  Uiso   1.00
C344   C     0.29415   0.05947   0.37019   0.00000  Uiso   1.00
C345   C     0.39015   0.03199   0.36551   0.00000  Uiso   1.00
H346   H     0.36735   0.14468   0.56377   0.00000  Uiso   1.00
H347   H     0.37162   0.26417   0.55283   0.00000  Uiso   1.00
H348   H     0.25010   0.09384   0.64774   0.00000  Uiso   1.00
H349   H     0.50087   0.07784   0.50407   0.00000  Uiso   1.00
H350   H     0.34389   0.39376   0.51972   0.00000  Uiso   1.00
H351   H     0.08767   0.03460   0.71984   0.00000  Uiso   1.00
H352   H     0.61647   0.00085   0.41688   0.00000  Uiso   1.00
H353   H     0.11740   0.12248   0.40192   0.00000  Uiso   1.00
H354   H     0.10796   0.24075   0.38210   0.00000  Uiso   1.00
H355   H     0.98644   0.07043   0.47701   0.00000  Uiso   1.00
H356   H     0.23721   0.05442   0.33334   0.00000  Uiso   1.00
H357   H     0.12989   0.37476   0.38115   0.00000  Uiso   1.00
H358   H     0.87367   0.01559   0.58127   0.00000  Uiso   1.00
H359   H     0.40247   0.98184   0.27831   0.00000  Uiso   1.00
O360   O     0.23516   0.46246   0.44034   0.00000  Uiso   1.00
O361   O     0.89902   0.99125   0.70288   0.00000  Uiso   1.00
O362   O     0.59280   0.94697   0.30541   0.00000  Uiso   1.00
N363   N     0.29483   0.37306   0.48982   0.00000  Uiso   1.00
N364   N     0.05528   0.03727   0.67692   0.00000  Uiso   1.00
N365   N     0.54966   0.00570   0.39369   0.00000  Uiso   1.00
N366   N     0.17968   0.36283   0.41526   0.00000  Uiso   1.00
N367   N     0.94013   0.02705   0.60236   0.00000  Uiso   1.00
N368   N     0.43451   0.99548   0.31913   0.00000  Uiso   1.00
