data_job_06805
_audit_creation_date              2018-12-19
_audit_creation_method            'Materials Studio'
_symmetry_space_group_name_H-M    'P1'
_symmetry_Int_Tables_number       1
_symmetry_cell_setting            triclinic
loop_
_symmetry_equiv_pos_as_xyz
  x,y,z
_cell_length_a                    22.4878
_cell_length_b                    23.4426
_cell_length_c                    24.0930
_cell_angle_alpha                 70.6218
_cell_angle_beta                  66.3951
_cell_angle_gamma                 102.3010
loop_
_atom_site_label
_atom_site_type_symbol
_atom_site_fract_x
_atom_site_fract_y
_atom_site_fract_z
_atom_site_U_iso_or_equiv
_atom_site_adp_type
_atom_site_occupancy
C1     C     0.35926   0.13072   0.38883   0.00000  Uiso   1.00
C2     C     0.42896   0.12302   0.37338   0.00000  Uiso   1.00
C3     C     0.43848   0.06457   0.38392   0.00000  Uiso   1.00
C4     C     0.50635   0.06782   0.36651   0.00000  Uiso   1.00
C5     C     0.60601   0.04679   0.34665   0.00000  Uiso   1.00
C6     C     0.34663   0.16122   0.43722   0.00000  Uiso   1.00
C7     C     0.28693   0.13489   0.50142   0.00000  Uiso   1.00
C8     C     0.28549   0.17032   0.53774   0.00000  Uiso   1.00
C9     C     0.25730   0.20862   0.61697   0.00000  Uiso   1.00
C10    C     0.37319   0.18312   0.32189   0.00000  Uiso   1.00
C11    C     0.33581   0.17520   0.28912   0.00000  Uiso   1.00
C12    C     0.35673   0.22907   0.22835   0.00000  Uiso   1.00
C13    C     0.36978   0.30136   0.12851   0.00000  Uiso   1.00
C14    C     0.46285   0.24045   0.33919   0.00000  Uiso   1.00
C15    C     0.48522   0.18262   0.34642   0.00000  Uiso   1.00
C16    C     0.55309   0.18597   0.32899   0.00000  Uiso   1.00
C17    C     0.56272   0.12753   0.33949   0.00000  Uiso   1.00
C18    C     0.40289   0.22082   0.41026   0.00000  Uiso   1.00
C19    C     0.40154   0.25630   0.44649   0.00000  Uiso   1.00
C20    C     0.34186   0.23003   0.51073   0.00000  Uiso   1.00
C21    C     0.42945   0.24272   0.29492   0.00000  Uiso   1.00
C22    C     0.45043   0.29661   0.23419   0.00000  Uiso   1.00
C23    C     0.41309   0.28878   0.20134   0.00000  Uiso   1.00
H24    H     0.31545   0.08432   0.40983   0.00000  Uiso   1.00
H25    H     0.39493   0.01845   0.40479   0.00000  Uiso   1.00
H26    H     0.24339   0.08877   0.52227   0.00000  Uiso   1.00
H27    H     0.29227   0.12907   0.31001   0.00000  Uiso   1.00
H28    H     0.50784   0.97170   0.38734   0.00000  Uiso   1.00
H29    H     0.18832   0.11999   0.63504   0.00000  Uiso   1.00
H30    H     0.29139   0.20498   0.18744   0.00000  Uiso   1.00
H31    H     0.50665   0.28685   0.31819   0.00000  Uiso   1.00
H32    H     0.59662   0.23210   0.30812   0.00000  Uiso   1.00
H33    H     0.44509   0.30242   0.42560   0.00000  Uiso   1.00
H34    H     0.49397   0.34272   0.21334   0.00000  Uiso   1.00
H35    H     0.67155   0.14511   0.30888   0.00000  Uiso   1.00
H36    H     0.35202   0.29340   0.55658   0.00000  Uiso   1.00
H37    H     0.45509   0.37838   0.10898   0.00000  Uiso   1.00
O38    O     0.64543   0.01872   0.34316   0.00000  Uiso   1.00
O39    O     0.22621   0.21328   0.66813   0.00000  Uiso   1.00
O40    O     0.36144   0.32477   0.08089   0.00000  Uiso   1.00
N41    N     0.53403   0.02003   0.37024   0.00000  Uiso   1.00
N42    N     0.23530   0.15867   0.60183   0.00000  Uiso   1.00
N43    N     0.33164   0.23812   0.18337   0.00000  Uiso   1.00
N44    N     0.62212   0.11334   0.32802   0.00000  Uiso   1.00
N45    N     0.32338   0.25197   0.55961   0.00000  Uiso   1.00
N46    N     0.41973   0.33143   0.14115   0.00000  Uiso   1.00
C47    C     0.77521   0.70423   0.60160   0.00000  Uiso   1.00
C48    C     0.70785   0.64262   0.65647   0.00000  Uiso   1.00
C49    C     0.63927   0.63707   0.67440   0.00000  Uiso   1.00
C50    C     0.58480   0.57653   0.72589   0.00000  Uiso   1.00
C51    C     0.47813   0.48893   0.80620   0.00000  Uiso   1.00
C52    C     0.81452   0.71961   0.63723   0.00000  Uiso   1.00
C53    C     0.83562   0.77879   0.63897   0.00000  Uiso   1.00
C54    C     0.87095   0.78306   0.67426   0.00000  Uiso   1.00
C55    C     0.92992   0.81501   0.72465   0.00000  Uiso   1.00
C56    C     0.82055   0.68356   0.55192   0.00000  Uiso   1.00
C57    C     0.84675   0.71245   0.48193   0.00000  Uiso   1.00
C58    C     0.88718   0.68638   0.44539   0.00000  Uiso   1.00
C59    C     0.95552   0.66236   0.36333   0.00000  Uiso   1.00
C60    C     0.80044   0.60658   0.66117   0.00000  Uiso   1.00
C61    C     0.72156   0.58958   0.68883   0.00000  Uiso   1.00
C62    C     0.66718   0.52902   0.74031   0.00000  Uiso   1.00
C63    C     0.59853   0.52339   0.75831   0.00000  Uiso   1.00
C64    C     0.82822   0.66657   0.66959   0.00000  Uiso   1.00
C65    C     0.86353   0.67075   0.70488   0.00000  Uiso   1.00
C66    C     0.88468   0.72992   0.70668   0.00000  Uiso   1.00
C67    C     0.83425   0.63052   0.58428   0.00000  Uiso   1.00
C68    C     0.87466   0.60440   0.54784   0.00000  Uiso   1.00
C69    C     0.90091   0.63324   0.47781   0.00000  Uiso   1.00
H70    H     0.76455   0.74553   0.57641   0.00000  Uiso   1.00
H71    H     0.62869   0.67813   0.64935   0.00000  Uiso   1.00
H72    H     0.82502   0.81983   0.61392   0.00000  Uiso   1.00
H73    H     0.83614   0.75350   0.45691   0.00000  Uiso   1.00
H74    H     0.48410   0.58002   0.74451   0.00000  Uiso   1.00
H75    H     0.89809   0.87882   0.66979   0.00000  Uiso   1.00
H76    H     0.92155   0.73893   0.33868   0.00000  Uiso   1.00
H77    H     0.81111   0.56528   0.68636   0.00000  Uiso   1.00
H78    H     0.67780   0.48799   0.76534   0.00000  Uiso   1.00
H79    H     0.87413   0.62969   0.72991   0.00000  Uiso   1.00
H80    H     0.88525   0.56335   0.57289   0.00000  Uiso   1.00
H81    H     0.52396   0.42569   0.83865   0.00000  Uiso   1.00
H82    H     0.93796   0.72449   0.76392   0.00000  Uiso   1.00
H83    H     0.96141   0.58461   0.43282   0.00000  Uiso   1.00
O84    O     0.41550   0.45527   0.84156   0.00000  Uiso   1.00
O85    O     0.95865   0.84728   0.74352   0.00000  Uiso   1.00
O86    O     0.98942   0.66376   0.30912   0.00000  Uiso   1.00
N87    N     0.51178   0.55430   0.75581   0.00000  Uiso   1.00
N88    N     0.89883   0.83366   0.68596   0.00000  Uiso   1.00
N89    N     0.92077   0.70289   0.37641   0.00000  Uiso   1.00
N90    N     0.53323   0.47126   0.80647   0.00000  Uiso   1.00
N91    N     0.92028   0.75061   0.73662   0.00000  Uiso   1.00
N92    N     0.94222   0.61985   0.42707   0.00000  Uiso   1.00
C93    C     0.87821   0.10114   0.49643   0.00000  Uiso   1.00
C94    C     0.88841   0.17286   0.47690   0.00000  Uiso   1.00
C95    C     0.95078   0.22444   0.45281   0.00000  Uiso   1.00
C96    C     0.94927   0.28646   0.43782   0.00000  Uiso   1.00
C97    C     0.97447   0.39630   0.40619   0.00000  Uiso   1.00
C98    C     0.81685   0.06072   0.57027   0.00000  Uiso   1.00
C99    C     0.81906   0.01800   0.62468   0.00000  Uiso   1.00
C100   C     0.75732   0.98560   0.68830   0.00000  Uiso   1.00
C101   C     0.67141   0.92130   0.80162   0.00000  Uiso   1.00
C102   C     0.85153   0.08246   0.45324   0.00000  Uiso   1.00
C103   C     0.88289   0.05800   0.40925   0.00000  Uiso   1.00
C104   C     0.85033   0.04390   0.37434   0.00000  Uiso   1.00
C105   C     0.81827   0.01336   0.30594   0.00000  Uiso   1.00
C106   C     0.76461   0.11956   0.51265   0.00000  Uiso   1.00
C107   C     0.82670   0.18287   0.48572   0.00000  Uiso   1.00
C108   C     0.82510   0.24482   0.47076   0.00000  Uiso   1.00
C109   C     0.88746   0.29648   0.44664   0.00000  Uiso   1.00
C110   C     0.75515   0.07072   0.57909   0.00000  Uiso   1.00
C111   C     0.69338   0.03838   0.64263   0.00000  Uiso   1.00
C112   C     0.69550   0.99562   0.69713   0.00000  Uiso   1.00
C113   C     0.78983   0.09247   0.46205   0.00000  Uiso   1.00
C114   C     0.75721   0.07839   0.42720   0.00000  Uiso   1.00
C115   C     0.78851   0.05392   0.38317   0.00000  Uiso   1.00
H116   H     0.92625   0.09335   0.48957   0.00000  Uiso   1.00
H117   H     0.99852   0.21668   0.44600   0.00000  Uiso   1.00
H118   H     0.86682   0.01026   0.61785   0.00000  Uiso   1.00
H119   H     0.93064   0.05027   0.40244   0.00000  Uiso   1.00
H120   H     0.05143   0.35782   0.40160   0.00000  Uiso   1.00
H121   H     0.77373   0.92256   0.76395   0.00000  Uiso   1.00
H122   H     0.90830   0.00692   0.30973   0.00000  Uiso   1.00
H123   H     0.71657   0.12735   0.51952   0.00000  Uiso   1.00
H124   H     0.77734   0.25255   0.47758   0.00000  Uiso   1.00
H125   H     0.64564   0.04613   0.64943   0.00000  Uiso   1.00
H126   H     0.70946   0.08614   0.43403   0.00000  Uiso   1.00
H127   H     0.87191   0.38693   0.42724   0.00000  Uiso   1.00
H128   H     0.59421   0.95167   0.78959   0.00000  Uiso   1.00
H129   H     0.72878   0.03604   0.33537   0.00000  Uiso   1.00
O130   O     0.00542   0.45412   0.38632   0.00000  Uiso   1.00
O131   O     0.64108   0.88307   0.86170   0.00000  Uiso   1.00
O132   O     0.81764   0.99375   0.26577   0.00000  Uiso   1.00
N133   N     0.00084   0.34749   0.41338   0.00000  Uiso   1.00
N134   N     0.74121   0.94056   0.75215   0.00000  Uiso   1.00
N135   N     0.86702   0.01941   0.32751   0.00000  Uiso   1.00
N136   N     0.90424   0.36316   0.42717   0.00000  Uiso   1.00
N137   N     0.64461   0.95623   0.76595   0.00000  Uiso   1.00
N138   N     0.77042   0.03508   0.34130   0.00000  Uiso   1.00
C139   C     0.14396   0.30465   0.90583   0.00000  Uiso   1.00
C140   C     0.12810   0.36520   0.90358   0.00000  Uiso   1.00
C141   C     0.06356   0.36967   0.91771   0.00000  Uiso   1.00
C142   C     0.05980   0.42935   0.91283   0.00000  Uiso   1.00
C143   C     0.02623   0.51526   0.91216   0.00000  Uiso   1.00
C144   C     0.17106   0.28862   0.95547   0.00000  Uiso   1.00
C145   C     0.14264   0.22869   0.01322   0.00000  Uiso   1.00
C146   C     0.17505   0.22391   0.05200   0.00000  Uiso   1.00
C147   C     0.20819   0.19091   0.13186   0.00000  Uiso   1.00
C148   C     0.20681   0.32732   0.83529   0.00000  Uiso   1.00
C149   C     0.20846   0.29992   0.79199   0.00000  Uiso   1.00
C150   C     0.27097   0.32770   0.72960   0.00000  Uiso   1.00
C151   C     0.35963   0.35479   0.62287   0.00000  Uiso   1.00
C152   C     0.25206   0.40271   0.87203   0.00000  Uiso   1.00
C153   C     0.18682   0.41846   0.88522   0.00000  Uiso   1.00
C154   C     0.18315   0.47816   0.88031   0.00000  Uiso   1.00
C155   C     0.11862   0.48271   0.89443   0.00000  Uiso   1.00
C156   C     0.22977   0.34188   0.93711   0.00000  Uiso   1.00
C157   C     0.26223   0.33718   0.97582   0.00000  Uiso   1.00
C158   C     0.23386   0.27727   0.03361   0.00000  Uiso   1.00
C159   C     0.26552   0.38058   0.81693   0.00000  Uiso   1.00
C160   C     0.32805   0.40841   0.75460   0.00000  Uiso   1.00
C161   C     0.32979   0.38106   0.71121   0.00000  Uiso   1.00
H162   H     0.09826   0.26318   0.92013   0.00000  Uiso   1.00
H163   H     0.01814   0.32843   0.93192   0.00000  Uiso   1.00
H164   H     0.09721   0.18748   0.02741   0.00000  Uiso   1.00
H165   H     0.16301   0.25870   0.80622   0.00000  Uiso   1.00
H166   H     0.95520   0.42426   0.93693   0.00000  Uiso   1.00
H167   H     0.12193   0.12705   0.13825   0.00000  Uiso   1.00
H168   H     0.26070   0.27722   0.67183   0.00000  Uiso   1.00
H169   H     0.29777   0.44418   0.85774   0.00000  Uiso   1.00
H170   H     0.22860   0.51937   0.86611   0.00000  Uiso   1.00
H171   H     0.30766   0.37841   0.96159   0.00000  Uiso   1.00
H172   H     0.37347   0.44963   0.74041   0.00000  Uiso   1.00
H173   H     0.12601   0.57923   0.88351   0.00000  Uiso   1.00
H174   H     0.29275   0.28201   0.08483   0.00000  Uiso   1.00
H175   H     0.43151   0.43219   0.61841   0.00000  Uiso   1.00
O176   O     0.99149   0.54793   0.91687   0.00000  Uiso   1.00
O177   O     0.21025   0.15800   0.18099   0.00000  Uiso   1.00
O178   O     0.39230   0.35502   0.56906   0.00000  Uiso   1.00
N179   N     0.00489   0.45042   0.92319   0.00000  Uiso   1.00
N180   N     0.16077   0.17255   0.11142   0.00000  Uiso   1.00
N181   N     0.29051   0.31293   0.67537   0.00000  Uiso   1.00
N182   N     0.09681   0.53380   0.89445   0.00000  Uiso   1.00
N183   N     0.25269   0.25593   0.08268   0.00000  Uiso   1.00
N184   N     0.38243   0.39632   0.64663   0.00000  Uiso   1.00
C185   C     0.64390   0.77477   0.13890   0.00000  Uiso   1.00
C186   C     0.58208   0.72216   0.20935   0.00000  Uiso   1.00
C187   C     0.55809   0.65454   0.23215   0.00000  Uiso   1.00
C188   C     0.50080   0.61464   0.29829   0.00000  Uiso   1.00
C189   C     0.40970   0.52887   0.40134   0.00000  Uiso   1.00
C190   C     0.69494   0.81519   0.15172   0.00000  Uiso   1.00
C191   C     0.76584   0.82580   0.12606   0.00000  Uiso   1.00
C192   C     0.80356   0.86422   0.14369   0.00000  Uiso   1.00
C193   C     0.88769   0.92293   0.15723   0.00000  Uiso   1.00
C194   C     0.61421   0.82078   0.10834   0.00000  Uiso   1.00
C195   C     0.61725   0.83611   0.04620   0.00000  Uiso   1.00
C196   C     0.58701   0.87925   0.02730   0.00000  Uiso   1.00
C197   C     0.54580   0.94664   0.97349   0.00000  Uiso   1.00
C198   C     0.58481   0.82414   0.21583   0.00000  Uiso   1.00
C199   C     0.54998   0.74898   0.25113   0.00000  Uiso   1.00
C200   C     0.49271   0.70917   0.31726   0.00000  Uiso   1.00
C201   C     0.46864   0.64150   0.34016   0.00000  Uiso   1.00
C202   C     0.66284   0.84201   0.19351   0.00000  Uiso   1.00
C203   C     0.70046   0.88043   0.21117   0.00000  Uiso   1.00
C204   C     0.77140   0.89109   0.18555   0.00000  Uiso   1.00
C205   C     0.58211   0.84760   0.15013   0.00000  Uiso   1.00
C206   C     0.55186   0.89073   0.13132   0.00000  Uiso   1.00
C207   C     0.55486   0.90612   0.06916   0.00000  Uiso   1.00
H208   H     0.66890   0.75389   0.10636   0.00000  Uiso   1.00
H209   H     0.58295   0.63381   0.19980   0.00000  Uiso   1.00
H210   H     0.79067   0.80505   0.09372   0.00000  Uiso   1.00
H211   H     0.64210   0.81535   0.01387   0.00000  Uiso   1.00
H212   H     0.47352   0.51250   0.32182   0.00000  Uiso   1.00
H213   H     0.91151   0.87358   0.09813   0.00000  Uiso   1.00
H214   H     0.59823   0.89531   0.92976   0.00000  Uiso   1.00
H215   H     0.55982   0.84502   0.24836   0.00000  Uiso   1.00
H216   H     0.46788   0.72993   0.34959   0.00000  Uiso   1.00
H217   H     0.67560   0.90117   0.24351   0.00000  Uiso   1.00
H218   H     0.52703   0.91147   0.16367   0.00000  Uiso   1.00
H219   H     0.38013   0.59052   0.44340   0.00000  Uiso   1.00
H220   H     0.81812   0.95160   0.21970   0.00000  Uiso   1.00
H221   H     0.50483   0.97333   0.05134   0.00000  Uiso   1.00
O222   O     0.36833   0.47416   0.44664   0.00000  Uiso   1.00
O223   O     0.94296   0.94789   0.15316   0.00000  Uiso   1.00
O224   O     0.53193   0.97639   0.93227   0.00000  Uiso   1.00
N225   N     0.46415   0.54666   0.33654   0.00000  Uiso   1.00
N226   N     0.87364   0.88424   0.12741   0.00000  Uiso   1.00
N227   N     0.58076   0.90456   0.96999   0.00000  Uiso   1.00
N228   N     0.41389   0.58864   0.40196   0.00000  Uiso   1.00
N229   N     0.82339   0.92622   0.19283   0.00000  Uiso   1.00
N230   N     0.53051   0.94654   0.03541   0.00000  Uiso   1.00
C231   C     0.14263   0.87903   0.91448   0.00000  Uiso   1.00
C232   C     0.21823   0.88400   0.89098   0.00000  Uiso   1.00
C233   C     0.27934   0.94090   0.84324   0.00000  Uiso   1.00
C234   C     0.34345   0.93520   0.82871   0.00000  Uiso   1.00
C235   C     0.46041   0.95212   0.78736   0.00000  Uiso   1.00
C236   C     0.10531   0.85079   0.99211   0.00000  Uiso   1.00
C237   C     0.07146   0.87978   0.02940   0.00000  Uiso   1.00
C238   C     0.04050   0.84612   0.10000   0.00000  Uiso   1.00
C239   C     0.98210   0.81147   0.21567   0.00000  Uiso   1.00
C240   C     0.10791   0.82601   0.90084   0.00000  Uiso   1.00
C241   C     0.07623   0.83415   0.86141   0.00000  Uiso   1.00
C242   C     0.04744   0.77963   0.85519   0.00000  Uiso   1.00
C243   C     0.99307   0.70650   0.82915   0.00000  Uiso   1.00
C244   C     0.14781   0.76771   0.97356   0.00000  Uiso   1.00
C245   C     0.22105   0.82353   0.92307   0.00000  Uiso   1.00
C246   C     0.28508   0.81774   0.90861   0.00000  Uiso   1.00
C247   C     0.34627   0.87463   0.86086   0.00000  Uiso   1.00
C248   C     0.10812   0.79033   0.02420   0.00000  Uiso   1.00
C249   C     0.07720   0.75662   0.09477   0.00000  Uiso   1.00
C250   C     0.04332   0.78555   0.13215   0.00000  Uiso   1.00
C251   C     0.11072   0.76554   0.93294   0.00000  Uiso   1.00
C252   C     0.08197   0.71099   0.92678   0.00000  Uiso   1.00
C253   C     0.05026   0.71905   0.88734   0.00000  Uiso   1.00
H254   H     0.14044   0.92610   0.88949   0.00000  Uiso   1.00
H255   H     0.27714   0.98769   0.81842   0.00000  Uiso   1.00
H256   H     0.06929   0.92657   0.00455   0.00000  Uiso   1.00
H257   H     0.07406   0.88095   0.83658   0.00000  Uiso   1.00
H258   H     0.42995   0.02931   0.75378   0.00000  Uiso   1.00
H259   H     0.99165   0.90043   0.14625   0.00000  Uiso   1.00
H260   H     0.00172   0.80423   0.79207   0.00000  Uiso   1.00
H261   H     0.15000   0.72063   0.99855   0.00000  Uiso   1.00
H262   H     0.28724   0.77094   0.93345   0.00000  Uiso   1.00
H263   H     0.07938   0.70982   0.11959   0.00000  Uiso   1.00
H264   H     0.08416   0.66421   0.95162   0.00000  Uiso   1.00
H265   H     0.43814   0.85339   0.84716   0.00000  Uiso   1.00
H266   H     0.99984   0.72450   0.23963   0.00000  Uiso   1.00
H267   H     0.00991   0.62831   0.88544   0.00000  Uiso   1.00
O268   O     0.52414   0.97816   0.75570   0.00000  Uiso   1.00
O269   O     0.94911   0.80906   0.27060   0.00000  Uiso   1.00
O270   O     0.96232   0.68286   0.80592   0.00000  Uiso   1.00
N271   N     0.41304   0.98100   0.78468   0.00000  Uiso   1.00
N272   N     0.00327   0.86051   0.15162   0.00000  Uiso   1.00
N273   N     0.01266   0.77057   0.82050   0.00000  Uiso   1.00
N274   N     0.41745   0.88634   0.83493   0.00000  Uiso   1.00
N275   N     0.00768   0.76584   0.20186   0.00000  Uiso   1.00
N276   N     0.01707   0.67591   0.87074   0.00000  Uiso   1.00
C277   C     0.64074   0.86928   0.61117   0.00000  Uiso   1.00
C278   C     0.57104   0.87698   0.62662   0.00000  Uiso   1.00
C279   C     0.56152   0.93543   0.61608   0.00000  Uiso   1.00
C280   C     0.49365   0.93218   0.63349   0.00000  Uiso   1.00
C281   C     0.39399   0.95321   0.65335   0.00000  Uiso   1.00
C282   C     0.65337   0.83878   0.56278   0.00000  Uiso   1.00
C283   C     0.71307   0.86511   0.49858   0.00000  Uiso   1.00
C284   C     0.71451   0.82968   0.46226   0.00000  Uiso   1.00
C285   C     0.74270   0.79138   0.38303   0.00000  Uiso   1.00
C286   C     0.62681   0.81688   0.67811   0.00000  Uiso   1.00
C287   C     0.66419   0.82480   0.71088   0.00000  Uiso   1.00
C288   C     0.64327   0.77093   0.77165   0.00000  Uiso   1.00
C289   C     0.63022   0.69864   0.87149   0.00000  Uiso   1.00
C290   C     0.53715   0.75955   0.66081   0.00000  Uiso   1.00
C291   C     0.51478   0.81738   0.65358   0.00000  Uiso   1.00
C292   C     0.44691   0.81403   0.67101   0.00000  Uiso   1.00
C293   C     0.43728   0.87247   0.66051   0.00000  Uiso   1.00
C294   C     0.59711   0.77918   0.58974   0.00000  Uiso   1.00
C295   C     0.59846   0.74370   0.55351   0.00000  Uiso   1.00
C296   C     0.65814   0.76997   0.48927   0.00000  Uiso   1.00
C297   C     0.57055   0.75728   0.70508   0.00000  Uiso   1.00
C298   C     0.54957   0.70339   0.76581   0.00000  Uiso   1.00
C299   C     0.58691   0.71122   0.79866   0.00000  Uiso   1.00
H300   H     0.68455   0.91568   0.59017   0.00000  Uiso   1.00
H301   H     0.60507   0.98155   0.59521   0.00000  Uiso   1.00
H302   H     0.75661   0.91123   0.47773   0.00000  Uiso   1.00
H303   H     0.70773   0.87093   0.68999   0.00000  Uiso   1.00
H304   H     0.49216   0.02830   0.61266   0.00000  Uiso   1.00
H305   H     0.81168   0.88001   0.36496   0.00000  Uiso   1.00
H306   H     0.70861   0.79502   0.81256   0.00000  Uiso   1.00
H307   H     0.49335   0.71315   0.68181   0.00000  Uiso   1.00
H308   H     0.40338   0.76790   0.69188   0.00000  Uiso   1.00
H309   H     0.55491   0.69758   0.57440   0.00000  Uiso   1.00
H310   H     0.50603   0.65728   0.78666   0.00000  Uiso   1.00
H311   H     0.32845   0.85489   0.69112   0.00000  Uiso   1.00
H312   H     0.64798   0.70660   0.44342   0.00000  Uiso   1.00
H313   H     0.54491   0.62162   0.89102   0.00000  Uiso   1.00
O314   O     0.35457   0.98128   0.65684   0.00000  Uiso   1.00
O315   O     0.77379   0.78672   0.33187   0.00000  Uiso   1.00
O316   O     0.63856   0.67523   0.91911   0.00000  Uiso   1.00
N317   N     0.46597   0.97997   0.62976   0.00000  Uiso   1.00
N318   N     0.76470   0.84133   0.39817   0.00000  Uiso   1.00
N319   N     0.66836   0.76188   0.81663   0.00000  Uiso   1.00
N320   N     0.37788   0.88666   0.67198   0.00000  Uiso   1.00
N321   N     0.67662   0.74803   0.44039   0.00000  Uiso   1.00
N322   N     0.58027   0.66857   0.85885   0.00000  Uiso   1.00
C323   C     0.22479   0.29577   0.39840   0.00000  Uiso   1.00
C324   C     0.29215   0.35738   0.34353   0.00000  Uiso   1.00
C325   C     0.36073   0.36293   0.32560   0.00000  Uiso   1.00
C326   C     0.41520   0.42347   0.27411   0.00000  Uiso   1.00
C327   C     0.52187   0.51107   0.19380   0.00000  Uiso   1.00
C328   C     0.18548   0.28039   0.36277   0.00000  Uiso   1.00
C329   C     0.16438   0.22121   0.36103   0.00000  Uiso   1.00
C330   C     0.12905   0.21694   0.32574   0.00000  Uiso   1.00
C331   C     0.07008   0.18499   0.27535   0.00000  Uiso   1.00
C332   C     0.17945   0.31644   0.44808   0.00000  Uiso   1.00
C333   C     0.15325   0.28755   0.51807   0.00000  Uiso   1.00
C334   C     0.11282   0.31362   0.55461   0.00000  Uiso   1.00
C335   C     0.04448   0.33764   0.63667   0.00000  Uiso   1.00
C336   C     0.19956   0.39342   0.33883   0.00000  Uiso   1.00
C337   C     0.27844   0.41042   0.31117   0.00000  Uiso   1.00
C338   C     0.33282   0.47098   0.25969   0.00000  Uiso   1.00
C339   C     0.40147   0.47661   0.24169   0.00000  Uiso   1.00
C340   C     0.17178   0.33343   0.33041   0.00000  Uiso   1.00
C341   C     0.13647   0.32925   0.29512   0.00000  Uiso   1.00
C342   C     0.11532   0.27008   0.29332   0.00000  Uiso   1.00
C343   C     0.16575   0.36948   0.41572   0.00000  Uiso   1.00
C344   C     0.12534   0.39560   0.45216   0.00000  Uiso   1.00
C345   C     0.09909   0.36676   0.52219   0.00000  Uiso   1.00
H346   H     0.23545   0.25447   0.42359   0.00000  Uiso   1.00
H347   H     0.37131   0.32187   0.35065   0.00000  Uiso   1.00
H348   H     0.17498   0.18017   0.38608   0.00000  Uiso   1.00
H349   H     0.16386   0.24650   0.54309   0.00000  Uiso   1.00
H350   H     0.51590   0.41998   0.25549   0.00000  Uiso   1.00
H351   H     0.10191   0.12118   0.33021   0.00000  Uiso   1.00
H352   H     0.07845   0.26107   0.66132   0.00000  Uiso   1.00
H353   H     0.18889   0.43472   0.31364   0.00000  Uiso   1.00
H354   H     0.32220   0.51201   0.23466   0.00000  Uiso   1.00
H355   H     0.12587   0.37031   0.27009   0.00000  Uiso   1.00
H356   H     0.11475   0.43665   0.42711   0.00000  Uiso   1.00
H357   H     0.47604   0.57431   0.16135   0.00000  Uiso   1.00
H358   H     0.06204   0.27551   0.23608   0.00000  Uiso   1.00
H359   H     0.03859   0.41539   0.56718   0.00000  Uiso   1.00
O360   O     0.58450   0.54473   0.15844   0.00000  Uiso   1.00
O361   O     0.04135   0.15272   0.25648   0.00000  Uiso   1.00
O362   O     0.01058   0.33624   0.69088   0.00000  Uiso   1.00
N363   N     0.48822   0.44570   0.24419   0.00000  Uiso   1.00
N364   N     0.10117   0.16634   0.31404   0.00000  Uiso   1.00
N365   N     0.07923   0.29711   0.62359   0.00000  Uiso   1.00
N366   N     0.46677   0.52874   0.19353   0.00000  Uiso   1.00
N367   N     0.07972   0.24939   0.26338   0.00000  Uiso   1.00
N368   N     0.05778   0.38015   0.57293   0.00000  Uiso   1.00
C369   C     0.12179   0.89886   0.50357   0.00000  Uiso   1.00
C370   C     0.11159   0.82714   0.52310   0.00000  Uiso   1.00
C371   C     0.04922   0.77556   0.54719   0.00000  Uiso   1.00
C372   C     0.05073   0.71354   0.56218   0.00000  Uiso   1.00
C373   C     0.02553   0.60370   0.59381   0.00000  Uiso   1.00
C374   C     0.18315   0.93928   0.42973   0.00000  Uiso   1.00
C375   C     0.18094   0.98200   0.37532   0.00000  Uiso   1.00
C376   C     0.24268   0.01440   0.31170   0.00000  Uiso   1.00
C377   C     0.32859   0.07870   0.19838   0.00000  Uiso   1.00
C378   C     0.14847   0.91754   0.54676   0.00000  Uiso   1.00
C379   C     0.11711   0.94200   0.59075   0.00000  Uiso   1.00
C380   C     0.14967   0.95610   0.62566   0.00000  Uiso   1.00
C381   C     0.18173   0.98664   0.69406   0.00000  Uiso   1.00
C382   C     0.23539   0.88044   0.48735   0.00000  Uiso   1.00
C383   C     0.17330   0.81713   0.51428   0.00000  Uiso   1.00
C384   C     0.17490   0.75518   0.52924   0.00000  Uiso   1.00
C385   C     0.11254   0.70352   0.55336   0.00000  Uiso   1.00
C386   C     0.24485   0.92928   0.42091   0.00000  Uiso   1.00
C387   C     0.30662   0.96162   0.35737   0.00000  Uiso   1.00
C388   C     0.30450   0.00438   0.30287   0.00000  Uiso   1.00
C389   C     0.21017   0.90753   0.53795   0.00000  Uiso   1.00
C390   C     0.24279   0.92161   0.57280   0.00000  Uiso   1.00
C391   C     0.21149   0.94608   0.61683   0.00000  Uiso   1.00
H392   H     0.07375   0.90665   0.51043   0.00000  Uiso   1.00
H393   H     0.00148   0.78332   0.55400   0.00000  Uiso   1.00
H394   H     0.13318   0.98974   0.38215   0.00000  Uiso   1.00
H395   H     0.06936   0.94973   0.59756   0.00000  Uiso   1.00
H396   H     0.94857   0.64218   0.59840   0.00000  Uiso   1.00
H397   H     0.22627   0.07744   0.23605   0.00000  Uiso   1.00
H398   H     0.09170   0.99308   0.69027   0.00000  Uiso   1.00
H399   H     0.28343   0.87265   0.48048   0.00000  Uiso   1.00
H400   H     0.22266   0.74745   0.52242   0.00000  Uiso   1.00
H401   H     0.35436   0.95387   0.35057   0.00000  Uiso   1.00
H402   H     0.29054   0.91386   0.56597   0.00000  Uiso   1.00
H403   H     0.12809   0.61307   0.57276   0.00000  Uiso   1.00
H404   H     0.40579   0.04833   0.21041   0.00000  Uiso   1.00
H405   H     0.27122   0.96396   0.66463   0.00000  Uiso   1.00
O406   O     0.99458   0.54588   0.61368   0.00000  Uiso   1.00
O407   O     0.35892   0.11693   0.13830   0.00000  Uiso   1.00
O408   O     0.18236   0.00625   0.73423   0.00000  Uiso   1.00
N409   N     0.99916   0.65251   0.58662   0.00000  Uiso   1.00
N410   N     0.25879   0.05944   0.24785   0.00000  Uiso   1.00
N411   N     0.13298   0.98059   0.67249   0.00000  Uiso   1.00
N412   N     0.09576   0.63684   0.57283   0.00000  Uiso   1.00
N413   N     0.35539   0.04377   0.23405   0.00000  Uiso   1.00
N414   N     0.22958   0.96492   0.65870   0.00000  Uiso   1.00
C415   C     0.85604   0.69535   0.09417   0.00000  Uiso   1.00
C416   C     0.87190   0.63480   0.09642   0.00000  Uiso   1.00
C417   C     0.93644   0.63033   0.08229   0.00000  Uiso   1.00
C418   C     0.94020   0.57065   0.08717   0.00000  Uiso   1.00
C419   C     0.97377   0.48474   0.08784   0.00000  Uiso   1.00
C420   C     0.82894   0.71138   0.04453   0.00000  Uiso   1.00
C421   C     0.85736   0.77131   0.98678   0.00000  Uiso   1.00
C422   C     0.82495   0.77609   0.94800   0.00000  Uiso   1.00
C423   C     0.79181   0.80909   0.86814   0.00000  Uiso   1.00
C424   C     0.79319   0.67268   0.16471   0.00000  Uiso   1.00
C425   C     0.79154   0.70008   0.20801   0.00000  Uiso   1.00
C426   C     0.72903   0.67230   0.27040   0.00000  Uiso   1.00
C427   C     0.64037   0.64521   0.37713   0.00000  Uiso   1.00
C428   C     0.74794   0.59729   0.12797   0.00000  Uiso   1.00
C429   C     0.81318   0.58154   0.11478   0.00000  Uiso   1.00
C430   C     0.81685   0.52184   0.11969   0.00000  Uiso   1.00
C431   C     0.88138   0.51729   0.10557   0.00000  Uiso   1.00
C432   C     0.77023   0.65812   0.06289   0.00000  Uiso   1.00
C433   C     0.73777   0.66282   0.02418   0.00000  Uiso   1.00
C434   C     0.76614   0.72273   0.96639   0.00000  Uiso   1.00
C435   C     0.73448   0.61942   0.18307   0.00000  Uiso   1.00
C436   C     0.67195   0.59159   0.24540   0.00000  Uiso   1.00
C437   C     0.67021   0.61894   0.28879   0.00000  Uiso   1.00
H438   H     0.90174   0.73682   0.07987   0.00000  Uiso   1.00
H439   H     0.98186   0.67157   0.06808   0.00000  Uiso   1.00
H440   H     0.90279   0.81252   0.97259   0.00000  Uiso   1.00
H441   H     0.83699   0.74130   0.19378   0.00000  Uiso   1.00
H442   H     0.04480   0.57574   0.06307   0.00000  Uiso   1.00
H443   H     0.87807   0.87295   0.86175   0.00000  Uiso   1.00
H444   H     0.73930   0.72278   0.32817   0.00000  Uiso   1.00
H445   H     0.70223   0.55582   0.14226   0.00000  Uiso   1.00
H446   H     0.77140   0.48063   0.13389   0.00000  Uiso   1.00
H447   H     0.69234   0.62159   0.03841   0.00000  Uiso   1.00
H448   H     0.62653   0.55037   0.25959   0.00000  Uiso   1.00
H449   H     0.87399   0.42077   0.11649   0.00000  Uiso   1.00
H450   H     0.70725   0.71799   0.91517   0.00000  Uiso   1.00
H451   H     0.56849   0.56781   0.38159   0.00000  Uiso   1.00
O452   O     0.00851   0.45207   0.08313   0.00000  Uiso   1.00
O453   O     0.78975   0.84200   0.81901   0.00000  Uiso   1.00
O454   O     0.60770   0.64498   0.43094   0.00000  Uiso   1.00
N455   N     0.99511   0.54958   0.07681   0.00000  Uiso   1.00
N456   N     0.83923   0.82745   0.88858   0.00000  Uiso   1.00
N457   N     0.70949   0.68707   0.32463   0.00000  Uiso   1.00
N458   N     0.90319   0.46620   0.10555   0.00000  Uiso   1.00
N459   N     0.74731   0.74407   0.91732   0.00000  Uiso   1.00
N460   N     0.61757   0.60368   0.35337   0.00000  Uiso   1.00
C461   C     0.35610   0.22523   0.86110   0.00000  Uiso   1.00
C462   C     0.41792   0.27784   0.79065   0.00000  Uiso   1.00
C463   C     0.44191   0.34546   0.76785   0.00000  Uiso   1.00
C464   C     0.49920   0.38536   0.70171   0.00000  Uiso   1.00
C465   C     0.59030   0.47113   0.59866   0.00000  Uiso   1.00
C466   C     0.30506   0.18481   0.84828   0.00000  Uiso   1.00
C467   C     0.23416   0.17420   0.87394   0.00000  Uiso   1.00
C468   C     0.19644   0.13578   0.85631   0.00000  Uiso   1.00
C469   C     0.11231   0.07707   0.84277   0.00000  Uiso   1.00
C470   C     0.38579   0.17922   0.89166   0.00000  Uiso   1.00
C471   C     0.38275   0.16389   0.95380   0.00000  Uiso   1.00
C472   C     0.41299   0.12075   0.97270   0.00000  Uiso   1.00
C473   C     0.45420   0.05336   0.02651   0.00000  Uiso   1.00
C474   C     0.41519   0.17586   0.78417   0.00000  Uiso   1.00
C475   C     0.45002   0.25102   0.74887   0.00000  Uiso   1.00
C476   C     0.50729   0.29083   0.68274   0.00000  Uiso   1.00
C477   C     0.53136   0.35850   0.65984   0.00000  Uiso   1.00
C478   C     0.33716   0.15799   0.80649   0.00000  Uiso   1.00
C479   C     0.29954   0.11957   0.78883   0.00000  Uiso   1.00
C480   C     0.22860   0.10891   0.81445   0.00000  Uiso   1.00
C481   C     0.41789   0.15240   0.84987   0.00000  Uiso   1.00
C482   C     0.44814   0.10927   0.86868   0.00000  Uiso   1.00
C483   C     0.44514   0.09388   0.93084   0.00000  Uiso   1.00
H484   H     0.33110   0.24611   0.89364   0.00000  Uiso   1.00
H485   H     0.41705   0.36619   0.80020   0.00000  Uiso   1.00
H486   H     0.20933   0.19495   0.90628   0.00000  Uiso   1.00
H487   H     0.35790   0.18465   0.98613   0.00000  Uiso   1.00
H488   H     0.52648   0.48750   0.67818   0.00000  Uiso   1.00
H489   H     0.08849   0.12642   0.90187   0.00000  Uiso   1.00
H490   H     0.40177   0.10469   0.07024   0.00000  Uiso   1.00
H491   H     0.44018   0.15498   0.75164   0.00000  Uiso   1.00
H492   H     0.53212   0.27007   0.65041   0.00000  Uiso   1.00
H493   H     0.32440   0.09883   0.75649   0.00000  Uiso   1.00
H494   H     0.47297   0.08853   0.83633   0.00000  Uiso   1.00
H495   H     0.61987   0.40948   0.55660   0.00000  Uiso   1.00
H496   H     0.18188   0.04840   0.78030   0.00000  Uiso   1.00
H497   H     0.49517   0.02667   0.94866   0.00000  Uiso   1.00
O498   O     0.63167   0.52584   0.55336   0.00000  Uiso   1.00
O499   O     0.05704   0.05211   0.84684   0.00000  Uiso   1.00
O500   O     0.46807   0.02361   0.06773   0.00000  Uiso   1.00
N501   N     0.53585   0.45334   0.66346   0.00000  Uiso   1.00
N502   N     0.12636   0.11576   0.87259   0.00000  Uiso   1.00
N503   N     0.41924   0.09544   0.03001   0.00000  Uiso   1.00
N504   N     0.58611   0.41136   0.59804   0.00000  Uiso   1.00
N505   N     0.17661   0.07378   0.80717   0.00000  Uiso   1.00
N506   N     0.46949   0.05346   0.96459   0.00000  Uiso   1.00
C507   C     0.85737   0.12097   0.08552   0.00000  Uiso   1.00
C508   C     0.78177   0.11600   0.10902   0.00000  Uiso   1.00
C509   C     0.72066   0.05910   0.15676   0.00000  Uiso   1.00
C510   C     0.65655   0.06480   0.17129   0.00000  Uiso   1.00
C511   C     0.53959   0.04788   0.21264   0.00000  Uiso   1.00
C512   C     0.89469   0.14921   0.00789   0.00000  Uiso   1.00
C513   C     0.92854   0.12022   0.97060   0.00000  Uiso   1.00
C514   C     0.95950   0.15388   0.90000   0.00000  Uiso   1.00
C515   C     0.01790   0.18853   0.78433   0.00000  Uiso   1.00
C516   C     0.89209   0.17399   0.09916   0.00000  Uiso   1.00
C517   C     0.92377   0.16585   0.13859   0.00000  Uiso   1.00
C518   C     0.95256   0.22037   0.14481   0.00000  Uiso   1.00
C519   C     0.00693   0.29350   0.17085   0.00000  Uiso   1.00
C520   C     0.85219   0.23229   0.02644   0.00000  Uiso   1.00
C521   C     0.77895   0.17647   0.07693   0.00000  Uiso   1.00
C522   C     0.71492   0.18226   0.09139   0.00000  Uiso   1.00
C523   C     0.65373   0.12537   0.13914   0.00000  Uiso   1.00
C524   C     0.89188   0.20967   0.97580   0.00000  Uiso   1.00
C525   C     0.92280   0.24338   0.90523   0.00000  Uiso   1.00
C526   C     0.95668   0.21445   0.86785   0.00000  Uiso   1.00
C527   C     0.88928   0.23446   0.06706   0.00000  Uiso   1.00
C528   C     0.91803   0.28901   0.07322   0.00000  Uiso   1.00
C529   C     0.94974   0.28095   0.11266   0.00000  Uiso   1.00
H530   H     0.85956   0.07390   0.11051   0.00000  Uiso   1.00
H531   H     0.72286   0.01231   0.18158   0.00000  Uiso   1.00
H532   H     0.93071   0.07343   0.99545   0.00000  Uiso   1.00
H533   H     0.92594   0.11905   0.16342   0.00000  Uiso   1.00
H534   H     0.57005   0.97069   0.24622   0.00000  Uiso   1.00
H535   H     0.00835   0.09957   0.85375   0.00000  Uiso   1.00
H536   H     0.99828   0.19577   0.20793   0.00000  Uiso   1.00
H537   H     0.85000   0.27937   0.00145   0.00000  Uiso   1.00
H538   H     0.71276   0.22906   0.06655   0.00000  Uiso   1.00
H539   H     0.92062   0.29018   0.88041   0.00000  Uiso   1.00
H540   H     0.91584   0.33579   0.04838   0.00000  Uiso   1.00
H541   H     0.56186   0.14661   0.15284   0.00000  Uiso   1.00
H542   H     0.00016   0.27550   0.76037   0.00000  Uiso   1.00
H543   H     0.99009   0.37169   0.11456   0.00000  Uiso   1.00
O544   O     0.47586   0.02184   0.24430   0.00000  Uiso   1.00
O545   O     0.05089   0.19094   0.72940   0.00000  Uiso   1.00
O546   O     0.03768   0.31714   0.19408   0.00000  Uiso   1.00
N547   N     0.58696   0.01900   0.21532   0.00000  Uiso   1.00
N548   N     0.99673   0.13949   0.84838   0.00000  Uiso   1.00
N549   N     0.98734   0.22943   0.17950   0.00000  Uiso   1.00
N550   N     0.58255   0.11366   0.16507   0.00000  Uiso   1.00
N551   N     0.99232   0.23416   0.79814   0.00000  Uiso   1.00
N552   N     0.98293   0.32409   0.12926   0.00000  Uiso   1.00
