data_job_06263
_audit_creation_date              2018-12-19
_audit_creation_method            'Materials Studio'
_symmetry_space_group_name_H-M    'P1'
_symmetry_Int_Tables_number       1
_symmetry_cell_setting            triclinic
loop_
_symmetry_equiv_pos_as_xyz
  x,y,z
_cell_length_a                    11.0692
_cell_length_b                    19.1419
_cell_length_c                    20.2986
_cell_angle_alpha                 115.7650
_cell_angle_beta                  77.5208
_cell_angle_gamma                 86.1641
loop_
_atom_site_label
_atom_site_type_symbol
_atom_site_fract_x
_atom_site_fract_y
_atom_site_fract_z
_atom_site_U_iso_or_equiv
_atom_site_adp_type
_atom_site_occupancy
C1     C     0.71807   0.70415   0.78832   0.00000  Uiso   1.00
C2     C     0.79606   0.68806   0.70976   0.00000  Uiso   1.00
C3     C     0.87275   0.73656   0.69423   0.00000  Uiso   1.00
C4     C     0.93631   0.71140   0.61862   0.00000  Uiso   1.00
C5     C     0.05930   0.69726   0.50546   0.00000  Uiso   1.00
C6     C     0.58265   0.70194   0.78356   0.00000  Uiso   1.00
C7     C     0.47991   0.76209   0.83008   0.00000  Uiso   1.00
C8     C     0.36382   0.74860   0.81660   0.00000  Uiso   1.00
C9     C     0.15548   0.75598   0.81803   0.00000  Uiso   1.00
C10    C     0.75938   0.63273   0.79855   0.00000  Uiso   1.00
C11    C     0.80520   0.63469   0.85769   0.00000  Uiso   1.00
C12    C     0.83787   0.56294   0.85684   0.00000  Uiso   1.00
C13    C     0.90392   0.46287   0.88156   0.00000  Uiso   1.00
C14    C     0.69456   0.57324   0.68168   0.00000  Uiso   1.00
C15    C     0.78329   0.61696   0.65184   0.00000  Uiso   1.00
C16    C     0.84675   0.59172   0.57624   0.00000  Uiso   1.00
C17    C     0.92352   0.64017   0.56060   0.00000  Uiso   1.00
C18    C     0.56988   0.63084   0.72564   0.00000  Uiso   1.00
C19    C     0.45391   0.61725   0.71209   0.00000  Uiso   1.00
C20    C     0.35103   0.67737   0.75857   0.00000  Uiso   1.00
C21    C     0.74661   0.56163   0.74063   0.00000  Uiso   1.00
C22    C     0.77920   0.48986   0.73970   0.00000  Uiso   1.00
C23    C     0.82507   0.49171   0.79882   0.00000  Uiso   1.00
H24    H     0.72800   0.75951   0.83342   0.00000  Uiso   1.00
H25    H     0.88260   0.79158   0.73907   0.00000  Uiso   1.00
H26    H     0.48982   0.81710   0.87490   0.00000  Uiso   1.00
H27    H     0.81506   0.68973   0.90250   0.00000  Uiso   1.00
H28    H     0.04833   0.79580   0.60892   0.00000  Uiso   1.00
H29    H     0.22014   0.84961   0.89534   0.00000  Uiso   1.00
H30    H     0.90597   0.58101   0.95356   0.00000  Uiso   1.00
H31    H     0.68462   0.51788   0.63658   0.00000  Uiso   1.00
H32    H     0.83685   0.53669   0.53143   0.00000  Uiso   1.00
H33    H     0.44407   0.56222   0.66726   0.00000  Uiso   1.00
H34    H     0.76931   0.43484   0.69486   0.00000  Uiso   1.00
H35    H     0.01120   0.58893   0.44039   0.00000  Uiso   1.00
H36    H     0.18300   0.64273   0.72682   0.00000  Uiso   1.00
H37    H     0.86883   0.37414   0.78503   0.00000  Uiso   1.00
O38    O     0.13065   0.70912   0.45903   0.00000  Uiso   1.00
O39    O     0.04409   0.77970   0.83482   0.00000  Uiso   1.00
O40    O     0.94389   0.42731   0.91119   0.00000  Uiso   1.00
N41    N     0.01872   0.74452   0.58369   0.00000  Uiso   1.00
N42    N     0.24441   0.79484   0.85147   0.00000  Uiso   1.00
N43    N     0.88558   0.54372   0.90590   0.00000  Uiso   1.00
N44    N     0.99874   0.63321   0.49301   0.00000  Uiso   1.00
N45    N     0.22443   0.68352   0.76079   0.00000  Uiso   1.00
N46    N     0.86559   0.43240   0.81522   0.00000  Uiso   1.00
C47    C     0.49605   0.20845   0.91468   0.00000  Uiso   1.00
C48    C     0.49922   0.29176   0.97276   0.00000  Uiso   1.00
C49    C     0.55771   0.31095   0.03077   0.00000  Uiso   1.00
C50    C     0.54990   0.39062   0.07795   0.00000  Uiso   1.00
C51    C     0.56450   0.51112   0.16976   0.00000  Uiso   1.00
C52    C     0.35731   0.20367   0.92125   0.00000  Uiso   1.00
C53    C     0.29650   0.14878   0.93594   0.00000  Uiso   1.00
C54    C     0.16922   0.15430   0.93975   0.00000  Uiso   1.00
C55    C     0.96353   0.13800   0.95153   0.00000  Uiso   1.00
C56    C     0.55081   0.20350   0.83677   0.00000  Uiso   1.00
C57    C     0.65267   0.14845   0.78041   0.00000  Uiso   1.00
C58    C     0.68829   0.15381   0.71309   0.00000  Uiso   1.00
C59    C     0.78305   0.13724   0.59370   0.00000  Uiso   1.00
C60    C     0.37814   0.31584   0.89533   0.00000  Uiso   1.00
C61    C     0.43517   0.35009   0.96225   0.00000  Uiso   1.00
C62    C     0.42727   0.42976   0.00936   0.00000  Uiso   1.00
C63    C     0.48575   0.44906   0.06742   0.00000  Uiso   1.00
C64    C     0.29327   0.26200   0.91074   0.00000  Uiso   1.00
C65    C     0.16605   0.26760   0.91453   0.00000  Uiso   1.00
C66    C     0.10506   0.21273   0.92922   0.00000  Uiso   1.00
C67    C     0.48677   0.26183   0.82626   0.00000  Uiso   1.00
C68    C     0.52223   0.26727   0.75900   0.00000  Uiso   1.00
C69    C     0.62413   0.21224   0.70256   0.00000  Uiso   1.00
H70    H     0.54590   0.16303   0.92286   0.00000  Uiso   1.00
H71    H     0.60726   0.26579   0.03888   0.00000  Uiso   1.00
H72    H     0.34608   0.10365   0.94406   0.00000  Uiso   1.00
H73    H     0.70221   0.10332   0.78856   0.00000  Uiso   1.00
H74    H     0.64700   0.40544   0.16290   0.00000  Uiso   1.00
H75    H     0.09631   0.06353   0.96294   0.00000  Uiso   1.00
H76    H     0.84727   0.06284   0.63503   0.00000  Uiso   1.00
H77    H     0.32828   0.36125   0.88714   0.00000  Uiso   1.00
H78    H     0.37770   0.47489   0.00121   0.00000  Uiso   1.00
H79    H     0.11652   0.31274   0.90639   0.00000  Uiso   1.00
H80    H     0.47265   0.31241   0.75089   0.00000  Uiso   1.00
H81    H     0.46068   0.57515   0.13233   0.00000  Uiso   1.00
H82    H     0.90999   0.23324   0.93236   0.00000  Uiso   1.00
H83    H     0.66095   0.23255   0.60446   0.00000  Uiso   1.00
O84    O     0.59024   0.56147   0.22331   0.00000  Uiso   1.00
O85    O     0.86777   0.11289   0.96095   0.00000  Uiso   1.00
O86    O     0.85301   0.11199   0.53076   0.00000  Uiso   1.00
N87    N     0.59639   0.42979   0.14004   0.00000  Uiso   1.00
N88    N     0.08152   0.11013   0.95310   0.00000  Uiso   1.00
N89    N     0.78359   0.10947   0.64653   0.00000  Uiso   1.00
N90    N     0.49613   0.52111   0.12359   0.00000  Uiso   1.00
N91    N     0.98127   0.20145   0.93664   0.00000  Uiso   1.00
N92    N     0.68333   0.20079   0.63008   0.00000  Uiso   1.00
C93    C     0.41776   0.09573   0.29873   0.00000  Uiso   1.00
C94    C     0.47175   0.03619   0.32081   0.00000  Uiso   1.00
C95    C     0.58414   0.98261   0.28127   0.00000  Uiso   1.00
C96    C     0.61702   0.93313   0.31074   0.00000  Uiso   1.00
C97    C     0.71251   0.84004   0.33486   0.00000  Uiso   1.00
C98    C     0.28670   0.07964   0.29211   0.00000  Uiso   1.00
C99    C     0.24351   0.06261   0.22846   0.00000  Uiso   1.00
C100   C     0.12060   0.04973   0.23378   0.00000  Uiso   1.00
C101   C     0.92877   0.02416   0.21337   0.00000  Uiso   1.00
C102   C     0.39788   0.17643   0.36731   0.00000  Uiso   1.00
C103   C     0.44814   0.24079   0.36688   0.00000  Uiso   1.00
C104   C     0.41881   0.30940   0.43551   0.00000  Uiso   1.00
C105   C     0.39961   0.43410   0.53186   0.00000  Uiso   1.00
C106   C     0.27630   0.10315   0.42137   0.00000  Uiso   1.00
C107   C     0.39491   0.04022   0.38742   0.00000  Uiso   1.00
C108   C     0.42763   0.99081   0.41696   0.00000  Uiso   1.00
C109   C     0.54005   0.93717   0.37747   0.00000  Uiso   1.00
C110   C     0.20986   0.08367   0.35872   0.00000  Uiso   1.00
C111   C     0.08699   0.07081   0.36414   0.00000  Uiso   1.00
C112   C     0.04362   0.05376   0.30051   0.00000  Uiso   1.00
C113   C     0.32104   0.18046   0.43392   0.00000  Uiso   1.00
C114   C     0.29163   0.24899   0.50256   0.00000  Uiso   1.00
C115   C     0.34183   0.31343   0.50224   0.00000  Uiso   1.00
H116   H     0.47758   0.09259   0.24687   0.00000  Uiso   1.00
H117   H     0.64358   0.97950   0.22972   0.00000  Uiso   1.00
H118   H     0.30299   0.05951   0.17692   0.00000  Uiso   1.00
H119   H     0.50759   0.23765   0.31532   0.00000  Uiso   1.00
H120   H     0.79371   0.85588   0.24007   0.00000  Uiso   1.00
H121   H     0.07554   0.02459   0.12874   0.00000  Uiso   1.00
H122   H     0.50699   0.40024   0.42059   0.00000  Uiso   1.00
H123   H     0.21647   0.10628   0.47323   0.00000  Uiso   1.00
H124   H     0.36815   0.99394   0.46850   0.00000  Uiso   1.00
H125   H     0.02756   0.07394   0.41570   0.00000  Uiso   1.00
H126   H     0.23216   0.25208   0.55410   0.00000  Uiso   1.00
H127   H     0.57016   0.86760   0.43387   0.00000  Uiso   1.00
H128   H     0.85199   0.03631   0.32254   0.00000  Uiso   1.00
H129   H     0.28344   0.41196   0.61439   0.00000  Uiso   1.00
O130   O     0.78640   0.78758   0.32976   0.00000  Uiso   1.00
O131   O     0.84419   0.00893   0.18371   0.00000  Uiso   1.00
O132   O     0.41025   0.50177   0.56661   0.00000  Uiso   1.00
N133   N     0.72029   0.87407   0.28634   0.00000  Uiso   1.00
N134   N     0.04886   0.03179   0.18225   0.00000  Uiso   1.00
N135   N     0.45220   0.38300   0.45510   0.00000  Uiso   1.00
N136   N     0.60000   0.88037   0.39062   0.00000  Uiso   1.00
N137   N     0.92857   0.03809   0.28653   0.00000  Uiso   1.00
N138   N     0.33191   0.38930   0.55938   0.00000  Uiso   1.00
C139   C     0.28193   0.29585   0.21168   0.00000  Uiso   1.00
C140   C     0.20394   0.31194   0.29024   0.00000  Uiso   1.00
C141   C     0.12725   0.26344   0.30577   0.00000  Uiso   1.00
C142   C     0.06369   0.28860   0.38138   0.00000  Uiso   1.00
C143   C     0.94070   0.30274   0.49454   0.00000  Uiso   1.00
C144   C     0.41735   0.29806   0.21644   0.00000  Uiso   1.00
C145   C     0.52008   0.23791   0.16992   0.00000  Uiso   1.00
C146   C     0.63618   0.25140   0.18340   0.00000  Uiso   1.00
C147   C     0.84452   0.24402   0.18197   0.00000  Uiso   1.00
C148   C     0.24062   0.36727   0.20145   0.00000  Uiso   1.00
C149   C     0.19480   0.36531   0.14231   0.00000  Uiso   1.00
C150   C     0.16213   0.43706   0.14316   0.00000  Uiso   1.00
C151   C     0.09608   0.53713   0.11844   0.00000  Uiso   1.00
C152   C     0.30544   0.42676   0.31832   0.00000  Uiso   1.00
C153   C     0.21671   0.38304   0.34816   0.00000  Uiso   1.00
C154   C     0.15325   0.40828   0.42376   0.00000  Uiso   1.00
C155   C     0.07648   0.35983   0.43940   0.00000  Uiso   1.00
C156   C     0.43012   0.36916   0.27436   0.00000  Uiso   1.00
C157   C     0.54609   0.38275   0.28791   0.00000  Uiso   1.00
C158   C     0.64897   0.32263   0.24143   0.00000  Uiso   1.00
C159   C     0.25339   0.43837   0.25937   0.00000  Uiso   1.00
C160   C     0.22080   0.51014   0.26030   0.00000  Uiso   1.00
C161   C     0.17493   0.50829   0.20118   0.00000  Uiso   1.00
H162   H     0.27200   0.24049   0.16658   0.00000  Uiso   1.00
H163   H     0.11740   0.20842   0.26093   0.00000  Uiso   1.00
H164   H     0.51018   0.18290   0.12510   0.00000  Uiso   1.00
H165   H     0.18494   0.31027   0.09750   0.00000  Uiso   1.00
H166   H     0.95167   0.20420   0.39108   0.00000  Uiso   1.00
H167   H     0.77986   0.15039   0.10466   0.00000  Uiso   1.00
H168   H     0.09403   0.41899   0.04644   0.00000  Uiso   1.00
H169   H     0.31538   0.48212   0.36342   0.00000  Uiso   1.00
H170   H     0.16315   0.46331   0.46857   0.00000  Uiso   1.00
H171   H     0.55593   0.43778   0.33274   0.00000  Uiso   1.00
H172   H     0.23069   0.56516   0.30514   0.00000  Uiso   1.00
H173   H     0.98880   0.41107   0.55961   0.00000  Uiso   1.00
H174   H     0.81700   0.35727   0.27318   0.00000  Uiso   1.00
H175   H     0.13117   0.62586   0.21497   0.00000  Uiso   1.00
O176   O     0.86935   0.29088   0.54097   0.00000  Uiso   1.00
O177   O     0.95591   0.22030   0.16518   0.00000  Uiso   1.00
O178   O     0.05611   0.57269   0.08881   0.00000  Uiso   1.00
N179   N     0.98128   0.25548   0.41631   0.00000  Uiso   1.00
N180   N     0.75559   0.20516   0.14853   0.00000  Uiso   1.00
N181   N     0.11442   0.45628   0.09410   0.00000  Uiso   1.00
N182   N     0.00126   0.36679   0.50699   0.00000  Uiso   1.00
N183   N     0.77557   0.31648   0.23921   0.00000  Uiso   1.00
N184   N     0.13441   0.56760   0.18478   0.00000  Uiso   1.00
C185   C     0.50395   0.79155   0.08532   0.00000  Uiso   1.00
C186   C     0.50078   0.70824   0.02724   0.00000  Uiso   1.00
C187   C     0.44229   0.68905   0.96923   0.00000  Uiso   1.00
C188   C     0.45010   0.60938   0.92205   0.00000  Uiso   1.00
C189   C     0.43550   0.48888   0.83024   0.00000  Uiso   1.00
C190   C     0.64269   0.79633   0.07875   0.00000  Uiso   1.00
C191   C     0.70350   0.85122   0.06406   0.00000  Uiso   1.00
C192   C     0.83078   0.84570   0.06025   0.00000  Uiso   1.00
C193   C     0.03647   0.86200   0.04847   0.00000  Uiso   1.00
C194   C     0.44919   0.79650   0.16323   0.00000  Uiso   1.00
C195   C     0.34733   0.85155   0.21959   0.00000  Uiso   1.00
C196   C     0.31171   0.84619   0.28691   0.00000  Uiso   1.00
C197   C     0.21695   0.86276   0.40630   0.00000  Uiso   1.00
C198   C     0.62186   0.68416   0.10467   0.00000  Uiso   1.00
C199   C     0.56483   0.64991   0.03775   0.00000  Uiso   1.00
C200   C     0.57273   0.57024   0.99064   0.00000  Uiso   1.00
C201   C     0.51425   0.55094   0.93258   0.00000  Uiso   1.00
C202   C     0.70674   0.73800   0.08926   0.00000  Uiso   1.00
C203   C     0.83395   0.73240   0.08547   0.00000  Uiso   1.00
C204   C     0.89494   0.78727   0.07078   0.00000  Uiso   1.00
C205   C     0.51323   0.73817   0.17374   0.00000  Uiso   1.00
C206   C     0.47777   0.73273   0.24100   0.00000  Uiso   1.00
C207   C     0.37587   0.78776   0.29744   0.00000  Uiso   1.00
H208   H     0.45410   0.83697   0.07714   0.00000  Uiso   1.00
H209   H     0.39274   0.73421   0.96112   0.00000  Uiso   1.00
H210   H     0.65392   0.89635   0.05594   0.00000  Uiso   1.00
H211   H     0.29779   0.89668   0.21144   0.00000  Uiso   1.00
H212   H     0.35300   0.59456   0.83710   0.00000  Uiso   1.00
H213   H     0.90369   0.93647   0.03706   0.00000  Uiso   1.00
H214   H     0.15273   0.93716   0.36497   0.00000  Uiso   1.00
H215   H     0.67172   0.63875   0.11286   0.00000  Uiso   1.00
H216   H     0.62230   0.52511   0.99879   0.00000  Uiso   1.00
H217   H     0.88348   0.68726   0.09361   0.00000  Uiso   1.00
H218   H     0.52735   0.68759   0.24911   0.00000  Uiso   1.00
H219   H     0.53932   0.42485   0.86767   0.00000  Uiso   1.00
H220   H     0.09001   0.76676   0.06764   0.00000  Uiso   1.00
H221   H     0.33905   0.76745   0.39554   0.00000  Uiso   1.00
O222   O     0.40976   0.43853   0.77669   0.00000  Uiso   1.00
O223   O     0.13223   0.88711   0.03905   0.00000  Uiso   1.00
O224   O     0.14699   0.88801   0.46924   0.00000  Uiso   1.00
N225   N     0.40361   0.57021   0.85996   0.00000  Uiso   1.00
N226   N     0.91848   0.88987   0.04690   0.00000  Uiso   1.00
N227   N     0.21641   0.89053   0.35347   0.00000  Uiso   1.00
N228   N     0.50387   0.47889   0.87641   0.00000  Uiso   1.00
N229   N     0.01873   0.79855   0.06336   0.00000  Uiso   1.00
N230   N     0.31667   0.79921   0.36992   0.00000  Uiso   1.00
C231   C     0.58224   0.90427   0.70127   0.00000  Uiso   1.00
C232   C     0.52825   0.96381   0.67919   0.00000  Uiso   1.00
C233   C     0.41586   0.01739   0.71873   0.00000  Uiso   1.00
C234   C     0.38298   0.06687   0.68926   0.00000  Uiso   1.00
C235   C     0.28749   0.15996   0.66514   0.00000  Uiso   1.00
C236   C     0.71330   0.92036   0.70789   0.00000  Uiso   1.00
C237   C     0.75649   0.93739   0.77154   0.00000  Uiso   1.00
C238   C     0.87940   0.95027   0.76622   0.00000  Uiso   1.00
C239   C     0.07123   0.97584   0.78663   0.00000  Uiso   1.00
C240   C     0.60212   0.82357   0.63269   0.00000  Uiso   1.00
C241   C     0.55186   0.75921   0.63312   0.00000  Uiso   1.00
C242   C     0.58119   0.69060   0.56449   0.00000  Uiso   1.00
C243   C     0.60039   0.56590   0.46814   0.00000  Uiso   1.00
C244   C     0.72370   0.89686   0.57863   0.00000  Uiso   1.00
C245   C     0.60509   0.95978   0.61258   0.00000  Uiso   1.00
C246   C     0.57237   0.00919   0.58304   0.00000  Uiso   1.00
C247   C     0.45995   0.06283   0.62253   0.00000  Uiso   1.00
C248   C     0.79014   0.91633   0.64128   0.00000  Uiso   1.00
C249   C     0.91301   0.92919   0.63586   0.00000  Uiso   1.00
C250   C     0.95638   0.94624   0.69949   0.00000  Uiso   1.00
C251   C     0.67895   0.81954   0.56608   0.00000  Uiso   1.00
C252   C     0.70837   0.75101   0.49744   0.00000  Uiso   1.00
C253   C     0.65817   0.68657   0.49776   0.00000  Uiso   1.00
H254   H     0.52242   0.90741   0.75313   0.00000  Uiso   1.00
H255   H     0.35642   0.02050   0.77028   0.00000  Uiso   1.00
H256   H     0.69701   0.94049   0.82308   0.00000  Uiso   1.00
H257   H     0.49241   0.76235   0.68468   0.00000  Uiso   1.00
H258   H     0.20629   0.14412   0.75993   0.00000  Uiso   1.00
H259   H     0.92446   0.97541   0.87126   0.00000  Uiso   1.00
H260   H     0.49301   0.59976   0.57941   0.00000  Uiso   1.00
H261   H     0.78353   0.89372   0.52677   0.00000  Uiso   1.00
H262   H     0.63185   0.00606   0.53150   0.00000  Uiso   1.00
H263   H     0.97244   0.92606   0.58430   0.00000  Uiso   1.00
H264   H     0.76784   0.74792   0.44590   0.00000  Uiso   1.00
H265   H     0.42984   0.13240   0.56613   0.00000  Uiso   1.00
H266   H     0.14801   0.96369   0.67746   0.00000  Uiso   1.00
H267   H     0.71656   0.58804   0.38561   0.00000  Uiso   1.00
O268   O     0.21360   0.21242   0.67024   0.00000  Uiso   1.00
O269   O     0.15581   0.99107   0.81629   0.00000  Uiso   1.00
O270   O     0.58975   0.49823   0.43339   0.00000  Uiso   1.00
N271   N     0.27971   0.12593   0.71366   0.00000  Uiso   1.00
N272   N     0.95114   0.96821   0.81775   0.00000  Uiso   1.00
N273   N     0.54780   0.61700   0.54490   0.00000  Uiso   1.00
N274   N     0.40000   0.11963   0.60938   0.00000  Uiso   1.00
N275   N     0.07143   0.96191   0.71347   0.00000  Uiso   1.00
N276   N     0.66809   0.61070   0.44062   0.00000  Uiso   1.00
