data_job_01236
_audit_creation_date              2018-12-19
_audit_creation_method            'Materials Studio'
_symmetry_space_group_name_H-M    'P1'
_symmetry_Int_Tables_number       1
_symmetry_cell_setting            triclinic
loop_
_symmetry_equiv_pos_as_xyz
  x,y,z
_cell_length_a                    12.6814
_cell_length_b                    12.3307
_cell_length_c                    33.0685
_cell_angle_alpha                 90.0000
_cell_angle_beta                  90.0000
_cell_angle_gamma                 90.0000
loop_
_atom_site_label
_atom_site_type_symbol
_atom_site_fract_x
_atom_site_fract_y
_atom_site_fract_z
_atom_site_U_iso_or_equiv
_atom_site_adp_type
_atom_site_occupancy
C1     C     0.66711   0.77434   0.40870   0.00000  Uiso   1.00
C2     C     0.57293   0.69823   0.41278   0.00000  Uiso   1.00
C3     C     0.56870   0.60627   0.43691   0.00000  Uiso   1.00
C4     C     0.47536   0.54743   0.43646   0.00000  Uiso   1.00
C5     C     0.34221   0.42434   0.44639   0.00000  Uiso   1.00
C6     C     0.69332   0.77820   0.36371   0.00000  Uiso   1.00
C7     C     0.79032   0.75348   0.34660   0.00000  Uiso   1.00
C8     C     0.79832   0.76197   0.30485   0.00000  Uiso   1.00
C9     C     0.85211   0.76312   0.23861   0.00000  Uiso   1.00
C10    C     0.62665   0.88704   0.41963   0.00000  Uiso   1.00
C11    C     0.66761   0.95385   0.44953   0.00000  Uiso   1.00
C12    C     0.61951   0.05400   0.45485   0.00000  Uiso   1.00
C13    C     0.56978   0.22413   0.47543   0.00000  Uiso   1.00
C14    C     0.50887   0.83338   0.36497   0.00000  Uiso   1.00
C15    C     0.48698   0.73030   0.38902   0.00000  Uiso   1.00
C16    C     0.39362   0.67159   0.38854   0.00000  Uiso   1.00
C17    C     0.38925   0.57955   0.41267   0.00000  Uiso   1.00
C18    C     0.60737   0.81026   0.33996   0.00000  Uiso   1.00
C19    C     0.61524   0.81880   0.29823   0.00000  Uiso   1.00
C20    C     0.71222   0.79410   0.28105   0.00000  Uiso   1.00
C21    C     0.54070   0.91911   0.39588   0.00000  Uiso   1.00
C22    C     0.49253   0.01917   0.40115   0.00000  Uiso   1.00
C23    C     0.53340   0.08612   0.43105   0.00000  Uiso   1.00
H24    H     0.73403   0.74937   0.42719   0.00000  Uiso   1.00
H25    H     0.63523   0.58147   0.45529   0.00000  Uiso   1.00
H26    H     0.85682   0.72868   0.36499   0.00000  Uiso   1.00
H27    H     0.73412   0.92901   0.46790   0.00000  Uiso   1.00
H28    H     0.48781   0.40944   0.47596   0.00000  Uiso   1.00
H29    H     0.95504   0.71987   0.28556   0.00000  Uiso   1.00
H30    H     0.69633   0.14232   0.50257   0.00000  Uiso   1.00
H31    H     0.44195   0.85835   0.34648   0.00000  Uiso   1.00
H32    H     0.32712   0.69643   0.37015   0.00000  Uiso   1.00
H33    H     0.54871   0.84363   0.27986   0.00000  Uiso   1.00
H34    H     0.42602   0.04396   0.38277   0.00000  Uiso   1.00
H35    H     0.23774   0.50274   0.40686   0.00000  Uiso   1.00
H36    H     0.70498   0.81317   0.21646   0.00000  Uiso   1.00
H37    H     0.44625   0.23561   0.43347   0.00000  Uiso   1.00
O38    O     0.29252   0.34759   0.45843   0.00000  Uiso   1.00
O39    O     0.90552   0.75487   0.20864   0.00000  Uiso   1.00
O40    O     0.56608   0.30911   0.49335   0.00000  Uiso   1.00
N41    N     0.44470   0.45363   0.45645   0.00000  Uiso   1.00
N42    N     0.88154   0.74385   0.27844   0.00000  Uiso   1.00
N43    N     0.63968   0.13881   0.48132   0.00000  Uiso   1.00
N44    N     0.31014   0.50384   0.41927   0.00000  Uiso   1.00
N45    N     0.74698   0.79405   0.24126   0.00000  Uiso   1.00
N46    N     0.50512   0.18902   0.44414   0.00000  Uiso   1.00
C47    C     0.83289   0.72566   0.90870   0.00000  Uiso   1.00
C48    C     0.92707   0.80177   0.91278   0.00000  Uiso   1.00
C49    C     0.93130   0.89373   0.93691   0.00000  Uiso   1.00
C50    C     0.02464   0.95257   0.93646   0.00000  Uiso   1.00
C51    C     0.15779   0.07566   0.94639   0.00000  Uiso   1.00
C52    C     0.80668   0.72180   0.86371   0.00000  Uiso   1.00
C53    C     0.70968   0.74652   0.84660   0.00000  Uiso   1.00
C54    C     0.70168   0.73803   0.80485   0.00000  Uiso   1.00
C55    C     0.64789   0.73688   0.73861   0.00000  Uiso   1.00
C56    C     0.87335   0.61296   0.91963   0.00000  Uiso   1.00
C57    C     0.83239   0.54615   0.94953   0.00000  Uiso   1.00
C58    C     0.88049   0.44600   0.95485   0.00000  Uiso   1.00
C59    C     0.93022   0.27587   0.97543   0.00000  Uiso   1.00
C60    C     0.99113   0.66662   0.86497   0.00000  Uiso   1.00
C61    C     0.01302   0.76970   0.88902   0.00000  Uiso   1.00
C62    C     0.10638   0.82841   0.88854   0.00000  Uiso   1.00
C63    C     0.11075   0.92045   0.91267   0.00000  Uiso   1.00
C64    C     0.89263   0.68974   0.83996   0.00000  Uiso   1.00
C65    C     0.88476   0.68120   0.79823   0.00000  Uiso   1.00
C66    C     0.78778   0.70590   0.78105   0.00000  Uiso   1.00
C67    C     0.95930   0.58089   0.89588   0.00000  Uiso   1.00
C68    C     0.00747   0.48083   0.90115   0.00000  Uiso   1.00
C69    C     0.96660   0.41388   0.93105   0.00000  Uiso   1.00
H70    H     0.76597   0.75063   0.92719   0.00000  Uiso   1.00
H71    H     0.86477   0.91853   0.95529   0.00000  Uiso   1.00
H72    H     0.64318   0.77132   0.86499   0.00000  Uiso   1.00
H73    H     0.76588   0.57099   0.96790   0.00000  Uiso   1.00
H74    H     0.01219   0.09056   0.97596   0.00000  Uiso   1.00
H75    H     0.54496   0.78013   0.78556   0.00000  Uiso   1.00
H76    H     0.80367   0.35768   0.00257   0.00000  Uiso   1.00
H77    H     0.05805   0.64165   0.84648   0.00000  Uiso   1.00
H78    H     0.17288   0.80357   0.87015   0.00000  Uiso   1.00
H79    H     0.95129   0.65637   0.77986   0.00000  Uiso   1.00
H80    H     0.07398   0.45604   0.88277   0.00000  Uiso   1.00
H81    H     0.26226   0.99726   0.90686   0.00000  Uiso   1.00
H82    H     0.79502   0.68683   0.71646   0.00000  Uiso   1.00
H83    H     0.05375   0.26439   0.93347   0.00000  Uiso   1.00
O84    O     0.20748   0.15241   0.95843   0.00000  Uiso   1.00
O85    O     0.59448   0.74513   0.70864   0.00000  Uiso   1.00
O86    O     0.93392   0.19089   0.99335   0.00000  Uiso   1.00
N87    N     0.05530   0.04637   0.95645   0.00000  Uiso   1.00
N88    N     0.61846   0.75615   0.77844   0.00000  Uiso   1.00
N89    N     0.86032   0.36119   0.98132   0.00000  Uiso   1.00
N90    N     0.18986   0.99616   0.91927   0.00000  Uiso   1.00
N91    N     0.75302   0.70595   0.74126   0.00000  Uiso   1.00
N92    N     0.99488   0.31098   0.94414   0.00000  Uiso   1.00
C93    C     0.33289   0.77434   0.09130   0.00000  Uiso   1.00
C94    C     0.42707   0.69823   0.08722   0.00000  Uiso   1.00
C95    C     0.43130   0.60627   0.06309   0.00000  Uiso   1.00
C96    C     0.52464   0.54743   0.06354   0.00000  Uiso   1.00
C97    C     0.65779   0.42434   0.05361   0.00000  Uiso   1.00
C98    C     0.30668   0.77820   0.13629   0.00000  Uiso   1.00
C99    C     0.20968   0.75348   0.15340   0.00000  Uiso   1.00
C100   C     0.20168   0.76197   0.19515   0.00000  Uiso   1.00
C101   C     0.14789   0.76312   0.26139   0.00000  Uiso   1.00
C102   C     0.37335   0.88704   0.08037   0.00000  Uiso   1.00
C103   C     0.33239   0.95385   0.05047   0.00000  Uiso   1.00
C104   C     0.38049   0.05400   0.04515   0.00000  Uiso   1.00
C105   C     0.43022   0.22413   0.02457   0.00000  Uiso   1.00
C106   C     0.49113   0.83338   0.13503   0.00000  Uiso   1.00
C107   C     0.51302   0.73030   0.11098   0.00000  Uiso   1.00
C108   C     0.60638   0.67159   0.11146   0.00000  Uiso   1.00
C109   C     0.61075   0.57955   0.08733   0.00000  Uiso   1.00
C110   C     0.39263   0.81026   0.16004   0.00000  Uiso   1.00
C111   C     0.38476   0.81880   0.20177   0.00000  Uiso   1.00
C112   C     0.28778   0.79410   0.21895   0.00000  Uiso   1.00
C113   C     0.45930   0.91911   0.10412   0.00000  Uiso   1.00
C114   C     0.50747   0.01917   0.09885   0.00000  Uiso   1.00
C115   C     0.46660   0.08612   0.06895   0.00000  Uiso   1.00
H116   H     0.26597   0.74937   0.07281   0.00000  Uiso   1.00
H117   H     0.36477   0.58147   0.04471   0.00000  Uiso   1.00
H118   H     0.14318   0.72868   0.13501   0.00000  Uiso   1.00
H119   H     0.26588   0.92901   0.03210   0.00000  Uiso   1.00
H120   H     0.51219   0.40944   0.02404   0.00000  Uiso   1.00
H121   H     0.04496   0.71987   0.21444   0.00000  Uiso   1.00
H122   H     0.30367   0.14232   0.99743   0.00000  Uiso   1.00
H123   H     0.55805   0.85835   0.15352   0.00000  Uiso   1.00
H124   H     0.67288   0.69643   0.12985   0.00000  Uiso   1.00
H125   H     0.45129   0.84363   0.22014   0.00000  Uiso   1.00
H126   H     0.57398   0.04396   0.11723   0.00000  Uiso   1.00
H127   H     0.76226   0.50274   0.09314   0.00000  Uiso   1.00
H128   H     0.29502   0.81317   0.28354   0.00000  Uiso   1.00
H129   H     0.55375   0.23561   0.06653   0.00000  Uiso   1.00
O130   O     0.70748   0.34759   0.04157   0.00000  Uiso   1.00
O131   O     0.09448   0.75487   0.29136   0.00000  Uiso   1.00
O132   O     0.43392   0.30911   0.00665   0.00000  Uiso   1.00
N133   N     0.55530   0.45363   0.04355   0.00000  Uiso   1.00
N134   N     0.11846   0.74385   0.22156   0.00000  Uiso   1.00
N135   N     0.36032   0.13881   0.01868   0.00000  Uiso   1.00
N136   N     0.68986   0.50384   0.08073   0.00000  Uiso   1.00
N137   N     0.25302   0.79405   0.25874   0.00000  Uiso   1.00
N138   N     0.49488   0.18902   0.05586   0.00000  Uiso   1.00
C139   C     0.16711   0.72566   0.59130   0.00000  Uiso   1.00
C140   C     0.07293   0.80177   0.58722   0.00000  Uiso   1.00
C141   C     0.06870   0.89373   0.56309   0.00000  Uiso   1.00
C142   C     0.97536   0.95257   0.56354   0.00000  Uiso   1.00
C143   C     0.84221   0.07566   0.55361   0.00000  Uiso   1.00
C144   C     0.19332   0.72180   0.63629   0.00000  Uiso   1.00
C145   C     0.29032   0.74652   0.65340   0.00000  Uiso   1.00
C146   C     0.29832   0.73803   0.69515   0.00000  Uiso   1.00
C147   C     0.35211   0.73688   0.76139   0.00000  Uiso   1.00
C148   C     0.12665   0.61296   0.58037   0.00000  Uiso   1.00
C149   C     0.16761   0.54615   0.55047   0.00000  Uiso   1.00
C150   C     0.11951   0.44600   0.54515   0.00000  Uiso   1.00
C151   C     0.06978   0.27587   0.52457   0.00000  Uiso   1.00
C152   C     0.00887   0.66662   0.63503   0.00000  Uiso   1.00
C153   C     0.98698   0.76970   0.61098   0.00000  Uiso   1.00
C154   C     0.89362   0.82841   0.61146   0.00000  Uiso   1.00
C155   C     0.88925   0.92045   0.58733   0.00000  Uiso   1.00
C156   C     0.10737   0.68974   0.66004   0.00000  Uiso   1.00
C157   C     0.11524   0.68120   0.70177   0.00000  Uiso   1.00
C158   C     0.21222   0.70590   0.71895   0.00000  Uiso   1.00
C159   C     0.04070   0.58089   0.60412   0.00000  Uiso   1.00
C160   C     0.99253   0.48083   0.59885   0.00000  Uiso   1.00
C161   C     0.03340   0.41388   0.56895   0.00000  Uiso   1.00
H162   H     0.23403   0.75063   0.57281   0.00000  Uiso   1.00
H163   H     0.13523   0.91853   0.54471   0.00000  Uiso   1.00
H164   H     0.35682   0.77132   0.63501   0.00000  Uiso   1.00
H165   H     0.23412   0.57099   0.53210   0.00000  Uiso   1.00
H166   H     0.98781   0.09056   0.52404   0.00000  Uiso   1.00
H167   H     0.45504   0.78013   0.71444   0.00000  Uiso   1.00
H168   H     0.19633   0.35768   0.49743   0.00000  Uiso   1.00
H169   H     0.94195   0.64165   0.65352   0.00000  Uiso   1.00
H170   H     0.82712   0.80357   0.62985   0.00000  Uiso   1.00
H171   H     0.04871   0.65637   0.72014   0.00000  Uiso   1.00
H172   H     0.92602   0.45604   0.61723   0.00000  Uiso   1.00
H173   H     0.73774   0.99726   0.59314   0.00000  Uiso   1.00
H174   H     0.20498   0.68683   0.78354   0.00000  Uiso   1.00
H175   H     0.94625   0.26439   0.56653   0.00000  Uiso   1.00
O176   O     0.79252   0.15241   0.54157   0.00000  Uiso   1.00
O177   O     0.40552   0.74513   0.79136   0.00000  Uiso   1.00
O178   O     0.06608   0.19089   0.50665   0.00000  Uiso   1.00
N179   N     0.94470   0.04637   0.54355   0.00000  Uiso   1.00
N180   N     0.38154   0.75615   0.72156   0.00000  Uiso   1.00
N181   N     0.13968   0.36119   0.51868   0.00000  Uiso   1.00
N182   N     0.81014   0.99616   0.58073   0.00000  Uiso   1.00
N183   N     0.24698   0.70595   0.75874   0.00000  Uiso   1.00
N184   N     0.00512   0.31098   0.55586   0.00000  Uiso   1.00
C185   C     0.33289   0.22566   0.59130   0.00000  Uiso   1.00
C186   C     0.42707   0.30177   0.58722   0.00000  Uiso   1.00
C187   C     0.43130   0.39373   0.56309   0.00000  Uiso   1.00
C188   C     0.52464   0.45257   0.56354   0.00000  Uiso   1.00
C189   C     0.65779   0.57566   0.55361   0.00000  Uiso   1.00
C190   C     0.30668   0.22180   0.63629   0.00000  Uiso   1.00
C191   C     0.20968   0.24652   0.65340   0.00000  Uiso   1.00
C192   C     0.20168   0.23803   0.69515   0.00000  Uiso   1.00
C193   C     0.14789   0.23688   0.76139   0.00000  Uiso   1.00
C194   C     0.37335   0.11296   0.58037   0.00000  Uiso   1.00
C195   C     0.33239   0.04615   0.55047   0.00000  Uiso   1.00
C196   C     0.38049   0.94600   0.54515   0.00000  Uiso   1.00
C197   C     0.43022   0.77587   0.52457   0.00000  Uiso   1.00
C198   C     0.49113   0.16662   0.63503   0.00000  Uiso   1.00
C199   C     0.51302   0.26970   0.61098   0.00000  Uiso   1.00
C200   C     0.60638   0.32841   0.61146   0.00000  Uiso   1.00
C201   C     0.61075   0.42045   0.58733   0.00000  Uiso   1.00
C202   C     0.39263   0.18974   0.66004   0.00000  Uiso   1.00
C203   C     0.38476   0.18120   0.70177   0.00000  Uiso   1.00
C204   C     0.28778   0.20590   0.71895   0.00000  Uiso   1.00
C205   C     0.45930   0.08089   0.60412   0.00000  Uiso   1.00
C206   C     0.50747   0.98083   0.59885   0.00000  Uiso   1.00
C207   C     0.46660   0.91388   0.56895   0.00000  Uiso   1.00
H208   H     0.26597   0.25063   0.57281   0.00000  Uiso   1.00
H209   H     0.36477   0.41853   0.54471   0.00000  Uiso   1.00
H210   H     0.14318   0.27132   0.63501   0.00000  Uiso   1.00
H211   H     0.26588   0.07099   0.53210   0.00000  Uiso   1.00
H212   H     0.51219   0.59056   0.52404   0.00000  Uiso   1.00
H213   H     0.04496   0.28013   0.71444   0.00000  Uiso   1.00
H214   H     0.30367   0.85768   0.49743   0.00000  Uiso   1.00
H215   H     0.55805   0.14165   0.65352   0.00000  Uiso   1.00
H216   H     0.67288   0.30357   0.62985   0.00000  Uiso   1.00
H217   H     0.45129   0.15637   0.72014   0.00000  Uiso   1.00
H218   H     0.57398   0.95604   0.61723   0.00000  Uiso   1.00
H219   H     0.76226   0.49726   0.59314   0.00000  Uiso   1.00
H220   H     0.29502   0.18683   0.78354   0.00000  Uiso   1.00
H221   H     0.55375   0.76439   0.56653   0.00000  Uiso   1.00
O222   O     0.70748   0.65241   0.54157   0.00000  Uiso   1.00
O223   O     0.09448   0.24513   0.79136   0.00000  Uiso   1.00
O224   O     0.43392   0.69089   0.50665   0.00000  Uiso   1.00
N225   N     0.55530   0.54637   0.54355   0.00000  Uiso   1.00
N226   N     0.11846   0.25615   0.72156   0.00000  Uiso   1.00
N227   N     0.36032   0.86119   0.51868   0.00000  Uiso   1.00
N228   N     0.68986   0.49616   0.58073   0.00000  Uiso   1.00
N229   N     0.25302   0.20595   0.75874   0.00000  Uiso   1.00
N230   N     0.49488   0.81098   0.55586   0.00000  Uiso   1.00
C231   C     0.16711   0.27434   0.09130   0.00000  Uiso   1.00
C232   C     0.07293   0.19823   0.08722   0.00000  Uiso   1.00
C233   C     0.06870   0.10627   0.06309   0.00000  Uiso   1.00
C234   C     0.97536   0.04743   0.06354   0.00000  Uiso   1.00
C235   C     0.84221   0.92434   0.05361   0.00000  Uiso   1.00
C236   C     0.19332   0.27820   0.13629   0.00000  Uiso   1.00
C237   C     0.29032   0.25348   0.15340   0.00000  Uiso   1.00
C238   C     0.29832   0.26197   0.19515   0.00000  Uiso   1.00
C239   C     0.35211   0.26312   0.26139   0.00000  Uiso   1.00
C240   C     0.12665   0.38704   0.08037   0.00000  Uiso   1.00
C241   C     0.16761   0.45385   0.05047   0.00000  Uiso   1.00
C242   C     0.11951   0.55400   0.04515   0.00000  Uiso   1.00
C243   C     0.06978   0.72413   0.02457   0.00000  Uiso   1.00
C244   C     0.00887   0.33338   0.13503   0.00000  Uiso   1.00
C245   C     0.98698   0.23030   0.11098   0.00000  Uiso   1.00
C246   C     0.89362   0.17159   0.11146   0.00000  Uiso   1.00
C247   C     0.88925   0.07955   0.08733   0.00000  Uiso   1.00
C248   C     0.10737   0.31026   0.16004   0.00000  Uiso   1.00
C249   C     0.11524   0.31880   0.20177   0.00000  Uiso   1.00
C250   C     0.21222   0.29410   0.21895   0.00000  Uiso   1.00
C251   C     0.04070   0.41911   0.10412   0.00000  Uiso   1.00
C252   C     0.99253   0.51917   0.09885   0.00000  Uiso   1.00
C253   C     0.03340   0.58612   0.06895   0.00000  Uiso   1.00
H254   H     0.23403   0.24937   0.07281   0.00000  Uiso   1.00
H255   H     0.13523   0.08147   0.04471   0.00000  Uiso   1.00
H256   H     0.35682   0.22868   0.13501   0.00000  Uiso   1.00
H257   H     0.23412   0.42901   0.03210   0.00000  Uiso   1.00
H258   H     0.98781   0.90944   0.02404   0.00000  Uiso   1.00
H259   H     0.45504   0.21987   0.21444   0.00000  Uiso   1.00
H260   H     0.19633   0.64232   0.99743   0.00000  Uiso   1.00
H261   H     0.94195   0.35835   0.15352   0.00000  Uiso   1.00
H262   H     0.82712   0.19643   0.12985   0.00000  Uiso   1.00
H263   H     0.04871   0.34363   0.22014   0.00000  Uiso   1.00
H264   H     0.92602   0.54396   0.11723   0.00000  Uiso   1.00
H265   H     0.73774   0.00274   0.09314   0.00000  Uiso   1.00
H266   H     0.20498   0.31317   0.28354   0.00000  Uiso   1.00
H267   H     0.94625   0.73561   0.06653   0.00000  Uiso   1.00
O268   O     0.79252   0.84759   0.04157   0.00000  Uiso   1.00
O269   O     0.40552   0.25487   0.29136   0.00000  Uiso   1.00
O270   O     0.06608   0.80911   0.00665   0.00000  Uiso   1.00
N271   N     0.94470   0.95363   0.04355   0.00000  Uiso   1.00
N272   N     0.38154   0.24385   0.22156   0.00000  Uiso   1.00
N273   N     0.13968   0.63881   0.01868   0.00000  Uiso   1.00
N274   N     0.81014   0.00384   0.08073   0.00000  Uiso   1.00
N275   N     0.24698   0.29405   0.25874   0.00000  Uiso   1.00
N276   N     0.00512   0.68902   0.05586   0.00000  Uiso   1.00
C277   C     0.66711   0.22566   0.90870   0.00000  Uiso   1.00
C278   C     0.57293   0.30177   0.91278   0.00000  Uiso   1.00
C279   C     0.56870   0.39373   0.93691   0.00000  Uiso   1.00
C280   C     0.47536   0.45257   0.93646   0.00000  Uiso   1.00
C281   C     0.34221   0.57566   0.94639   0.00000  Uiso   1.00
C282   C     0.69332   0.22180   0.86371   0.00000  Uiso   1.00
C283   C     0.79032   0.24652   0.84660   0.00000  Uiso   1.00
C284   C     0.79832   0.23803   0.80485   0.00000  Uiso   1.00
C285   C     0.85211   0.23688   0.73861   0.00000  Uiso   1.00
C286   C     0.62665   0.11296   0.91963   0.00000  Uiso   1.00
C287   C     0.66761   0.04615   0.94953   0.00000  Uiso   1.00
C288   C     0.61951   0.94600   0.95485   0.00000  Uiso   1.00
C289   C     0.56978   0.77587   0.97543   0.00000  Uiso   1.00
C290   C     0.50887   0.16662   0.86497   0.00000  Uiso   1.00
C291   C     0.48698   0.26970   0.88902   0.00000  Uiso   1.00
C292   C     0.39362   0.32841   0.88854   0.00000  Uiso   1.00
C293   C     0.38925   0.42045   0.91267   0.00000  Uiso   1.00
C294   C     0.60737   0.18974   0.83996   0.00000  Uiso   1.00
C295   C     0.61524   0.18120   0.79823   0.00000  Uiso   1.00
C296   C     0.71222   0.20590   0.78105   0.00000  Uiso   1.00
C297   C     0.54070   0.08089   0.89588   0.00000  Uiso   1.00
C298   C     0.49253   0.98083   0.90115   0.00000  Uiso   1.00
C299   C     0.53340   0.91388   0.93105   0.00000  Uiso   1.00
H300   H     0.73403   0.25063   0.92719   0.00000  Uiso   1.00
H301   H     0.63523   0.41853   0.95529   0.00000  Uiso   1.00
H302   H     0.85682   0.27132   0.86499   0.00000  Uiso   1.00
H303   H     0.73412   0.07099   0.96790   0.00000  Uiso   1.00
H304   H     0.48781   0.59056   0.97596   0.00000  Uiso   1.00
H305   H     0.95504   0.28013   0.78556   0.00000  Uiso   1.00
H306   H     0.69633   0.85768   0.00257   0.00000  Uiso   1.00
H307   H     0.44195   0.14165   0.84648   0.00000  Uiso   1.00
H308   H     0.32712   0.30357   0.87015   0.00000  Uiso   1.00
H309   H     0.54871   0.15637   0.77986   0.00000  Uiso   1.00
H310   H     0.42602   0.95604   0.88277   0.00000  Uiso   1.00
H311   H     0.23774   0.49726   0.90686   0.00000  Uiso   1.00
H312   H     0.70498   0.18683   0.71646   0.00000  Uiso   1.00
H313   H     0.44625   0.76439   0.93347   0.00000  Uiso   1.00
O314   O     0.29252   0.65241   0.95843   0.00000  Uiso   1.00
O315   O     0.90552   0.24513   0.70864   0.00000  Uiso   1.00
O316   O     0.56608   0.69089   0.99335   0.00000  Uiso   1.00
N317   N     0.44470   0.54637   0.95645   0.00000  Uiso   1.00
N318   N     0.88154   0.25615   0.77844   0.00000  Uiso   1.00
N319   N     0.63968   0.86119   0.98132   0.00000  Uiso   1.00
N320   N     0.31014   0.49616   0.91927   0.00000  Uiso   1.00
N321   N     0.74698   0.20595   0.74126   0.00000  Uiso   1.00
N322   N     0.50512   0.81098   0.94414   0.00000  Uiso   1.00
C323   C     0.83289   0.27434   0.40870   0.00000  Uiso   1.00
C324   C     0.92707   0.19823   0.41278   0.00000  Uiso   1.00
C325   C     0.93130   0.10627   0.43691   0.00000  Uiso   1.00
C326   C     0.02464   0.04743   0.43646   0.00000  Uiso   1.00
C327   C     0.15779   0.92434   0.44639   0.00000  Uiso   1.00
C328   C     0.80668   0.27820   0.36371   0.00000  Uiso   1.00
C329   C     0.70968   0.25348   0.34660   0.00000  Uiso   1.00
C330   C     0.70168   0.26197   0.30485   0.00000  Uiso   1.00
C331   C     0.64789   0.26312   0.23861   0.00000  Uiso   1.00
C332   C     0.87335   0.38704   0.41963   0.00000  Uiso   1.00
C333   C     0.83239   0.45385   0.44953   0.00000  Uiso   1.00
C334   C     0.88049   0.55400   0.45485   0.00000  Uiso   1.00
C335   C     0.93022   0.72413   0.47543   0.00000  Uiso   1.00
C336   C     0.99113   0.33338   0.36497   0.00000  Uiso   1.00
C337   C     0.01302   0.23030   0.38902   0.00000  Uiso   1.00
C338   C     0.10638   0.17159   0.38854   0.00000  Uiso   1.00
C339   C     0.11075   0.07955   0.41267   0.00000  Uiso   1.00
C340   C     0.89263   0.31026   0.33996   0.00000  Uiso   1.00
C341   C     0.88476   0.31880   0.29823   0.00000  Uiso   1.00
C342   C     0.78778   0.29410   0.28105   0.00000  Uiso   1.00
C343   C     0.95930   0.41911   0.39588   0.00000  Uiso   1.00
C344   C     0.00747   0.51917   0.40115   0.00000  Uiso   1.00
C345   C     0.96660   0.58612   0.43105   0.00000  Uiso   1.00
H346   H     0.76597   0.24937   0.42719   0.00000  Uiso   1.00
H347   H     0.86477   0.08147   0.45529   0.00000  Uiso   1.00
H348   H     0.64318   0.22868   0.36499   0.00000  Uiso   1.00
H349   H     0.76588   0.42901   0.46790   0.00000  Uiso   1.00
H350   H     0.01219   0.90944   0.47596   0.00000  Uiso   1.00
H351   H     0.54496   0.21987   0.28556   0.00000  Uiso   1.00
H352   H     0.80367   0.64232   0.50257   0.00000  Uiso   1.00
H353   H     0.05805   0.35835   0.34648   0.00000  Uiso   1.00
H354   H     0.17288   0.19643   0.37015   0.00000  Uiso   1.00
H355   H     0.95129   0.34363   0.27986   0.00000  Uiso   1.00
H356   H     0.07398   0.54396   0.38277   0.00000  Uiso   1.00
H357   H     0.26226   0.00274   0.40686   0.00000  Uiso   1.00
H358   H     0.79502   0.31317   0.21646   0.00000  Uiso   1.00
H359   H     0.05375   0.73561   0.43347   0.00000  Uiso   1.00
O360   O     0.20748   0.84759   0.45843   0.00000  Uiso   1.00
O361   O     0.59448   0.25487   0.20864   0.00000  Uiso   1.00
O362   O     0.93392   0.80911   0.49335   0.00000  Uiso   1.00
N363   N     0.05530   0.95363   0.45645   0.00000  Uiso   1.00
N364   N     0.61846   0.24385   0.27844   0.00000  Uiso   1.00
N365   N     0.86032   0.63881   0.48132   0.00000  Uiso   1.00
N366   N     0.18986   0.00384   0.41927   0.00000  Uiso   1.00
N367   N     0.75302   0.29405   0.24126   0.00000  Uiso   1.00
N368   N     0.99488   0.68902   0.44414   0.00000  Uiso   1.00
