data_job_03273
_audit_creation_date              2018-12-19
_audit_creation_method            'Materials Studio'
_symmetry_space_group_name_H-M    'P1'
_symmetry_Int_Tables_number       1
_symmetry_cell_setting            triclinic
loop_
_symmetry_equiv_pos_as_xyz
  x,y,z
_cell_length_a                    13.7976
_cell_length_b                    13.7976
_cell_length_c                    26.9450
_cell_angle_alpha                 90.0000
_cell_angle_beta                  90.0000
_cell_angle_gamma                 90.0000
loop_
_atom_site_label
_atom_site_type_symbol
_atom_site_fract_x
_atom_site_fract_y
_atom_site_fract_z
_atom_site_U_iso_or_equiv
_atom_site_adp_type
_atom_site_occupancy
C1     C     0.84625   0.87764   0.09793   0.00000  Uiso   1.00
C2     C     0.83470   0.98749   0.09594   0.00000  Uiso   1.00
C3     C     0.87526   0.04842   0.06062   0.00000  Uiso   1.00
C4     C     0.85613   0.14679   0.06526   0.00000  Uiso   1.00
C5     C     0.84700   0.31188   0.05631   0.00000  Uiso   1.00
C6     C     0.88751   0.85480   0.14911   0.00000  Uiso   1.00
C7     C     0.97246   0.80415   0.15849   0.00000  Uiso   1.00
C8     C     0.99777   0.79081   0.20789   0.00000  Uiso   1.00
C9     C     0.07060   0.74983   0.28150   0.00000  Uiso   1.00
C10    C     0.74384   0.83611   0.09743   0.00000  Uiso   1.00
C11    C     0.70799   0.76973   0.06337   0.00000  Uiso   1.00
C12    C     0.61235   0.74064   0.06926   0.00000  Uiso   1.00
C13    C     0.46210   0.67065   0.06263   0.00000  Uiso   1.00
C14    C     0.74015   0.94400   0.16899   0.00000  Uiso   1.00
C15    C     0.77707   0.02353   0.13454   0.00000  Uiso   1.00
C16    C     0.75787   0.12184   0.13923   0.00000  Uiso   1.00
C17    C     0.79839   0.18290   0.10392   0.00000  Uiso   1.00
C18    C     0.82988   0.89084   0.18771   0.00000  Uiso   1.00
C19    C     0.85507   0.87757   0.23711   0.00000  Uiso   1.00
C20    C     0.94004   0.82692   0.24656   0.00000  Uiso   1.00
C21    C     0.68620   0.87216   0.13603   0.00000  Uiso   1.00
C22    C     0.59060   0.84316   0.14198   0.00000  Uiso   1.00
C23    C     0.55461   0.77675   0.10793   0.00000  Uiso   1.00
H24    H     0.89112   0.84958   0.06788   0.00000  Uiso   1.00
H25    H     0.91987   0.02050   0.03075   0.00000  Uiso   1.00
H26    H     0.01704   0.77626   0.12861   0.00000  Uiso   1.00
H27    H     0.75261   0.74186   0.03350   0.00000  Uiso   1.00
H28    H     0.92634   0.22589   0.00662   0.00000  Uiso   1.00
H29    H     0.13123   0.71087   0.21296   0.00000  Uiso   1.00
H30    H     0.57363   0.63832   0.01241   0.00000  Uiso   1.00
H31    H     0.69528   0.97206   0.19904   0.00000  Uiso   1.00
H32    H     0.71327   0.14971   0.16911   0.00000  Uiso   1.00
H33    H     0.81045   0.90546   0.26697   0.00000  Uiso   1.00
H34    H     0.54602   0.87106   0.17186   0.00000  Uiso   1.00
H35    H     0.75867   0.33076   0.11892   0.00000  Uiso   1.00
H36    H     0.96355   0.81574   0.32526   0.00000  Uiso   1.00
H37    H     0.40596   0.74319   0.12470   0.00000  Uiso   1.00
O38    O     0.85790   0.39298   0.04072   0.00000  Uiso   1.00
O39    O     0.12669   0.71728   0.31143   0.00000  Uiso   1.00
O40    O     0.39514   0.62210   0.04830   0.00000  Uiso   1.00
N41    N     0.88440   0.22619   0.03715   0.00000  Uiso   1.00
N42    N     0.07596   0.74469   0.23007   0.00000  Uiso   1.00
N43    N     0.55466   0.67684   0.04257   0.00000  Uiso   1.00
N44    N     0.79417   0.28262   0.09758   0.00000  Uiso   1.00
N45    N     0.98574   0.80112   0.29049   0.00000  Uiso   1.00
N46    N     0.46444   0.73327   0.10300   0.00000  Uiso   1.00
C47    C     0.15375   0.12236   0.09793   0.00000  Uiso   1.00
C48    C     0.16530   0.01251   0.09594   0.00000  Uiso   1.00
C49    C     0.12474   0.95158   0.06062   0.00000  Uiso   1.00
C50    C     0.14387   0.85321   0.06526   0.00000  Uiso   1.00
C51    C     0.15300   0.68812   0.05631   0.00000  Uiso   1.00
C52    C     0.11249   0.14520   0.14911   0.00000  Uiso   1.00
C53    C     0.02754   0.19585   0.15849   0.00000  Uiso   1.00
C54    C     0.00223   0.20919   0.20789   0.00000  Uiso   1.00
C55    C     0.92940   0.25017   0.28150   0.00000  Uiso   1.00
C56    C     0.25616   0.16389   0.09743   0.00000  Uiso   1.00
C57    C     0.29201   0.23027   0.06337   0.00000  Uiso   1.00
C58    C     0.38765   0.25936   0.06926   0.00000  Uiso   1.00
C59    C     0.53790   0.32935   0.06263   0.00000  Uiso   1.00
C60    C     0.25985   0.05600   0.16899   0.00000  Uiso   1.00
C61    C     0.22293   0.97647   0.13454   0.00000  Uiso   1.00
C62    C     0.24213   0.87816   0.13923   0.00000  Uiso   1.00
C63    C     0.20161   0.81710   0.10392   0.00000  Uiso   1.00
C64    C     0.17012   0.10916   0.18771   0.00000  Uiso   1.00
C65    C     0.14493   0.12243   0.23711   0.00000  Uiso   1.00
C66    C     0.05996   0.17308   0.24656   0.00000  Uiso   1.00
C67    C     0.31380   0.12784   0.13603   0.00000  Uiso   1.00
C68    C     0.40940   0.15684   0.14198   0.00000  Uiso   1.00
C69    C     0.44539   0.22325   0.10793   0.00000  Uiso   1.00
H70    H     0.10888   0.15042   0.06788   0.00000  Uiso   1.00
H71    H     0.08013   0.97950   0.03075   0.00000  Uiso   1.00
H72    H     0.98296   0.22374   0.12861   0.00000  Uiso   1.00
H73    H     0.24739   0.25814   0.03350   0.00000  Uiso   1.00
H74    H     0.07366   0.77411   0.00662   0.00000  Uiso   1.00
H75    H     0.86877   0.28913   0.21296   0.00000  Uiso   1.00
H76    H     0.42637   0.36168   0.01241   0.00000  Uiso   1.00
H77    H     0.30472   0.02794   0.19904   0.00000  Uiso   1.00
H78    H     0.28673   0.85029   0.16911   0.00000  Uiso   1.00
H79    H     0.18955   0.09454   0.26697   0.00000  Uiso   1.00
H80    H     0.45398   0.12894   0.17186   0.00000  Uiso   1.00
H81    H     0.24133   0.66924   0.11892   0.00000  Uiso   1.00
H82    H     0.03645   0.18426   0.32526   0.00000  Uiso   1.00
H83    H     0.59404   0.25681   0.12470   0.00000  Uiso   1.00
O84    O     0.14210   0.60702   0.04072   0.00000  Uiso   1.00
O85    O     0.87331   0.28272   0.31143   0.00000  Uiso   1.00
O86    O     0.60486   0.37790   0.04830   0.00000  Uiso   1.00
N87    N     0.11560   0.77381   0.03715   0.00000  Uiso   1.00
N88    N     0.92404   0.25531   0.23007   0.00000  Uiso   1.00
N89    N     0.44534   0.32316   0.04257   0.00000  Uiso   1.00
N90    N     0.20583   0.71738   0.09758   0.00000  Uiso   1.00
N91    N     0.01426   0.19888   0.29049   0.00000  Uiso   1.00
N92    N     0.53556   0.26673   0.10300   0.00000  Uiso   1.00
C93    C     0.87764   0.15375   0.90207   0.00000  Uiso   1.00
C94    C     0.98749   0.16530   0.90406   0.00000  Uiso   1.00
C95    C     0.04842   0.12474   0.93938   0.00000  Uiso   1.00
C96    C     0.14679   0.14387   0.93474   0.00000  Uiso   1.00
C97    C     0.31188   0.15300   0.94369   0.00000  Uiso   1.00
C98    C     0.85480   0.11249   0.85089   0.00000  Uiso   1.00
C99    C     0.80415   0.02754   0.84151   0.00000  Uiso   1.00
C100   C     0.79081   0.00223   0.79211   0.00000  Uiso   1.00
C101   C     0.74983   0.92940   0.71850   0.00000  Uiso   1.00
C102   C     0.83611   0.25616   0.90257   0.00000  Uiso   1.00
C103   C     0.76973   0.29201   0.93663   0.00000  Uiso   1.00
C104   C     0.74064   0.38765   0.93074   0.00000  Uiso   1.00
C105   C     0.67065   0.53790   0.93737   0.00000  Uiso   1.00
C106   C     0.94400   0.25985   0.83101   0.00000  Uiso   1.00
C107   C     0.02353   0.22293   0.86546   0.00000  Uiso   1.00
C108   C     0.12184   0.24213   0.86077   0.00000  Uiso   1.00
C109   C     0.18290   0.20161   0.89608   0.00000  Uiso   1.00
C110   C     0.89084   0.17012   0.81229   0.00000  Uiso   1.00
C111   C     0.87757   0.14493   0.76289   0.00000  Uiso   1.00
C112   C     0.82692   0.05996   0.75344   0.00000  Uiso   1.00
C113   C     0.87216   0.31380   0.86397   0.00000  Uiso   1.00
C114   C     0.84316   0.40940   0.85802   0.00000  Uiso   1.00
C115   C     0.77675   0.44539   0.89207   0.00000  Uiso   1.00
H116   H     0.84958   0.10888   0.93212   0.00000  Uiso   1.00
H117   H     0.02050   0.08013   0.96925   0.00000  Uiso   1.00
H118   H     0.77626   0.98296   0.87139   0.00000  Uiso   1.00
H119   H     0.74186   0.24739   0.96650   0.00000  Uiso   1.00
H120   H     0.22589   0.07366   0.99338   0.00000  Uiso   1.00
H121   H     0.71087   0.86877   0.78704   0.00000  Uiso   1.00
H122   H     0.63832   0.42637   0.98759   0.00000  Uiso   1.00
H123   H     0.97206   0.30472   0.80096   0.00000  Uiso   1.00
H124   H     0.14971   0.28673   0.83089   0.00000  Uiso   1.00
H125   H     0.90546   0.18955   0.73303   0.00000  Uiso   1.00
H126   H     0.87106   0.45398   0.82814   0.00000  Uiso   1.00
H127   H     0.33076   0.24133   0.88108   0.00000  Uiso   1.00
H128   H     0.81574   0.03645   0.67474   0.00000  Uiso   1.00
H129   H     0.74319   0.59404   0.87530   0.00000  Uiso   1.00
O130   O     0.39298   0.14210   0.95928   0.00000  Uiso   1.00
O131   O     0.71728   0.87331   0.68857   0.00000  Uiso   1.00
O132   O     0.62210   0.60486   0.95170   0.00000  Uiso   1.00
N133   N     0.22619   0.11560   0.96285   0.00000  Uiso   1.00
N134   N     0.74469   0.92404   0.76993   0.00000  Uiso   1.00
N135   N     0.67684   0.44534   0.95743   0.00000  Uiso   1.00
N136   N     0.28262   0.20583   0.90242   0.00000  Uiso   1.00
N137   N     0.80112   0.01426   0.70951   0.00000  Uiso   1.00
N138   N     0.73327   0.53556   0.89700   0.00000  Uiso   1.00
C139   C     0.12236   0.84625   0.90207   0.00000  Uiso   1.00
C140   C     0.01251   0.83470   0.90406   0.00000  Uiso   1.00
C141   C     0.95158   0.87526   0.93938   0.00000  Uiso   1.00
C142   C     0.85321   0.85613   0.93474   0.00000  Uiso   1.00
C143   C     0.68812   0.84700   0.94369   0.00000  Uiso   1.00
C144   C     0.14520   0.88751   0.85089   0.00000  Uiso   1.00
C145   C     0.19585   0.97246   0.84151   0.00000  Uiso   1.00
C146   C     0.20919   0.99777   0.79211   0.00000  Uiso   1.00
C147   C     0.25017   0.07060   0.71850   0.00000  Uiso   1.00
C148   C     0.16389   0.74384   0.90257   0.00000  Uiso   1.00
C149   C     0.23027   0.70799   0.93663   0.00000  Uiso   1.00
C150   C     0.25936   0.61235   0.93074   0.00000  Uiso   1.00
C151   C     0.32935   0.46210   0.93737   0.00000  Uiso   1.00
C152   C     0.05600   0.74015   0.83101   0.00000  Uiso   1.00
C153   C     0.97647   0.77707   0.86546   0.00000  Uiso   1.00
C154   C     0.87816   0.75787   0.86077   0.00000  Uiso   1.00
C155   C     0.81710   0.79839   0.89608   0.00000  Uiso   1.00
C156   C     0.10916   0.82988   0.81229   0.00000  Uiso   1.00
C157   C     0.12243   0.85507   0.76289   0.00000  Uiso   1.00
C158   C     0.17308   0.94004   0.75344   0.00000  Uiso   1.00
C159   C     0.12784   0.68620   0.86397   0.00000  Uiso   1.00
C160   C     0.15684   0.59060   0.85802   0.00000  Uiso   1.00
C161   C     0.22325   0.55461   0.89207   0.00000  Uiso   1.00
H162   H     0.15042   0.89112   0.93212   0.00000  Uiso   1.00
H163   H     0.97950   0.91987   0.96925   0.00000  Uiso   1.00
H164   H     0.22374   0.01704   0.87139   0.00000  Uiso   1.00
H165   H     0.25814   0.75261   0.96650   0.00000  Uiso   1.00
H166   H     0.77411   0.92634   0.99338   0.00000  Uiso   1.00
H167   H     0.28913   0.13123   0.78704   0.00000  Uiso   1.00
H168   H     0.36168   0.57363   0.98759   0.00000  Uiso   1.00
H169   H     0.02794   0.69528   0.80096   0.00000  Uiso   1.00
H170   H     0.85029   0.71327   0.83089   0.00000  Uiso   1.00
H171   H     0.09454   0.81045   0.73303   0.00000  Uiso   1.00
H172   H     0.12894   0.54602   0.82814   0.00000  Uiso   1.00
H173   H     0.66924   0.75867   0.88108   0.00000  Uiso   1.00
H174   H     0.18426   0.96355   0.67474   0.00000  Uiso   1.00
H175   H     0.25681   0.40596   0.87530   0.00000  Uiso   1.00
O176   O     0.60702   0.85790   0.95928   0.00000  Uiso   1.00
O177   O     0.28272   0.12669   0.68857   0.00000  Uiso   1.00
O178   O     0.37790   0.39514   0.95170   0.00000  Uiso   1.00
N179   N     0.77381   0.88440   0.96285   0.00000  Uiso   1.00
N180   N     0.25531   0.07596   0.76993   0.00000  Uiso   1.00
N181   N     0.32316   0.55466   0.95743   0.00000  Uiso   1.00
N182   N     0.71738   0.79417   0.90242   0.00000  Uiso   1.00
N183   N     0.19888   0.98574   0.70951   0.00000  Uiso   1.00
N184   N     0.26673   0.46444   0.89700   0.00000  Uiso   1.00
C185   C     0.34625   0.62236   0.59793   0.00000  Uiso   1.00
C186   C     0.33470   0.51251   0.59594   0.00000  Uiso   1.00
C187   C     0.37526   0.45158   0.56062   0.00000  Uiso   1.00
C188   C     0.35613   0.35321   0.56526   0.00000  Uiso   1.00
C189   C     0.34700   0.18812   0.55631   0.00000  Uiso   1.00
C190   C     0.38751   0.64520   0.64911   0.00000  Uiso   1.00
C191   C     0.47246   0.69585   0.65849   0.00000  Uiso   1.00
C192   C     0.49777   0.70919   0.70789   0.00000  Uiso   1.00
C193   C     0.57060   0.75017   0.78150   0.00000  Uiso   1.00
C194   C     0.24384   0.66389   0.59743   0.00000  Uiso   1.00
C195   C     0.20799   0.73027   0.56337   0.00000  Uiso   1.00
C196   C     0.11235   0.75936   0.56926   0.00000  Uiso   1.00
C197   C     0.96210   0.82935   0.56263   0.00000  Uiso   1.00
C198   C     0.24015   0.55600   0.66899   0.00000  Uiso   1.00
C199   C     0.27707   0.47647   0.63454   0.00000  Uiso   1.00
C200   C     0.25787   0.37816   0.63923   0.00000  Uiso   1.00
C201   C     0.29839   0.31710   0.60392   0.00000  Uiso   1.00
C202   C     0.32988   0.60916   0.68771   0.00000  Uiso   1.00
C203   C     0.35507   0.62243   0.73711   0.00000  Uiso   1.00
C204   C     0.44004   0.67308   0.74656   0.00000  Uiso   1.00
C205   C     0.18620   0.62784   0.63603   0.00000  Uiso   1.00
C206   C     0.09060   0.65684   0.64198   0.00000  Uiso   1.00
C207   C     0.05461   0.72325   0.60793   0.00000  Uiso   1.00
H208   H     0.39112   0.65042   0.56788   0.00000  Uiso   1.00
H209   H     0.41987   0.47950   0.53075   0.00000  Uiso   1.00
H210   H     0.51704   0.72374   0.62861   0.00000  Uiso   1.00
H211   H     0.25261   0.75814   0.53350   0.00000  Uiso   1.00
H212   H     0.42634   0.27411   0.50662   0.00000  Uiso   1.00
H213   H     0.63123   0.78913   0.71296   0.00000  Uiso   1.00
H214   H     0.07363   0.86168   0.51241   0.00000  Uiso   1.00
H215   H     0.19528   0.52794   0.69904   0.00000  Uiso   1.00
H216   H     0.21327   0.35029   0.66911   0.00000  Uiso   1.00
H217   H     0.31045   0.59454   0.76697   0.00000  Uiso   1.00
H218   H     0.04602   0.62894   0.67186   0.00000  Uiso   1.00
H219   H     0.25867   0.16924   0.61892   0.00000  Uiso   1.00
H220   H     0.46355   0.68426   0.82526   0.00000  Uiso   1.00
H221   H     0.90596   0.75681   0.62470   0.00000  Uiso   1.00
O222   O     0.35790   0.10702   0.54072   0.00000  Uiso   1.00
O223   O     0.62669   0.78272   0.81143   0.00000  Uiso   1.00
O224   O     0.89514   0.87790   0.54830   0.00000  Uiso   1.00
N225   N     0.38440   0.27381   0.53715   0.00000  Uiso   1.00
N226   N     0.57596   0.75531   0.73007   0.00000  Uiso   1.00
N227   N     0.05466   0.82316   0.54257   0.00000  Uiso   1.00
N228   N     0.29417   0.21738   0.59758   0.00000  Uiso   1.00
N229   N     0.48574   0.69888   0.79049   0.00000  Uiso   1.00
N230   N     0.96444   0.76673   0.60300   0.00000  Uiso   1.00
C231   C     0.65375   0.37764   0.59793   0.00000  Uiso   1.00
C232   C     0.66530   0.48749   0.59594   0.00000  Uiso   1.00
C233   C     0.62474   0.54842   0.56062   0.00000  Uiso   1.00
C234   C     0.64387   0.64679   0.56526   0.00000  Uiso   1.00
C235   C     0.65300   0.81188   0.55631   0.00000  Uiso   1.00
C236   C     0.61249   0.35480   0.64911   0.00000  Uiso   1.00
C237   C     0.52754   0.30415   0.65849   0.00000  Uiso   1.00
C238   C     0.50223   0.29081   0.70789   0.00000  Uiso   1.00
C239   C     0.42940   0.24983   0.78150   0.00000  Uiso   1.00
C240   C     0.75616   0.33611   0.59743   0.00000  Uiso   1.00
C241   C     0.79201   0.26973   0.56337   0.00000  Uiso   1.00
C242   C     0.88765   0.24064   0.56926   0.00000  Uiso   1.00
C243   C     0.03790   0.17065   0.56263   0.00000  Uiso   1.00
C244   C     0.75985   0.44400   0.66899   0.00000  Uiso   1.00
C245   C     0.72293   0.52353   0.63454   0.00000  Uiso   1.00
C246   C     0.74213   0.62184   0.63923   0.00000  Uiso   1.00
C247   C     0.70161   0.68290   0.60392   0.00000  Uiso   1.00
C248   C     0.67012   0.39084   0.68771   0.00000  Uiso   1.00
C249   C     0.64493   0.37757   0.73711   0.00000  Uiso   1.00
C250   C     0.55996   0.32692   0.74656   0.00000  Uiso   1.00
C251   C     0.81380   0.37216   0.63603   0.00000  Uiso   1.00
C252   C     0.90940   0.34316   0.64198   0.00000  Uiso   1.00
C253   C     0.94539   0.27675   0.60793   0.00000  Uiso   1.00
H254   H     0.60888   0.34958   0.56788   0.00000  Uiso   1.00
H255   H     0.58013   0.52050   0.53075   0.00000  Uiso   1.00
H256   H     0.48296   0.27626   0.62861   0.00000  Uiso   1.00
H257   H     0.74739   0.24186   0.53350   0.00000  Uiso   1.00
H258   H     0.57366   0.72589   0.50662   0.00000  Uiso   1.00
H259   H     0.36877   0.21087   0.71296   0.00000  Uiso   1.00
H260   H     0.92637   0.13832   0.51241   0.00000  Uiso   1.00
H261   H     0.80472   0.47206   0.69904   0.00000  Uiso   1.00
H262   H     0.78673   0.64971   0.66911   0.00000  Uiso   1.00
H263   H     0.68955   0.40546   0.76697   0.00000  Uiso   1.00
H264   H     0.95398   0.37106   0.67186   0.00000  Uiso   1.00
H265   H     0.74133   0.83076   0.61892   0.00000  Uiso   1.00
H266   H     0.53645   0.31574   0.82526   0.00000  Uiso   1.00
H267   H     0.09404   0.24319   0.62470   0.00000  Uiso   1.00
O268   O     0.64210   0.89298   0.54072   0.00000  Uiso   1.00
O269   O     0.37331   0.21728   0.81143   0.00000  Uiso   1.00
O270   O     0.10486   0.12210   0.54830   0.00000  Uiso   1.00
N271   N     0.61560   0.72619   0.53715   0.00000  Uiso   1.00
N272   N     0.42404   0.24469   0.73007   0.00000  Uiso   1.00
N273   N     0.94534   0.17684   0.54257   0.00000  Uiso   1.00
N274   N     0.70583   0.78262   0.59758   0.00000  Uiso   1.00
N275   N     0.51426   0.30112   0.79049   0.00000  Uiso   1.00
N276   N     0.03556   0.23327   0.60300   0.00000  Uiso   1.00
C277   C     0.37764   0.34625   0.40207   0.00000  Uiso   1.00
C278   C     0.48749   0.33470   0.40406   0.00000  Uiso   1.00
C279   C     0.54842   0.37526   0.43938   0.00000  Uiso   1.00
C280   C     0.64679   0.35613   0.43474   0.00000  Uiso   1.00
C281   C     0.81188   0.34700   0.44369   0.00000  Uiso   1.00
C282   C     0.35480   0.38751   0.35089   0.00000  Uiso   1.00
C283   C     0.30415   0.47246   0.34151   0.00000  Uiso   1.00
C284   C     0.29081   0.49777   0.29211   0.00000  Uiso   1.00
C285   C     0.24983   0.57060   0.21850   0.00000  Uiso   1.00
C286   C     0.33611   0.24384   0.40257   0.00000  Uiso   1.00
C287   C     0.26973   0.20799   0.43663   0.00000  Uiso   1.00
C288   C     0.24064   0.11235   0.43074   0.00000  Uiso   1.00
C289   C     0.17065   0.96210   0.43737   0.00000  Uiso   1.00
C290   C     0.44400   0.24015   0.33101   0.00000  Uiso   1.00
C291   C     0.52353   0.27707   0.36546   0.00000  Uiso   1.00
C292   C     0.62184   0.25787   0.36077   0.00000  Uiso   1.00
C293   C     0.68290   0.29839   0.39608   0.00000  Uiso   1.00
C294   C     0.39084   0.32988   0.31229   0.00000  Uiso   1.00
C295   C     0.37757   0.35507   0.26289   0.00000  Uiso   1.00
C296   C     0.32692   0.44004   0.25344   0.00000  Uiso   1.00
C297   C     0.37216   0.18620   0.36397   0.00000  Uiso   1.00
C298   C     0.34316   0.09060   0.35802   0.00000  Uiso   1.00
C299   C     0.27675   0.05461   0.39207   0.00000  Uiso   1.00
H300   H     0.34958   0.39112   0.43212   0.00000  Uiso   1.00
H301   H     0.52050   0.41987   0.46925   0.00000  Uiso   1.00
H302   H     0.27626   0.51704   0.37139   0.00000  Uiso   1.00
H303   H     0.24186   0.25261   0.46650   0.00000  Uiso   1.00
H304   H     0.72589   0.42634   0.49338   0.00000  Uiso   1.00
H305   H     0.21087   0.63123   0.28704   0.00000  Uiso   1.00
H306   H     0.13832   0.07363   0.48759   0.00000  Uiso   1.00
H307   H     0.47206   0.19528   0.30096   0.00000  Uiso   1.00
H308   H     0.64971   0.21327   0.33089   0.00000  Uiso   1.00
H309   H     0.40546   0.31045   0.23303   0.00000  Uiso   1.00
H310   H     0.37106   0.04602   0.32814   0.00000  Uiso   1.00
H311   H     0.83076   0.25867   0.38108   0.00000  Uiso   1.00
H312   H     0.31574   0.46355   0.17474   0.00000  Uiso   1.00
H313   H     0.24319   0.90596   0.37530   0.00000  Uiso   1.00
O314   O     0.89298   0.35790   0.45928   0.00000  Uiso   1.00
O315   O     0.21728   0.62669   0.18857   0.00000  Uiso   1.00
O316   O     0.12210   0.89514   0.45170   0.00000  Uiso   1.00
N317   N     0.72619   0.38440   0.46285   0.00000  Uiso   1.00
N318   N     0.24469   0.57596   0.26993   0.00000  Uiso   1.00
N319   N     0.17684   0.05466   0.45743   0.00000  Uiso   1.00
N320   N     0.78262   0.29417   0.40242   0.00000  Uiso   1.00
N321   N     0.30112   0.48574   0.20951   0.00000  Uiso   1.00
N322   N     0.23327   0.96444   0.39700   0.00000  Uiso   1.00
C323   C     0.62236   0.65375   0.40207   0.00000  Uiso   1.00
C324   C     0.51251   0.66530   0.40406   0.00000  Uiso   1.00
C325   C     0.45158   0.62474   0.43938   0.00000  Uiso   1.00
C326   C     0.35321   0.64387   0.43474   0.00000  Uiso   1.00
C327   C     0.18812   0.65300   0.44369   0.00000  Uiso   1.00
C328   C     0.64520   0.61249   0.35089   0.00000  Uiso   1.00
C329   C     0.69585   0.52754   0.34151   0.00000  Uiso   1.00
C330   C     0.70919   0.50223   0.29211   0.00000  Uiso   1.00
C331   C     0.75017   0.42940   0.21850   0.00000  Uiso   1.00
C332   C     0.66389   0.75616   0.40257   0.00000  Uiso   1.00
C333   C     0.73027   0.79201   0.43663   0.00000  Uiso   1.00
C334   C     0.75936   0.88765   0.43074   0.00000  Uiso   1.00
C335   C     0.82935   0.03790   0.43737   0.00000  Uiso   1.00
C336   C     0.55600   0.75985   0.33101   0.00000  Uiso   1.00
C337   C     0.47647   0.72293   0.36546   0.00000  Uiso   1.00
C338   C     0.37816   0.74213   0.36077   0.00000  Uiso   1.00
C339   C     0.31710   0.70161   0.39608   0.00000  Uiso   1.00
C340   C     0.60916   0.67012   0.31229   0.00000  Uiso   1.00
C341   C     0.62243   0.64493   0.26289   0.00000  Uiso   1.00
C342   C     0.67308   0.55996   0.25344   0.00000  Uiso   1.00
C343   C     0.62784   0.81380   0.36397   0.00000  Uiso   1.00
C344   C     0.65684   0.90940   0.35802   0.00000  Uiso   1.00
C345   C     0.72325   0.94539   0.39207   0.00000  Uiso   1.00
H346   H     0.65042   0.60888   0.43212   0.00000  Uiso   1.00
H347   H     0.47950   0.58013   0.46925   0.00000  Uiso   1.00
H348   H     0.72374   0.48296   0.37139   0.00000  Uiso   1.00
H349   H     0.75814   0.74739   0.46650   0.00000  Uiso   1.00
H350   H     0.27411   0.57366   0.49338   0.00000  Uiso   1.00
H351   H     0.78913   0.36877   0.28704   0.00000  Uiso   1.00
H352   H     0.86168   0.92637   0.48759   0.00000  Uiso   1.00
H353   H     0.52794   0.80472   0.30096   0.00000  Uiso   1.00
H354   H     0.35029   0.78673   0.33089   0.00000  Uiso   1.00
H355   H     0.59454   0.68955   0.23303   0.00000  Uiso   1.00
H356   H     0.62894   0.95398   0.32814   0.00000  Uiso   1.00
H357   H     0.16924   0.74133   0.38108   0.00000  Uiso   1.00
H358   H     0.68426   0.53645   0.17474   0.00000  Uiso   1.00
H359   H     0.75681   0.09404   0.37530   0.00000  Uiso   1.00
O360   O     0.10702   0.64210   0.45928   0.00000  Uiso   1.00
O361   O     0.78272   0.37331   0.18857   0.00000  Uiso   1.00
O362   O     0.87790   0.10486   0.45170   0.00000  Uiso   1.00
N363   N     0.27381   0.61560   0.46285   0.00000  Uiso   1.00
N364   N     0.75531   0.42404   0.26993   0.00000  Uiso   1.00
N365   N     0.82316   0.94534   0.45743   0.00000  Uiso   1.00
N366   N     0.21738   0.70583   0.40242   0.00000  Uiso   1.00
N367   N     0.69888   0.51426   0.20951   0.00000  Uiso   1.00
N368   N     0.76673   0.03556   0.39700   0.00000  Uiso   1.00
