data_job_05284
_audit_creation_date              2018-12-19
_audit_creation_method            'Materials Studio'
_symmetry_space_group_name_H-M    'P1'
_symmetry_Int_Tables_number       1
_symmetry_cell_setting            triclinic
loop_
_symmetry_equiv_pos_as_xyz
  x,y,z
_cell_length_a                    21.7941
_cell_length_b                    17.4614
_cell_length_c                    30.0894
_cell_angle_alpha                 90.0000
_cell_angle_beta                  154.0163
_cell_angle_gamma                 90.0000
loop_
_atom_site_label
_atom_site_type_symbol
_atom_site_fract_x
_atom_site_fract_y
_atom_site_fract_z
_atom_site_U_iso_or_equiv
_atom_site_adp_type
_atom_site_occupancy
C1     C     0.93422   0.47533   0.61554   0.00000  Uiso   1.00
C2     C     0.01956   0.52561   0.63974   0.00000  Uiso   1.00
C3     C     0.16347   0.53633   0.73513   0.00000  Uiso   1.00
C4     C     0.22179   0.58458   0.74144   0.00000  Uiso   1.00
C5     C     0.36687   0.65717   0.79211   0.00000  Uiso   1.00
C6     C     0.82292   0.52738   0.56329   0.00000  Uiso   1.00
C7     C     0.80149   0.53958   0.59440   0.00000  Uiso   1.00
C8     C     0.69426   0.58932   0.53634   0.00000  Uiso   1.00
C9     C     0.53399   0.66462   0.46829   0.00000  Uiso   1.00
C10    C     0.85577   0.41867   0.53501   0.00000  Uiso   1.00
C11    C     0.86193   0.33947   0.54234   0.00000  Uiso   1.00
C12    C     0.78233   0.29768   0.46046   0.00000  Uiso   1.00
C13    C     0.67308   0.20419   0.34850   0.00000  Uiso   1.00
C14    C     0.78187   0.54195   0.45709   0.00000  Uiso   1.00
C15    C     0.93680   0.56180   0.55367   0.00000  Uiso   1.00
C16    C     0.99491   0.61004   0.55983   0.00000  Uiso   1.00
C17    C     0.13889   0.62083   0.65522   0.00000  Uiso   1.00
C18    C     0.74017   0.56357   0.47723   0.00000  Uiso   1.00
C19    C     0.63293   0.61329   0.41911   0.00000  Uiso   1.00
C20    C     0.61135   0.62557   0.45013   0.00000  Uiso   1.00
C21    C     0.77302   0.45486   0.44895   0.00000  Uiso   1.00
C22    C     0.69338   0.41318   0.36704   0.00000  Uiso   1.00
C23    C     0.69943   0.33393   0.37424   0.00000  Uiso   1.00
H24    H     0.99863   0.44717   0.68254   0.00000  Uiso   1.00
H25    H     0.22747   0.50833   0.80172   0.00000  Uiso   1.00
H26    H     0.86553   0.51157   0.66100   0.00000  Uiso   1.00
H27    H     0.92598   0.31149   0.60894   0.00000  Uiso   1.00
H28    H     0.44468   0.59211   0.89590   0.00000  Uiso   1.00
H29    H     0.68149   0.59893   0.59918   0.00000  Uiso   1.00
H30    H     0.80894   0.17702   0.48940   0.00000  Uiso   1.00
H31    H     0.71744   0.57013   0.39009   0.00000  Uiso   1.00
H32    H     0.93085   0.63803   0.49322   0.00000  Uiso   1.00
H33    H     0.56891   0.64128   0.35251   0.00000  Uiso   1.00
H34    H     0.62936   0.44120   0.30045   0.00000  Uiso   1.00
H35    H     0.20393   0.69739   0.64552   0.00000  Uiso   1.00
H36    H     0.44073   0.70421   0.34879   0.00000  Uiso   1.00
H37    H     0.56819   0.28230   0.23902   0.00000  Uiso   1.00
O38    O     0.46976   0.68723   0.84384   0.00000  Uiso   1.00
O39    O     0.46847   0.69616   0.45454   0.00000  Uiso   1.00
O40    O     0.63569   0.14263   0.31052   0.00000  Uiso   1.00
N41    N     0.35873   0.60756   0.82282   0.00000  Uiso   1.00
N42    N     0.64521   0.61394   0.54541   0.00000  Uiso   1.00
N43    N     0.76434   0.21949   0.44277   0.00000  Uiso   1.00
N44    N     0.22919   0.66421   0.68809   0.00000  Uiso   1.00
N45    N     0.51567   0.67059   0.41068   0.00000  Uiso   1.00
N46    N     0.63479   0.27614   0.30804   0.00000  Uiso   1.00
C47    C     0.43422   0.97533   0.61554   0.00000  Uiso   1.00
C48    C     0.51956   0.02561   0.63974   0.00000  Uiso   1.00
C49    C     0.66347   0.03633   0.73513   0.00000  Uiso   1.00
C50    C     0.72179   0.08458   0.74144   0.00000  Uiso   1.00
C51    C     0.86687   0.15717   0.79211   0.00000  Uiso   1.00
C52    C     0.32292   0.02738   0.56329   0.00000  Uiso   1.00
C53    C     0.30149   0.03958   0.59440   0.00000  Uiso   1.00
C54    C     0.19426   0.08932   0.53634   0.00000  Uiso   1.00
C55    C     0.03399   0.16462   0.46829   0.00000  Uiso   1.00
C56    C     0.35577   0.91867   0.53501   0.00000  Uiso   1.00
C57    C     0.36193   0.83947   0.54234   0.00000  Uiso   1.00
C58    C     0.28233   0.79768   0.46046   0.00000  Uiso   1.00
C59    C     0.17308   0.70419   0.34850   0.00000  Uiso   1.00
C60    C     0.28187   0.04195   0.45709   0.00000  Uiso   1.00
C61    C     0.43680   0.06180   0.55367   0.00000  Uiso   1.00
C62    C     0.49491   0.11004   0.55983   0.00000  Uiso   1.00
C63    C     0.63889   0.12083   0.65522   0.00000  Uiso   1.00
C64    C     0.24017   0.06357   0.47723   0.00000  Uiso   1.00
C65    C     0.13293   0.11329   0.41911   0.00000  Uiso   1.00
C66    C     0.11135   0.12557   0.45013   0.00000  Uiso   1.00
C67    C     0.27302   0.95486   0.44895   0.00000  Uiso   1.00
C68    C     0.19338   0.91318   0.36704   0.00000  Uiso   1.00
C69    C     0.19943   0.83393   0.37424   0.00000  Uiso   1.00
H70    H     0.49863   0.94717   0.68254   0.00000  Uiso   1.00
H71    H     0.72747   0.00833   0.80172   0.00000  Uiso   1.00
H72    H     0.36553   0.01157   0.66100   0.00000  Uiso   1.00
H73    H     0.42598   0.81149   0.60894   0.00000  Uiso   1.00
H74    H     0.94468   0.09211   0.89590   0.00000  Uiso   1.00
H75    H     0.18149   0.09893   0.59918   0.00000  Uiso   1.00
H76    H     0.30894   0.67702   0.48940   0.00000  Uiso   1.00
H77    H     0.21744   0.07013   0.39009   0.00000  Uiso   1.00
H78    H     0.43085   0.13803   0.49322   0.00000  Uiso   1.00
H79    H     0.06891   0.14128   0.35251   0.00000  Uiso   1.00
H80    H     0.12936   0.94120   0.30045   0.00000  Uiso   1.00
H81    H     0.70393   0.19739   0.64552   0.00000  Uiso   1.00
H82    H     0.94073   0.20421   0.34879   0.00000  Uiso   1.00
H83    H     0.06819   0.78230   0.23902   0.00000  Uiso   1.00
O84    O     0.96976   0.18723   0.84384   0.00000  Uiso   1.00
O85    O     0.96847   0.19616   0.45454   0.00000  Uiso   1.00
O86    O     0.13569   0.64263   0.31052   0.00000  Uiso   1.00
N87    N     0.85873   0.10756   0.82282   0.00000  Uiso   1.00
N88    N     0.14521   0.11394   0.54541   0.00000  Uiso   1.00
N89    N     0.26434   0.71949   0.44277   0.00000  Uiso   1.00
N90    N     0.72919   0.16421   0.68809   0.00000  Uiso   1.00
N91    N     0.01567   0.17059   0.41068   0.00000  Uiso   1.00
N92    N     0.13479   0.77614   0.30804   0.00000  Uiso   1.00
C93    C     0.06578   0.47533   0.88446   0.00000  Uiso   1.00
C94    C     0.98044   0.52561   0.86026   0.00000  Uiso   1.00
C95    C     0.83653   0.53633   0.76487   0.00000  Uiso   1.00
C96    C     0.77821   0.58458   0.75856   0.00000  Uiso   1.00
C97    C     0.63313   0.65717   0.70789   0.00000  Uiso   1.00
C98    C     0.17708   0.52738   0.93671   0.00000  Uiso   1.00
C99    C     0.19851   0.53958   0.90560   0.00000  Uiso   1.00
C100   C     0.30574   0.58932   0.96366   0.00000  Uiso   1.00
C101   C     0.46601   0.66462   0.03171   0.00000  Uiso   1.00
C102   C     0.14423   0.41867   0.96499   0.00000  Uiso   1.00
C103   C     0.13807   0.33947   0.95766   0.00000  Uiso   1.00
C104   C     0.21767   0.29768   0.03954   0.00000  Uiso   1.00
C105   C     0.32692   0.20419   0.15150   0.00000  Uiso   1.00
C106   C     0.21813   0.54195   0.04291   0.00000  Uiso   1.00
C107   C     0.06320   0.56180   0.94633   0.00000  Uiso   1.00
C108   C     0.00509   0.61004   0.94017   0.00000  Uiso   1.00
C109   C     0.86111   0.62083   0.84478   0.00000  Uiso   1.00
C110   C     0.25983   0.56357   0.02277   0.00000  Uiso   1.00
C111   C     0.36707   0.61329   0.08089   0.00000  Uiso   1.00
C112   C     0.38865   0.62557   0.04987   0.00000  Uiso   1.00
C113   C     0.22698   0.45486   0.05105   0.00000  Uiso   1.00
C114   C     0.30662   0.41318   0.13296   0.00000  Uiso   1.00
C115   C     0.30057   0.33393   0.12576   0.00000  Uiso   1.00
H116   H     0.00137   0.44717   0.81746   0.00000  Uiso   1.00
H117   H     0.77253   0.50833   0.69828   0.00000  Uiso   1.00
H118   H     0.13447   0.51157   0.83900   0.00000  Uiso   1.00
H119   H     0.07402   0.31149   0.89106   0.00000  Uiso   1.00
H120   H     0.55532   0.59211   0.60410   0.00000  Uiso   1.00
H121   H     0.31851   0.59893   0.90082   0.00000  Uiso   1.00
H122   H     0.19106   0.17702   0.01060   0.00000  Uiso   1.00
H123   H     0.28256   0.57013   0.10991   0.00000  Uiso   1.00
H124   H     0.06915   0.63803   0.00678   0.00000  Uiso   1.00
H125   H     0.43109   0.64128   0.14749   0.00000  Uiso   1.00
H126   H     0.37064   0.44120   0.19955   0.00000  Uiso   1.00
H127   H     0.79607   0.69739   0.85448   0.00000  Uiso   1.00
H128   H     0.55927   0.70421   0.15121   0.00000  Uiso   1.00
H129   H     0.43181   0.28230   0.26098   0.00000  Uiso   1.00
O130   O     0.53024   0.68723   0.65616   0.00000  Uiso   1.00
O131   O     0.53153   0.69616   0.04546   0.00000  Uiso   1.00
O132   O     0.36431   0.14263   0.18948   0.00000  Uiso   1.00
N133   N     0.64127   0.60756   0.67718   0.00000  Uiso   1.00
N134   N     0.35479   0.61394   0.95459   0.00000  Uiso   1.00
N135   N     0.23566   0.21949   0.05723   0.00000  Uiso   1.00
N136   N     0.77081   0.66421   0.81191   0.00000  Uiso   1.00
N137   N     0.48433   0.67059   0.08932   0.00000  Uiso   1.00
N138   N     0.36521   0.27614   0.19196   0.00000  Uiso   1.00
C139   C     0.56578   0.97533   0.88446   0.00000  Uiso   1.00
C140   C     0.48044   0.02561   0.86026   0.00000  Uiso   1.00
C141   C     0.33653   0.03633   0.76487   0.00000  Uiso   1.00
C142   C     0.27821   0.08458   0.75856   0.00000  Uiso   1.00
C143   C     0.13313   0.15717   0.70789   0.00000  Uiso   1.00
C144   C     0.67708   0.02738   0.93671   0.00000  Uiso   1.00
C145   C     0.69851   0.03958   0.90560   0.00000  Uiso   1.00
C146   C     0.80574   0.08932   0.96366   0.00000  Uiso   1.00
C147   C     0.96601   0.16462   0.03171   0.00000  Uiso   1.00
C148   C     0.64423   0.91867   0.96499   0.00000  Uiso   1.00
C149   C     0.63807   0.83947   0.95766   0.00000  Uiso   1.00
C150   C     0.71767   0.79768   0.03954   0.00000  Uiso   1.00
C151   C     0.82692   0.70419   0.15150   0.00000  Uiso   1.00
C152   C     0.71813   0.04195   0.04291   0.00000  Uiso   1.00
C153   C     0.56320   0.06180   0.94633   0.00000  Uiso   1.00
C154   C     0.50509   0.11004   0.94017   0.00000  Uiso   1.00
C155   C     0.36111   0.12083   0.84478   0.00000  Uiso   1.00
C156   C     0.75983   0.06357   0.02277   0.00000  Uiso   1.00
C157   C     0.86707   0.11329   0.08089   0.00000  Uiso   1.00
C158   C     0.88865   0.12557   0.04987   0.00000  Uiso   1.00
C159   C     0.72698   0.95486   0.05105   0.00000  Uiso   1.00
C160   C     0.80662   0.91318   0.13296   0.00000  Uiso   1.00
C161   C     0.80057   0.83393   0.12576   0.00000  Uiso   1.00
H162   H     0.50137   0.94717   0.81746   0.00000  Uiso   1.00
H163   H     0.27253   0.00833   0.69828   0.00000  Uiso   1.00
H164   H     0.63447   0.01157   0.83900   0.00000  Uiso   1.00
H165   H     0.57402   0.81149   0.89106   0.00000  Uiso   1.00
H166   H     0.05532   0.09211   0.60410   0.00000  Uiso   1.00
H167   H     0.81851   0.09893   0.90082   0.00000  Uiso   1.00
H168   H     0.69106   0.67702   0.01060   0.00000  Uiso   1.00
H169   H     0.78256   0.07013   0.10991   0.00000  Uiso   1.00
H170   H     0.56915   0.13803   0.00678   0.00000  Uiso   1.00
H171   H     0.93109   0.14128   0.14749   0.00000  Uiso   1.00
H172   H     0.87064   0.94120   0.19955   0.00000  Uiso   1.00
H173   H     0.29607   0.19739   0.85448   0.00000  Uiso   1.00
H174   H     0.05927   0.20421   0.15121   0.00000  Uiso   1.00
H175   H     0.93181   0.78230   0.26098   0.00000  Uiso   1.00
O176   O     0.03024   0.18723   0.65616   0.00000  Uiso   1.00
O177   O     0.03153   0.19616   0.04546   0.00000  Uiso   1.00
O178   O     0.86431   0.64263   0.18948   0.00000  Uiso   1.00
N179   N     0.14127   0.10756   0.67718   0.00000  Uiso   1.00
N180   N     0.85479   0.11394   0.95459   0.00000  Uiso   1.00
N181   N     0.73566   0.71949   0.05723   0.00000  Uiso   1.00
N182   N     0.27081   0.16421   0.81191   0.00000  Uiso   1.00
N183   N     0.98433   0.17059   0.08932   0.00000  Uiso   1.00
N184   N     0.86521   0.77614   0.19196   0.00000  Uiso   1.00
C185   C     0.06578   0.52467   0.38446   0.00000  Uiso   1.00
C186   C     0.98044   0.47439   0.36026   0.00000  Uiso   1.00
C187   C     0.83653   0.46367   0.26487   0.00000  Uiso   1.00
C188   C     0.77821   0.41542   0.25856   0.00000  Uiso   1.00
C189   C     0.63313   0.34283   0.20789   0.00000  Uiso   1.00
C190   C     0.17708   0.47262   0.43671   0.00000  Uiso   1.00
C191   C     0.19851   0.46042   0.40560   0.00000  Uiso   1.00
C192   C     0.30574   0.41068   0.46366   0.00000  Uiso   1.00
C193   C     0.46601   0.33538   0.53171   0.00000  Uiso   1.00
C194   C     0.14423   0.58133   0.46499   0.00000  Uiso   1.00
C195   C     0.13807   0.66053   0.45766   0.00000  Uiso   1.00
C196   C     0.21767   0.70232   0.53954   0.00000  Uiso   1.00
C197   C     0.32692   0.79581   0.65150   0.00000  Uiso   1.00
C198   C     0.21813   0.45805   0.54291   0.00000  Uiso   1.00
C199   C     0.06320   0.43820   0.44633   0.00000  Uiso   1.00
C200   C     0.00509   0.38996   0.44017   0.00000  Uiso   1.00
C201   C     0.86111   0.37917   0.34478   0.00000  Uiso   1.00
C202   C     0.25983   0.43643   0.52277   0.00000  Uiso   1.00
C203   C     0.36707   0.38671   0.58089   0.00000  Uiso   1.00
C204   C     0.38865   0.37443   0.54987   0.00000  Uiso   1.00
C205   C     0.22698   0.54514   0.55105   0.00000  Uiso   1.00
C206   C     0.30662   0.58682   0.63296   0.00000  Uiso   1.00
C207   C     0.30057   0.66607   0.62576   0.00000  Uiso   1.00
H208   H     0.00137   0.55283   0.31746   0.00000  Uiso   1.00
H209   H     0.77253   0.49167   0.19828   0.00000  Uiso   1.00
H210   H     0.13447   0.48843   0.33900   0.00000  Uiso   1.00
H211   H     0.07402   0.68851   0.39106   0.00000  Uiso   1.00
H212   H     0.55532   0.40789   0.10410   0.00000  Uiso   1.00
H213   H     0.31851   0.40107   0.40082   0.00000  Uiso   1.00
H214   H     0.19106   0.82298   0.51060   0.00000  Uiso   1.00
H215   H     0.28256   0.42987   0.60991   0.00000  Uiso   1.00
H216   H     0.06915   0.36197   0.50678   0.00000  Uiso   1.00
H217   H     0.43109   0.35872   0.64749   0.00000  Uiso   1.00
H218   H     0.37064   0.55880   0.69955   0.00000  Uiso   1.00
H219   H     0.79607   0.30261   0.35448   0.00000  Uiso   1.00
H220   H     0.55927   0.29579   0.65121   0.00000  Uiso   1.00
H221   H     0.43181   0.71770   0.76098   0.00000  Uiso   1.00
O222   O     0.53024   0.31277   0.15616   0.00000  Uiso   1.00
O223   O     0.53153   0.30384   0.54546   0.00000  Uiso   1.00
O224   O     0.36431   0.85737   0.68948   0.00000  Uiso   1.00
N225   N     0.64127   0.39244   0.17718   0.00000  Uiso   1.00
N226   N     0.35479   0.38606   0.45459   0.00000  Uiso   1.00
N227   N     0.23566   0.78051   0.55723   0.00000  Uiso   1.00
N228   N     0.77081   0.33579   0.31191   0.00000  Uiso   1.00
N229   N     0.48433   0.32941   0.58932   0.00000  Uiso   1.00
N230   N     0.36521   0.72386   0.69196   0.00000  Uiso   1.00
C231   C     0.56578   0.02467   0.38446   0.00000  Uiso   1.00
C232   C     0.48044   0.97439   0.36026   0.00000  Uiso   1.00
C233   C     0.33653   0.96367   0.26487   0.00000  Uiso   1.00
C234   C     0.27821   0.91542   0.25856   0.00000  Uiso   1.00
C235   C     0.13313   0.84283   0.20789   0.00000  Uiso   1.00
C236   C     0.67708   0.97262   0.43671   0.00000  Uiso   1.00
C237   C     0.69851   0.96042   0.40560   0.00000  Uiso   1.00
C238   C     0.80574   0.91068   0.46366   0.00000  Uiso   1.00
C239   C     0.96601   0.83538   0.53171   0.00000  Uiso   1.00
C240   C     0.64423   0.08133   0.46499   0.00000  Uiso   1.00
C241   C     0.63807   0.16053   0.45766   0.00000  Uiso   1.00
C242   C     0.71767   0.20232   0.53954   0.00000  Uiso   1.00
C243   C     0.82692   0.29581   0.65150   0.00000  Uiso   1.00
C244   C     0.71813   0.95805   0.54291   0.00000  Uiso   1.00
C245   C     0.56320   0.93820   0.44633   0.00000  Uiso   1.00
C246   C     0.50509   0.88996   0.44017   0.00000  Uiso   1.00
C247   C     0.36111   0.87917   0.34478   0.00000  Uiso   1.00
C248   C     0.75983   0.93643   0.52277   0.00000  Uiso   1.00
C249   C     0.86707   0.88671   0.58089   0.00000  Uiso   1.00
C250   C     0.88865   0.87443   0.54987   0.00000  Uiso   1.00
C251   C     0.72698   0.04514   0.55105   0.00000  Uiso   1.00
C252   C     0.80662   0.08682   0.63296   0.00000  Uiso   1.00
C253   C     0.80057   0.16607   0.62576   0.00000  Uiso   1.00
H254   H     0.50137   0.05283   0.31746   0.00000  Uiso   1.00
H255   H     0.27253   0.99167   0.19828   0.00000  Uiso   1.00
H256   H     0.63447   0.98843   0.33900   0.00000  Uiso   1.00
H257   H     0.57402   0.18851   0.39106   0.00000  Uiso   1.00
H258   H     0.05532   0.90789   0.10410   0.00000  Uiso   1.00
H259   H     0.81851   0.90107   0.40082   0.00000  Uiso   1.00
H260   H     0.69106   0.32298   0.51060   0.00000  Uiso   1.00
H261   H     0.78256   0.92987   0.60991   0.00000  Uiso   1.00
H262   H     0.56915   0.86197   0.50678   0.00000  Uiso   1.00
H263   H     0.93109   0.85872   0.64749   0.00000  Uiso   1.00
H264   H     0.87064   0.05880   0.69955   0.00000  Uiso   1.00
H265   H     0.29607   0.80261   0.35448   0.00000  Uiso   1.00
H266   H     0.05927   0.79579   0.65121   0.00000  Uiso   1.00
H267   H     0.93181   0.21770   0.76098   0.00000  Uiso   1.00
O268   O     0.03024   0.81277   0.15616   0.00000  Uiso   1.00
O269   O     0.03153   0.80384   0.54546   0.00000  Uiso   1.00
O270   O     0.86431   0.35737   0.68948   0.00000  Uiso   1.00
N271   N     0.14127   0.89244   0.17718   0.00000  Uiso   1.00
N272   N     0.85479   0.88606   0.45459   0.00000  Uiso   1.00
N273   N     0.73566   0.28051   0.55723   0.00000  Uiso   1.00
N274   N     0.27081   0.83579   0.31191   0.00000  Uiso   1.00
N275   N     0.98433   0.82941   0.58932   0.00000  Uiso   1.00
N276   N     0.86521   0.22386   0.69196   0.00000  Uiso   1.00
C277   C     0.93422   0.52467   0.11554   0.00000  Uiso   1.00
C278   C     0.01956   0.47439   0.13974   0.00000  Uiso   1.00
C279   C     0.16347   0.46367   0.23513   0.00000  Uiso   1.00
C280   C     0.22179   0.41542   0.24144   0.00000  Uiso   1.00
C281   C     0.36687   0.34283   0.29211   0.00000  Uiso   1.00
C282   C     0.82292   0.47262   0.06329   0.00000  Uiso   1.00
C283   C     0.80149   0.46042   0.09440   0.00000  Uiso   1.00
C284   C     0.69426   0.41068   0.03634   0.00000  Uiso   1.00
C285   C     0.53399   0.33538   0.96829   0.00000  Uiso   1.00
C286   C     0.85577   0.58133   0.03501   0.00000  Uiso   1.00
C287   C     0.86193   0.66053   0.04234   0.00000  Uiso   1.00
C288   C     0.78233   0.70232   0.96046   0.00000  Uiso   1.00
C289   C     0.67308   0.79581   0.84850   0.00000  Uiso   1.00
C290   C     0.78187   0.45805   0.95709   0.00000  Uiso   1.00
C291   C     0.93680   0.43820   0.05367   0.00000  Uiso   1.00
C292   C     0.99491   0.38996   0.05983   0.00000  Uiso   1.00
C293   C     0.13889   0.37917   0.15522   0.00000  Uiso   1.00
C294   C     0.74017   0.43643   0.97723   0.00000  Uiso   1.00
C295   C     0.63293   0.38671   0.91911   0.00000  Uiso   1.00
C296   C     0.61135   0.37443   0.95013   0.00000  Uiso   1.00
C297   C     0.77302   0.54514   0.94895   0.00000  Uiso   1.00
C298   C     0.69338   0.58682   0.86704   0.00000  Uiso   1.00
C299   C     0.69943   0.66607   0.87424   0.00000  Uiso   1.00
H300   H     0.99863   0.55283   0.18254   0.00000  Uiso   1.00
H301   H     0.22747   0.49167   0.30172   0.00000  Uiso   1.00
H302   H     0.86553   0.48843   0.16100   0.00000  Uiso   1.00
H303   H     0.92598   0.68851   0.10894   0.00000  Uiso   1.00
H304   H     0.44468   0.40789   0.39590   0.00000  Uiso   1.00
H305   H     0.68149   0.40107   0.09918   0.00000  Uiso   1.00
H306   H     0.80894   0.82298   0.98940   0.00000  Uiso   1.00
H307   H     0.71744   0.42987   0.89009   0.00000  Uiso   1.00
H308   H     0.93085   0.36197   0.99322   0.00000  Uiso   1.00
H309   H     0.56891   0.35872   0.85251   0.00000  Uiso   1.00
H310   H     0.62936   0.55880   0.80045   0.00000  Uiso   1.00
H311   H     0.20393   0.30261   0.14552   0.00000  Uiso   1.00
H312   H     0.44073   0.29579   0.84879   0.00000  Uiso   1.00
H313   H     0.56819   0.71770   0.73902   0.00000  Uiso   1.00
O314   O     0.46976   0.31277   0.34384   0.00000  Uiso   1.00
O315   O     0.46847   0.30384   0.95454   0.00000  Uiso   1.00
O316   O     0.63569   0.85737   0.81052   0.00000  Uiso   1.00
N317   N     0.35873   0.39244   0.32282   0.00000  Uiso   1.00
N318   N     0.64521   0.38606   0.04541   0.00000  Uiso   1.00
N319   N     0.76434   0.78051   0.94277   0.00000  Uiso   1.00
N320   N     0.22919   0.33579   0.18809   0.00000  Uiso   1.00
N321   N     0.51567   0.32941   0.91068   0.00000  Uiso   1.00
N322   N     0.63479   0.72386   0.80804   0.00000  Uiso   1.00
C323   C     0.43422   0.02467   0.11554   0.00000  Uiso   1.00
C324   C     0.51956   0.97439   0.13974   0.00000  Uiso   1.00
C325   C     0.66347   0.96367   0.23513   0.00000  Uiso   1.00
C326   C     0.72179   0.91542   0.24144   0.00000  Uiso   1.00
C327   C     0.86687   0.84283   0.29211   0.00000  Uiso   1.00
C328   C     0.32292   0.97262   0.06329   0.00000  Uiso   1.00
C329   C     0.30149   0.96042   0.09440   0.00000  Uiso   1.00
C330   C     0.19426   0.91068   0.03634   0.00000  Uiso   1.00
C331   C     0.03399   0.83538   0.96829   0.00000  Uiso   1.00
C332   C     0.35577   0.08133   0.03501   0.00000  Uiso   1.00
C333   C     0.36193   0.16053   0.04234   0.00000  Uiso   1.00
C334   C     0.28233   0.20232   0.96046   0.00000  Uiso   1.00
C335   C     0.17308   0.29581   0.84850   0.00000  Uiso   1.00
C336   C     0.28187   0.95805   0.95709   0.00000  Uiso   1.00
C337   C     0.43680   0.93820   0.05367   0.00000  Uiso   1.00
C338   C     0.49491   0.88996   0.05983   0.00000  Uiso   1.00
C339   C     0.63889   0.87917   0.15522   0.00000  Uiso   1.00
C340   C     0.24017   0.93643   0.97723   0.00000  Uiso   1.00
C341   C     0.13293   0.88671   0.91911   0.00000  Uiso   1.00
C342   C     0.11135   0.87443   0.95013   0.00000  Uiso   1.00
C343   C     0.27302   0.04514   0.94895   0.00000  Uiso   1.00
C344   C     0.19338   0.08682   0.86704   0.00000  Uiso   1.00
C345   C     0.19943   0.16607   0.87424   0.00000  Uiso   1.00
H346   H     0.49863   0.05283   0.18254   0.00000  Uiso   1.00
H347   H     0.72747   0.99167   0.30172   0.00000  Uiso   1.00
H348   H     0.36553   0.98843   0.16100   0.00000  Uiso   1.00
H349   H     0.42598   0.18851   0.10894   0.00000  Uiso   1.00
H350   H     0.94468   0.90789   0.39590   0.00000  Uiso   1.00
H351   H     0.18149   0.90107   0.09918   0.00000  Uiso   1.00
H352   H     0.30894   0.32298   0.98940   0.00000  Uiso   1.00
H353   H     0.21744   0.92987   0.89009   0.00000  Uiso   1.00
H354   H     0.43085   0.86197   0.99322   0.00000  Uiso   1.00
H355   H     0.06891   0.85872   0.85251   0.00000  Uiso   1.00
H356   H     0.12936   0.05880   0.80045   0.00000  Uiso   1.00
H357   H     0.70393   0.80261   0.14552   0.00000  Uiso   1.00
H358   H     0.94073   0.79579   0.84879   0.00000  Uiso   1.00
H359   H     0.06819   0.21770   0.73902   0.00000  Uiso   1.00
O360   O     0.96976   0.81277   0.34384   0.00000  Uiso   1.00
O361   O     0.96847   0.80384   0.95454   0.00000  Uiso   1.00
O362   O     0.13569   0.35737   0.81052   0.00000  Uiso   1.00
N363   N     0.85873   0.89244   0.32282   0.00000  Uiso   1.00
N364   N     0.14521   0.88606   0.04541   0.00000  Uiso   1.00
N365   N     0.26434   0.28051   0.94277   0.00000  Uiso   1.00
N366   N     0.72919   0.83579   0.18809   0.00000  Uiso   1.00
N367   N     0.01567   0.82941   0.91068   0.00000  Uiso   1.00
N368   N     0.13479   0.22386   0.80804   0.00000  Uiso   1.00
