data_job_01990
_audit_creation_date              2018-12-19
_audit_creation_method            'Materials Studio'
_symmetry_space_group_name_H-M    'P1'
_symmetry_Int_Tables_number       1
_symmetry_cell_setting            triclinic
loop_
_symmetry_equiv_pos_as_xyz
  x,y,z
_cell_length_a                    16.3382
_cell_length_b                    18.0120
_cell_length_c                    11.5919
_cell_angle_alpha                 90.0000
_cell_angle_beta                  135.6757
_cell_angle_gamma                 90.0000
loop_
_atom_site_label
_atom_site_type_symbol
_atom_site_fract_x
_atom_site_fract_y
_atom_site_fract_z
_atom_site_U_iso_or_equiv
_atom_site_adp_type
_atom_site_occupancy
C1     C     0.58111   0.08242   0.11456   0.00000  Uiso   1.00
C2     C     0.51704   0.14999   0.00200   0.00000  Uiso   1.00
C3     C     0.53147   0.17965   0.90697   0.00000  Uiso   1.00
C4     C     0.46475   0.24164   0.81231   0.00000  Uiso   1.00
C5     C     0.37722   0.34185   0.63753   0.00000  Uiso   1.00
C6     C     0.64135   0.10846   0.28552   0.00000  Uiso   1.00
C7     C     0.76028   0.10319   0.42887   0.00000  Uiso   1.00
C8     C     0.79819   0.13021   0.57288   0.00000  Uiso   1.00
C9     C     0.90364   0.16589   0.83828   0.00000  Uiso   1.00
C10    C     0.48617   0.02810   0.05677   0.00000  Uiso   1.00
C11    C     0.47464   0.95526   0.00782   0.00000  Uiso   1.00
C12    C     0.38191   0.91462   0.95927   0.00000  Uiso   1.00
C13    C     0.24641   0.82553   0.86950   0.00000  Uiso   1.00
C14    C     0.43696   0.13976   0.11543   0.00000  Uiso   1.00
C15    C     0.43875   0.18114   0.00248   0.00000  Uiso   1.00
C16    C     0.37198   0.24310   0.90793   0.00000  Uiso   1.00
C17    C     0.38630   0.27284   0.81277   0.00000  Uiso   1.00
C18    C     0.56305   0.13961   0.28600   0.00000  Uiso   1.00
C19    C     0.60079   0.16663   0.42983   0.00000  Uiso   1.00
C20    C     0.71975   0.16141   0.57335   0.00000  Uiso   1.00
C21    C     0.40786   0.05925   0.05723   0.00000  Uiso   1.00
C22    C     0.31514   0.01871   0.00876   0.00000  Uiso   1.00
C23    C     0.30347   0.94582   0.95974   0.00000  Uiso   1.00
H24    H     0.64208   0.05817   0.11421   0.00000  Uiso   1.00
H25    H     0.59208   0.15553   0.90665   0.00000  Uiso   1.00
H26    H     0.82085   0.07907   0.42847   0.00000  Uiso   1.00
H27    H     0.53525   0.93117   0.00747   0.00000  Uiso   1.00
H28    H     0.50216   0.27723   0.67680   0.00000  Uiso   1.00
H29    H     0.98453   0.11599   0.77709   0.00000  Uiso   1.00
H30    H     0.38228   0.80411   0.88934   0.00000  Uiso   1.00
H31    H     0.37600   0.16401   0.11580   0.00000  Uiso   1.00
H32    H     0.31140   0.26719   0.90832   0.00000  Uiso   1.00
H33    H     0.54017   0.19073   0.43014   0.00000  Uiso   1.00
H34    H     0.25457   0.04283   0.00914   0.00000  Uiso   1.00
H35    H     0.27435   0.36786   0.67815   0.00000  Uiso   1.00
H36    H     0.75672   0.20662   0.77845   0.00000  Uiso   1.00
H37    H     0.15447   0.89474   0.89069   0.00000  Uiso   1.00
O38    O     0.35059   0.38852   0.54101   0.00000  Uiso   1.00
O39    O     0.98343   0.17697   0.98455   0.00000  Uiso   1.00
O40    O     0.19329   0.76779   0.81983   0.00000  Uiso   1.00
N41    N     0.45739   0.28439   0.70556   0.00000  Uiso   1.00
N42    N     0.90838   0.13366   0.73427   0.00000  Uiso   1.00
N43    N     0.34535   0.84207   0.90434   0.00000  Uiso   1.00
N44    N     0.33481   0.33316   0.70629   0.00000  Uiso   1.00
N45    N     0.78580   0.18242   0.73499   0.00000  Uiso   1.00
N46    N     0.22276   0.89083   0.90506   0.00000  Uiso   1.00
C47    C     0.08111   0.58242   0.11456   0.00000  Uiso   1.00
C48    C     0.01704   0.64999   0.00200   0.00000  Uiso   1.00
C49    C     0.03147   0.67965   0.90697   0.00000  Uiso   1.00
C50    C     0.96475   0.74164   0.81231   0.00000  Uiso   1.00
C51    C     0.87722   0.84185   0.63753   0.00000  Uiso   1.00
C52    C     0.14135   0.60846   0.28552   0.00000  Uiso   1.00
C53    C     0.26028   0.60319   0.42887   0.00000  Uiso   1.00
C54    C     0.29819   0.63021   0.57288   0.00000  Uiso   1.00
C55    C     0.40364   0.66589   0.83828   0.00000  Uiso   1.00
C56    C     0.98617   0.52810   0.05677   0.00000  Uiso   1.00
C57    C     0.97464   0.45526   0.00782   0.00000  Uiso   1.00
C58    C     0.88191   0.41462   0.95927   0.00000  Uiso   1.00
C59    C     0.74641   0.32553   0.86950   0.00000  Uiso   1.00
C60    C     0.93696   0.63976   0.11543   0.00000  Uiso   1.00
C61    C     0.93875   0.68114   0.00248   0.00000  Uiso   1.00
C62    C     0.87198   0.74310   0.90793   0.00000  Uiso   1.00
C63    C     0.88630   0.77284   0.81277   0.00000  Uiso   1.00
C64    C     0.06305   0.63961   0.28600   0.00000  Uiso   1.00
C65    C     0.10079   0.66663   0.42983   0.00000  Uiso   1.00
C66    C     0.21975   0.66141   0.57335   0.00000  Uiso   1.00
C67    C     0.90786   0.55925   0.05723   0.00000  Uiso   1.00
C68    C     0.81514   0.51871   0.00876   0.00000  Uiso   1.00
C69    C     0.80347   0.44582   0.95974   0.00000  Uiso   1.00
H70    H     0.14208   0.55817   0.11421   0.00000  Uiso   1.00
H71    H     0.09208   0.65553   0.90665   0.00000  Uiso   1.00
H72    H     0.32085   0.57907   0.42847   0.00000  Uiso   1.00
H73    H     0.03525   0.43117   0.00747   0.00000  Uiso   1.00
H74    H     0.00216   0.77723   0.67680   0.00000  Uiso   1.00
H75    H     0.48453   0.61599   0.77709   0.00000  Uiso   1.00
H76    H     0.88228   0.30411   0.88934   0.00000  Uiso   1.00
H77    H     0.87600   0.66401   0.11580   0.00000  Uiso   1.00
H78    H     0.81140   0.76719   0.90832   0.00000  Uiso   1.00
H79    H     0.04017   0.69073   0.43014   0.00000  Uiso   1.00
H80    H     0.75457   0.54283   0.00914   0.00000  Uiso   1.00
H81    H     0.77435   0.86786   0.67815   0.00000  Uiso   1.00
H82    H     0.25672   0.70662   0.77845   0.00000  Uiso   1.00
H83    H     0.65447   0.39474   0.89069   0.00000  Uiso   1.00
O84    O     0.85059   0.88852   0.54101   0.00000  Uiso   1.00
O85    O     0.48343   0.67697   0.98455   0.00000  Uiso   1.00
O86    O     0.69329   0.26779   0.81983   0.00000  Uiso   1.00
N87    N     0.95739   0.78439   0.70556   0.00000  Uiso   1.00
N88    N     0.40838   0.63366   0.73427   0.00000  Uiso   1.00
N89    N     0.84535   0.34207   0.90434   0.00000  Uiso   1.00
N90    N     0.83481   0.83316   0.70629   0.00000  Uiso   1.00
N91    N     0.28580   0.68242   0.73499   0.00000  Uiso   1.00
N92    N     0.72276   0.39083   0.90506   0.00000  Uiso   1.00
C93    C     0.58111   0.91758   0.61456   0.00000  Uiso   1.00
C94    C     0.51704   0.85001   0.50200   0.00000  Uiso   1.00
C95    C     0.53147   0.82035   0.40697   0.00000  Uiso   1.00
C96    C     0.46475   0.75836   0.31231   0.00000  Uiso   1.00
C97    C     0.37722   0.65815   0.13753   0.00000  Uiso   1.00
C98    C     0.64135   0.89154   0.78552   0.00000  Uiso   1.00
C99    C     0.76028   0.89681   0.92887   0.00000  Uiso   1.00
C100   C     0.79819   0.86979   0.07288   0.00000  Uiso   1.00
C101   C     0.90364   0.83411   0.33828   0.00000  Uiso   1.00
C102   C     0.48617   0.97190   0.55677   0.00000  Uiso   1.00
C103   C     0.47464   0.04474   0.50782   0.00000  Uiso   1.00
C104   C     0.38191   0.08538   0.45927   0.00000  Uiso   1.00
C105   C     0.24641   0.17447   0.36950   0.00000  Uiso   1.00
C106   C     0.43696   0.86024   0.61543   0.00000  Uiso   1.00
C107   C     0.43875   0.81886   0.50248   0.00000  Uiso   1.00
C108   C     0.37198   0.75690   0.40793   0.00000  Uiso   1.00
C109   C     0.38630   0.72716   0.31277   0.00000  Uiso   1.00
C110   C     0.56305   0.86039   0.78600   0.00000  Uiso   1.00
C111   C     0.60079   0.83337   0.92983   0.00000  Uiso   1.00
C112   C     0.71975   0.83859   0.07335   0.00000  Uiso   1.00
C113   C     0.40786   0.94075   0.55723   0.00000  Uiso   1.00
C114   C     0.31514   0.98129   0.50876   0.00000  Uiso   1.00
C115   C     0.30347   0.05418   0.45974   0.00000  Uiso   1.00
H116   H     0.64208   0.94183   0.61421   0.00000  Uiso   1.00
H117   H     0.59208   0.84447   0.40665   0.00000  Uiso   1.00
H118   H     0.82085   0.92093   0.92847   0.00000  Uiso   1.00
H119   H     0.53525   0.06883   0.50747   0.00000  Uiso   1.00
H120   H     0.50216   0.72277   0.17680   0.00000  Uiso   1.00
H121   H     0.98453   0.88401   0.27709   0.00000  Uiso   1.00
H122   H     0.38228   0.19589   0.38934   0.00000  Uiso   1.00
H123   H     0.37600   0.83599   0.61580   0.00000  Uiso   1.00
H124   H     0.31140   0.73281   0.40832   0.00000  Uiso   1.00
H125   H     0.54017   0.80927   0.93014   0.00000  Uiso   1.00
H126   H     0.25457   0.95717   0.50914   0.00000  Uiso   1.00
H127   H     0.27435   0.63214   0.17815   0.00000  Uiso   1.00
H128   H     0.75672   0.79338   0.27845   0.00000  Uiso   1.00
H129   H     0.15447   0.10526   0.39069   0.00000  Uiso   1.00
O130   O     0.35059   0.61148   0.04101   0.00000  Uiso   1.00
O131   O     0.98343   0.82303   0.48455   0.00000  Uiso   1.00
O132   O     0.19329   0.23221   0.31983   0.00000  Uiso   1.00
N133   N     0.45739   0.71561   0.20556   0.00000  Uiso   1.00
N134   N     0.90838   0.86634   0.23427   0.00000  Uiso   1.00
N135   N     0.34535   0.15793   0.40434   0.00000  Uiso   1.00
N136   N     0.33481   0.66684   0.20629   0.00000  Uiso   1.00
N137   N     0.78580   0.81758   0.23499   0.00000  Uiso   1.00
N138   N     0.22276   0.10917   0.40506   0.00000  Uiso   1.00
C139   C     0.08111   0.41758   0.61456   0.00000  Uiso   1.00
C140   C     0.01704   0.35001   0.50200   0.00000  Uiso   1.00
C141   C     0.03147   0.32035   0.40697   0.00000  Uiso   1.00
C142   C     0.96475   0.25836   0.31231   0.00000  Uiso   1.00
C143   C     0.87722   0.15815   0.13753   0.00000  Uiso   1.00
C144   C     0.14135   0.39154   0.78552   0.00000  Uiso   1.00
C145   C     0.26028   0.39681   0.92887   0.00000  Uiso   1.00
C146   C     0.29819   0.36979   0.07288   0.00000  Uiso   1.00
C147   C     0.40364   0.33411   0.33828   0.00000  Uiso   1.00
C148   C     0.98617   0.47190   0.55677   0.00000  Uiso   1.00
C149   C     0.97464   0.54474   0.50782   0.00000  Uiso   1.00
C150   C     0.88191   0.58538   0.45927   0.00000  Uiso   1.00
C151   C     0.74641   0.67447   0.36950   0.00000  Uiso   1.00
C152   C     0.93696   0.36024   0.61543   0.00000  Uiso   1.00
C153   C     0.93875   0.31886   0.50248   0.00000  Uiso   1.00
C154   C     0.87198   0.25690   0.40793   0.00000  Uiso   1.00
C155   C     0.88630   0.22716   0.31277   0.00000  Uiso   1.00
C156   C     0.06305   0.36039   0.78600   0.00000  Uiso   1.00
C157   C     0.10079   0.33337   0.92983   0.00000  Uiso   1.00
C158   C     0.21975   0.33859   0.07335   0.00000  Uiso   1.00
C159   C     0.90786   0.44075   0.55723   0.00000  Uiso   1.00
C160   C     0.81514   0.48129   0.50876   0.00000  Uiso   1.00
C161   C     0.80347   0.55418   0.45974   0.00000  Uiso   1.00
H162   H     0.14208   0.44183   0.61421   0.00000  Uiso   1.00
H163   H     0.09208   0.34447   0.40665   0.00000  Uiso   1.00
H164   H     0.32085   0.42093   0.92847   0.00000  Uiso   1.00
H165   H     0.03525   0.56883   0.50747   0.00000  Uiso   1.00
H166   H     0.00216   0.22277   0.17680   0.00000  Uiso   1.00
H167   H     0.48453   0.38401   0.27709   0.00000  Uiso   1.00
H168   H     0.88228   0.69589   0.38934   0.00000  Uiso   1.00
H169   H     0.87600   0.33599   0.61580   0.00000  Uiso   1.00
H170   H     0.81140   0.23281   0.40832   0.00000  Uiso   1.00
H171   H     0.04017   0.30927   0.93014   0.00000  Uiso   1.00
H172   H     0.75457   0.45717   0.50914   0.00000  Uiso   1.00
H173   H     0.77435   0.13214   0.17815   0.00000  Uiso   1.00
H174   H     0.25672   0.29338   0.27845   0.00000  Uiso   1.00
H175   H     0.65447   0.60526   0.39069   0.00000  Uiso   1.00
O176   O     0.85059   0.11148   0.04101   0.00000  Uiso   1.00
O177   O     0.48343   0.32303   0.48455   0.00000  Uiso   1.00
O178   O     0.69329   0.73221   0.31983   0.00000  Uiso   1.00
N179   N     0.95739   0.21561   0.20556   0.00000  Uiso   1.00
N180   N     0.40838   0.36634   0.23427   0.00000  Uiso   1.00
N181   N     0.84535   0.65793   0.40434   0.00000  Uiso   1.00
N182   N     0.83481   0.16684   0.20629   0.00000  Uiso   1.00
N183   N     0.28580   0.31758   0.23499   0.00000  Uiso   1.00
N184   N     0.72276   0.60917   0.40506   0.00000  Uiso   1.00
