data_job_03581
_audit_creation_date              2018-12-19
_audit_creation_method            'Materials Studio'
_symmetry_space_group_name_H-M    'P1'
_symmetry_Int_Tables_number       1
_symmetry_cell_setting            triclinic
loop_
_symmetry_equiv_pos_as_xyz
  x,y,z
_cell_length_a                    12.0432
_cell_length_b                    15.0188
_cell_length_c                    20.7005
_cell_angle_alpha                 95.0646
_cell_angle_beta                  87.7576
_cell_angle_gamma                 68.9652
loop_
_atom_site_label
_atom_site_type_symbol
_atom_site_fract_x
_atom_site_fract_y
_atom_site_fract_z
_atom_site_U_iso_or_equiv
_atom_site_adp_type
_atom_site_occupancy
C1     C     0.98308   0.79262   0.66474   0.00000  Uiso   1.00
C2     C     0.10721   0.77066   0.63220   0.00000  Uiso   1.00
C3     C     0.18226   0.68216   0.60175   0.00000  Uiso   1.00
C4     C     0.29225   0.67680   0.57492   0.00000  Uiso   1.00
C5     C     0.47986   0.63048   0.52382   0.00000  Uiso   1.00
C6     C     0.89882   0.87510   0.63193   0.00000  Uiso   1.00
C7     C     0.79865   0.87441   0.60126   0.00000  Uiso   1.00
C8     C     0.73322   0.95697   0.57422   0.00000  Uiso   1.00
C9     C     0.59725   0.07283   0.52274   0.00000  Uiso   1.00
C10    C     0.98560   0.83344   0.73455   0.00000  Uiso   1.00
C11    C     0.95837   0.79775   0.79017   0.00000  Uiso   1.00
C12    C     0.96597   0.84526   0.84952   0.00000  Uiso   1.00
C13    C     0.96475   0.89644   0.95738   0.00000  Uiso   1.00
C14    C     0.04496   0.94047   0.67125   0.00000  Uiso   1.00
C15    C     0.14082   0.85097   0.63573   0.00000  Uiso   1.00
C16    C     0.25073   0.84574   0.60894   0.00000  Uiso   1.00
C17    C     0.32593   0.75725   0.57846   0.00000  Uiso   1.00
C18    C     0.93243   0.95540   0.63546   0.00000  Uiso   1.00
C19    C     0.86712   0.03799   0.60846   0.00000  Uiso   1.00
C20    C     0.76689   0.03743   0.57775   0.00000  Uiso   1.00
C21    C     0.01922   0.91375   0.73808   0.00000  Uiso   1.00
C22    C     0.02685   0.96133   0.79736   0.00000  Uiso   1.00
C23    C     0.99964   0.92571   0.85306   0.00000  Uiso   1.00
H24    H     0.95690   0.73011   0.66199   0.00000  Uiso   1.00
H25    H     0.15621   0.62003   0.59902   0.00000  Uiso   1.00
H26    H     0.77265   0.81226   0.59854   0.00000  Uiso   1.00
H27    H     0.93236   0.73561   0.78742   0.00000  Uiso   1.00
H28    H     0.39198   0.53341   0.53075   0.00000  Uiso   1.00
H29    H     0.58322   0.93875   0.52975   0.00000  Uiso   1.00
H30    H     0.91998   0.77711   0.92803   0.00000  Uiso   1.00
H31    H     0.07113   0.00300   0.67400   0.00000  Uiso   1.00
H32    H     0.27672   0.90790   0.61168   0.00000  Uiso   1.00
H33    H     0.89316   0.10012   0.61120   0.00000  Uiso   1.00
H34    H     0.05287   0.02347   0.80007   0.00000  Uiso   1.00
H35    H     0.48979   0.76706   0.54102   0.00000  Uiso   1.00
H36    H     0.68102   0.17239   0.54003   0.00000  Uiso   1.00
H37    H     0.01779   0.01076   0.93830   0.00000  Uiso   1.00
O38    O     0.57405   0.58276   0.49465   0.00000  Uiso   1.00
O39    O     0.51297   0.11454   0.49337   0.00000  Uiso   1.00
O40    O     0.95480   0.90248   0.01589   0.00000  Uiso   1.00
N41    N     0.38680   0.60145   0.54173   0.00000  Uiso   1.00
N42    N     0.63066   0.98041   0.54079   0.00000  Uiso   1.00
N43    N     0.94548   0.82931   0.91315   0.00000  Uiso   1.00
N44    N     0.43943   0.72717   0.54725   0.00000  Uiso   1.00
N45    N     0.68329   0.10613   0.54632   0.00000  Uiso   1.00
N46    N     0.99811   0.95503   0.91867   0.00000  Uiso   1.00
C47    C     0.01692   0.20738   0.33526   0.00000  Uiso   1.00
C48    C     0.89279   0.22934   0.36780   0.00000  Uiso   1.00
C49    C     0.81774   0.31784   0.39825   0.00000  Uiso   1.00
C50    C     0.70775   0.32320   0.42508   0.00000  Uiso   1.00
C51    C     0.52014   0.36952   0.47618   0.00000  Uiso   1.00
C52    C     0.10118   0.12490   0.36807   0.00000  Uiso   1.00
C53    C     0.20135   0.12559   0.39874   0.00000  Uiso   1.00
C54    C     0.26678   0.04303   0.42578   0.00000  Uiso   1.00
C55    C     0.40275   0.92717   0.47726   0.00000  Uiso   1.00
C56    C     0.01440   0.16656   0.26545   0.00000  Uiso   1.00
C57    C     0.04163   0.20225   0.20983   0.00000  Uiso   1.00
C58    C     0.03403   0.15474   0.15048   0.00000  Uiso   1.00
C59    C     0.03525   0.10356   0.04262   0.00000  Uiso   1.00
C60    C     0.95504   0.05953   0.32875   0.00000  Uiso   1.00
C61    C     0.85918   0.14903   0.36427   0.00000  Uiso   1.00
C62    C     0.74927   0.15426   0.39106   0.00000  Uiso   1.00
C63    C     0.67407   0.24275   0.42154   0.00000  Uiso   1.00
C64    C     0.06757   0.04460   0.36454   0.00000  Uiso   1.00
C65    C     0.13288   0.96201   0.39154   0.00000  Uiso   1.00
C66    C     0.23311   0.96257   0.42225   0.00000  Uiso   1.00
C67    C     0.98078   0.08625   0.26192   0.00000  Uiso   1.00
C68    C     0.97315   0.03867   0.20264   0.00000  Uiso   1.00
C69    C     0.00036   0.07429   0.14694   0.00000  Uiso   1.00
H70    H     0.04310   0.26989   0.33801   0.00000  Uiso   1.00
H71    H     0.84379   0.37997   0.40098   0.00000  Uiso   1.00
H72    H     0.22735   0.18774   0.40146   0.00000  Uiso   1.00
H73    H     0.06764   0.26439   0.21258   0.00000  Uiso   1.00
H74    H     0.60802   0.46659   0.46925   0.00000  Uiso   1.00
H75    H     0.41678   0.06125   0.47025   0.00000  Uiso   1.00
H76    H     0.08002   0.22289   0.07197   0.00000  Uiso   1.00
H77    H     0.92887   0.99700   0.32600   0.00000  Uiso   1.00
H78    H     0.72328   0.09210   0.38832   0.00000  Uiso   1.00
H79    H     0.10684   0.89988   0.38880   0.00000  Uiso   1.00
H80    H     0.94713   0.97653   0.19993   0.00000  Uiso   1.00
H81    H     0.51021   0.23294   0.45898   0.00000  Uiso   1.00
H82    H     0.31898   0.82761   0.45997   0.00000  Uiso   1.00
H83    H     0.98221   0.98924   0.06170   0.00000  Uiso   1.00
O84    O     0.42595   0.41724   0.50535   0.00000  Uiso   1.00
O85    O     0.48703   0.88546   0.50663   0.00000  Uiso   1.00
O86    O     0.04520   0.09752   0.98411   0.00000  Uiso   1.00
N87    N     0.61320   0.39855   0.45827   0.00000  Uiso   1.00
N88    N     0.36934   0.01959   0.45921   0.00000  Uiso   1.00
N89    N     0.05452   0.17069   0.08685   0.00000  Uiso   1.00
N90    N     0.56057   0.27283   0.45275   0.00000  Uiso   1.00
N91    N     0.31671   0.89387   0.45368   0.00000  Uiso   1.00
N92    N     0.00189   0.04497   0.08133   0.00000  Uiso   1.00
