data_job_06411
_audit_creation_date              2018-12-19
_audit_creation_method            'Materials Studio'
_symmetry_space_group_name_H-M    'P1'
_symmetry_Int_Tables_number       1
_symmetry_cell_setting            triclinic
loop_
_symmetry_equiv_pos_as_xyz
  x,y,z
_cell_length_a                    17.7336
_cell_length_b                    16.8428
_cell_length_c                    16.5945
_cell_angle_alpha                 102.0660
_cell_angle_beta                  100.8850
_cell_angle_gamma                 101.3910
loop_
_atom_site_label
_atom_site_type_symbol
_atom_site_fract_x
_atom_site_fract_y
_atom_site_fract_z
_atom_site_U_iso_or_equiv
_atom_site_adp_type
_atom_site_occupancy
C1     C     0.24883   0.91329   0.72804   0.00000  Uiso   1.00
C2     C     0.27660   0.92258   0.64819   0.00000  Uiso   1.00
C3     C     0.34693   0.90846   0.63040   0.00000  Uiso   1.00
C4     C     0.36151   0.92040   0.55393   0.00000  Uiso   1.00
C5     C     0.41284   0.93103   0.43857   0.00000  Uiso   1.00
C6     C     0.23426   0.99763   0.76691   0.00000  Uiso   1.00
C7     C     0.26899   0.04660   0.84895   0.00000  Uiso   1.00
C8     C     0.24791   0.12172   0.87242   0.00000  Uiso   1.00
C9     C     0.23347   0.24884   0.94140   0.00000  Uiso   1.00
C10    C     0.16768   0.85142   0.69763   0.00000  Uiso   1.00
C11    C     0.14641   0.77747   0.72144   0.00000  Uiso   1.00
C12    C     0.06926   0.72950   0.68660   0.00000  Uiso   1.00
C13    C     0.95144   0.62961   0.64801   0.00000  Uiso   1.00
C14    C     0.14966   0.95961   0.62386   0.00000  Uiso   1.00
C15    C     0.22274   0.94774   0.59161   0.00000  Uiso   1.00
C16    C     0.23721   0.95970   0.51514   0.00000  Uiso   1.00
C17    C     0.30754   0.94560   0.49724   0.00000  Uiso   1.00
C18    C     0.18040   0.02279   0.71033   0.00000  Uiso   1.00
C19    C     0.15927   0.09785   0.73369   0.00000  Uiso   1.00
C20    C     0.19395   0.14692   0.81573   0.00000  Uiso   1.00
C21    C     0.11381   0.87658   0.64105   0.00000  Uiso   1.00
C22    C     0.03669   0.82872   0.60617   0.00000  Uiso   1.00
C23    C     0.01530   0.75471   0.62991   0.00000  Uiso   1.00
H24    H     0.29077   0.89371   0.77210   0.00000  Uiso   1.00
H25    H     0.38860   0.88900   0.67421   0.00000  Uiso   1.00
H26    H     0.31066   0.02712   0.89272   0.00000  Uiso   1.00
H27    H     0.18811   0.75803   0.76523   0.00000  Uiso   1.00
H28    H     0.47333   0.89489   0.54075   0.00000  Uiso   1.00
H29    H     0.30897   0.18611   0.00150   0.00000  Uiso   1.00
H30    H     0.05053   0.61868   0.73265   0.00000  Uiso   1.00
H31    H     0.10772   0.97920   0.57981   0.00000  Uiso   1.00
H32    H     0.19551   0.97917   0.47137   0.00000  Uiso   1.00
H33    H     0.11758   0.11729   0.68988   0.00000  Uiso   1.00
H34    H     0.99502   0.84820   0.56239   0.00000  Uiso   1.00
H35    H     0.31661   0.96808   0.37611   0.00000  Uiso   1.00
H36    H     0.15225   0.25930   0.83687   0.00000  Uiso   1.00
H37    H     0.89381   0.69187   0.56802   0.00000  Uiso   1.00
O38    O     0.45603   0.92995   0.39058   0.00000  Uiso   1.00
O39    O     0.24039   0.31201   0.99507   0.00000  Uiso   1.00
O40    O     0.90133   0.56756   0.64235   0.00000  Uiso   1.00
N41    N     0.42439   0.91210   0.51688   0.00000  Uiso   1.00
N42    N     0.27073   0.18438   0.94765   0.00000  Uiso   1.00
N43    N     0.02911   0.65390   0.69632   0.00000  Uiso   1.00
N44    N     0.34006   0.95148   0.42829   0.00000  Uiso   1.00
N45    N     0.18640   0.22377   0.85906   0.00000  Uiso   1.00
N46    N     0.94478   0.69328   0.60773   0.00000  Uiso   1.00
C47    C     0.72246   0.24741   0.91113   0.00000  Uiso   1.00
C48    C     0.64937   0.27873   0.92349   0.00000  Uiso   1.00
C49    C     0.63494   0.35388   0.91116   0.00000  Uiso   1.00
C50    C     0.56460   0.37110   0.92584   0.00000  Uiso   1.00
C51    C     0.45933   0.42825   0.94110   0.00000  Uiso   1.00
C52    C     0.75821   0.23103   0.99531   0.00000  Uiso   1.00
C53    C     0.83531   0.26608   0.04336   0.00000  Uiso   1.00
C54    C     0.85659   0.24314   0.11850   0.00000  Uiso   1.00
C55    C     0.92032   0.22621   0.24525   0.00000  Uiso   1.00
C56    C     0.69176   0.16185   0.84748   0.00000  Uiso   1.00
C57    C     0.71300   0.13871   0.77125   0.00000  Uiso   1.00
C58    C     0.67835   0.05751   0.72193   0.00000  Uiso   1.00
C59    C     0.63891   0.93316   0.61915   0.00000  Uiso   1.00
C60    C     0.62318   0.14434   0.95912   0.00000  Uiso   1.00
C61    C     0.59544   0.22274   0.94956   0.00000  Uiso   1.00
C62    C     0.52510   0.23985   0.96426   0.00000  Uiso   1.00
C63    C     0.51058   0.31501   0.95195   0.00000  Uiso   1.00
C64    C     0.70429   0.17505   0.02138   0.00000  Uiso   1.00
C65    C     0.72547   0.15205   0.09646   0.00000  Uiso   1.00
C66    C     0.80257   0.18706   0.14462   0.00000  Uiso   1.00
C67    C     0.63784   0.10587   0.87355   0.00000  Uiso   1.00
C68    C     0.60316   0.02469   0.82434   0.00000  Uiso   1.00
C69    C     0.62433   0.00143   0.74805   0.00000  Uiso   1.00
H70    H     0.76444   0.29099   0.89084   0.00000  Uiso   1.00
H71    H     0.67669   0.39719   0.89099   0.00000  Uiso   1.00
H72    H     0.87702   0.30939   0.02317   0.00000  Uiso   1.00
H73    H     0.75473   0.18205   0.75109   0.00000  Uiso   1.00
H74    H     0.55564   0.49025   0.90269   0.00000  Uiso   1.00
H75    H     0.97806   0.30511   0.18138   0.00000  Uiso   1.00
H76    H     0.72019   0.03658   0.60766   0.00000  Uiso   1.00
H77    H     0.58120   0.10076   0.97942   0.00000  Uiso   1.00
H78    H     0.48339   0.19651   0.98443   0.00000  Uiso   1.00
H79    H     0.68372   0.10872   0.11661   0.00000  Uiso   1.00
H80    H     0.56143   0.98138   0.84454   0.00000  Uiso   1.00
H81    H     0.39875   0.32738   0.97853   0.00000  Uiso   1.00
H82    H     0.82117   0.14224   0.25722   0.00000  Uiso   1.00
H83    H     0.56329   0.87371   0.68350   0.00000  Uiso   1.00
O84    O     0.41617   0.47525   0.94233   0.00000  Uiso   1.00
O85    O     0.97037   0.23234   0.30796   0.00000  Uiso   1.00
O86    O     0.63205   0.88004   0.55525   0.00000  Uiso   1.00
N87    N     0.53213   0.43877   0.91983   0.00000  Uiso   1.00
N88    N     0.92706   0.26569   0.18040   0.00000  Uiso   1.00
N89    N     0.68599   0.01463   0.64403   0.00000  Uiso   1.00
N90    N     0.44771   0.35113   0.96064   0.00000  Uiso   1.00
N91    N     0.84264   0.17804   0.22121   0.00000  Uiso   1.00
N92    N     0.60157   0.92698   0.68484   0.00000  Uiso   1.00
C93    C     0.91329   0.72695   0.24899   0.00000  Uiso   1.00
C94    C     0.92265   0.64898   0.27888   0.00000  Uiso   1.00
C95    C     0.91098   0.63391   0.35525   0.00000  Uiso   1.00
C96    C     0.92253   0.55882   0.37081   0.00000  Uiso   1.00
C97    C     0.93369   0.44657   0.42618   0.00000  Uiso   1.00
C98    C     0.99225   0.76306   0.23064   0.00000  Uiso   1.00
C99    C     0.03910   0.84391   0.26645   0.00000  Uiso   1.00
C100   C     0.10925   0.86484   0.24140   0.00000  Uiso   1.00
C101   C     0.22844   0.92973   0.22183   0.00000  Uiso   1.00
C102   C     0.85326   0.69578   0.16333   0.00000  Uiso   1.00
C103   C     0.78325   0.72008   0.14253   0.00000  Uiso   1.00
C104   C     0.73638   0.68437   0.06080   0.00000  Uiso   1.00
C105   C     0.63976   0.64479   0.93672   0.00000  Uiso   1.00
C106   C     0.95455   0.62036   0.14083   0.00000  Uiso   1.00
C107   C     0.94506   0.59109   0.22013   0.00000  Uiso   1.00
C108   C     0.95663   0.51599   0.23558   0.00000  Uiso   1.00
C109   C     0.94498   0.50081   0.31196   0.00000  Uiso   1.00
C110   C     0.01467   0.70517   0.17190   0.00000  Uiso   1.00
C111   C     0.08476   0.72599   0.14678   0.00000  Uiso   1.00
C112   C     0.13170   0.80685   0.18254   0.00000  Uiso   1.00
C113   C     0.87567   0.63788   0.10458   0.00000  Uiso   1.00
C114   C     0.82890   0.60214   0.02287   0.00000  Uiso   1.00
C115   C     0.75883   0.62638   0.00194   0.00000  Uiso   1.00
H116   H     0.89585   0.77203   0.29473   0.00000  Uiso   1.00
H117   H     0.89364   0.67874   0.40070   0.00000  Uiso   1.00
H118   H     0.02174   0.88870   0.31190   0.00000  Uiso   1.00
H119   H     0.76592   0.76488   0.18801   0.00000  Uiso   1.00
H120   H     0.90111   0.54979   0.49229   0.00000  Uiso   1.00
H121   H     0.17120   0.99252   0.30504   0.00000  Uiso   1.00
H122   H     0.63176   0.73142   0.04378   0.00000  Uiso   1.00
H123   H     0.97201   0.57529   0.09509   0.00000  Uiso   1.00
H124   H     0.97398   0.47120   0.19010   0.00000  Uiso   1.00
H125   H     0.10208   0.68117   0.10131   0.00000  Uiso   1.00
H126   H     0.84626   0.55735   0.97742   0.00000  Uiso   1.00
H127   H     0.96632   0.38135   0.32137   0.00000  Uiso   1.00
H128   H     0.23641   0.82408   0.13412   0.00000  Uiso   1.00
H129   H     0.69697   0.56298   0.87286   0.00000  Uiso   1.00
O130   O     0.93366   0.40066   0.47295   0.00000  Uiso   1.00
O131   O     0.28800   0.98151   0.22727   0.00000  Uiso   1.00
O132   O     0.58027   0.63894   0.88451   0.00000  Uiso   1.00
N133   N     0.91617   0.52443   0.43902   0.00000  Uiso   1.00
N134   N     0.16869   0.93835   0.26396   0.00000  Uiso   1.00
N135   N     0.66437   0.69426   0.01970   0.00000  Uiso   1.00
N136   N     0.95126   0.43379   0.34704   0.00000  Uiso   1.00
N137   N     0.20378   0.84771   0.17199   0.00000  Uiso   1.00
N138   N     0.69946   0.60362   0.92773   0.00000  Uiso   1.00
C139   C     0.74895   0.22690   0.41298   0.00000  Uiso   1.00
C140   C     0.77659   0.14846   0.42257   0.00000  Uiso   1.00
C141   C     0.84691   0.13127   0.40791   0.00000  Uiso   1.00
C142   C     0.86136   0.05609   0.42025   0.00000  Uiso   1.00
C143   C     0.91250   0.94281   0.43122   0.00000  Uiso   1.00
C144   C     0.73431   0.26543   0.49855   0.00000  Uiso   1.00
C145   C     0.76908   0.34660   0.54776   0.00000  Uiso   1.00
C146   C     0.74793   0.36989   0.62407   0.00000  Uiso   1.00
C147   C     0.73340   0.43824   0.75297   0.00000  Uiso   1.00
C148   C     0.66784   0.19627   0.35072   0.00000  Uiso   1.00
C149   C     0.64671   0.21931   0.27565   0.00000  Uiso   1.00
C150   C     0.56958   0.18439   0.22750   0.00000  Uiso   1.00
C151   C     0.45185   0.14535   0.12687   0.00000  Uiso   1.00
C152   C     0.64956   0.12396   0.46097   0.00000  Uiso   1.00
C153   C     0.72260   0.09254   0.44864   0.00000  Uiso   1.00
C154   C     0.73694   0.01737   0.46101   0.00000  Uiso   1.00
C155   C     0.80727   0.00008   0.44637   0.00000  Uiso   1.00
C156   C     0.68033   0.20952   0.52462   0.00000  Uiso   1.00
C157   C     0.65911   0.23270   0.60087   0.00000  Uiso   1.00
C158   C     0.69385   0.31388   0.65019   0.00000  Uiso   1.00
C159   C     0.61385   0.14036   0.37679   0.00000  Uiso   1.00
C160   C     0.53675   0.10540   0.32875   0.00000  Uiso   1.00
C161   C     0.51550   0.12837   0.25362   0.00000  Uiso   1.00
H162   H     0.79098   0.27044   0.39269   0.00000  Uiso   1.00
H163   H     0.88868   0.17456   0.38774   0.00000  Uiso   1.00
H164   H     0.81085   0.38986   0.52757   0.00000  Uiso   1.00
H165   H     0.68850   0.26258   0.25549   0.00000  Uiso   1.00
H166   H     0.97320   0.04362   0.39378   0.00000  Uiso   1.00
H167   H     0.80908   0.49759   0.68861   0.00000  Uiso   1.00
H168   H     0.55108   0.22920   0.11489   0.00000  Uiso   1.00
H169   H     0.60752   0.08042   0.48127   0.00000  Uiso   1.00
H170   H     0.69516   0.97411   0.48118   0.00000  Uiso   1.00
H171   H     0.61733   0.18942   0.62102   0.00000  Uiso   1.00
H172   H     0.49498   0.06214   0.34894   0.00000  Uiso   1.00
H173   H     0.81613   0.88093   0.46963   0.00000  Uiso   1.00
H174   H     0.65201   0.33491   0.76446   0.00000  Uiso   1.00
H175   H     0.39401   0.06652   0.19073   0.00000  Uiso   1.00
O176   O     0.95563   0.89578   0.43008   0.00000  Uiso   1.00
O177   O     0.74030   0.49139   0.81687   0.00000  Uiso   1.00
O178   O     0.40182   0.13926   0.06416   0.00000  Uiso   1.00
N179   N     0.92420   0.01991   0.41163   0.00000  Uiso   1.00
N180   N     0.77077   0.44435   0.68728   0.00000  Uiso   1.00
N181   N     0.52955   0.19344   0.15091   0.00000  Uiso   1.00
N182   N     0.83968   0.93237   0.45244   0.00000  Uiso   1.00
N183   N     0.68625   0.35681   0.72809   0.00000  Uiso   1.00
N184   N     0.44504   0.10590   0.19172   0.00000  Uiso   1.00
C185   C     0.22244   0.41154   0.74708   0.00000  Uiso   1.00
C186   C     0.14932   0.42344   0.77923   0.00000  Uiso   1.00
C187   C     0.13477   0.41151   0.85568   0.00000  Uiso   1.00
C188   C     0.06442   0.42565   0.87350   0.00000  Uiso   1.00
C189   C     0.95909   0.44034   0.93206   0.00000  Uiso   1.00
C190   C     0.25834   0.49457   0.72991   0.00000  Uiso   1.00
C191   C     0.33546   0.54245   0.76489   0.00000  Uiso   1.00
C192   C     0.35688   0.61646   0.74117   0.00000  Uiso   1.00
C193   C     0.42082   0.74155   0.72312   0.00000  Uiso   1.00
C194   C     0.19178   0.34836   0.66061   0.00000  Uiso   1.00
C195   C     0.21294   0.27331   0.63730   0.00000  Uiso   1.00
C196   C     0.17834   0.22424   0.55523   0.00000  Uiso   1.00
C197   C     0.13893   0.12232   0.42958   0.00000  Uiso   1.00
C198   C     0.12338   0.45785   0.64277   0.00000  Uiso   1.00
C199   C     0.09552   0.44859   0.72258   0.00000  Uiso   1.00
C200   C     0.02517   0.46275   0.74028   0.00000  Uiso   1.00
C201   C     0.01052   0.45085   0.81674   0.00000  Uiso   1.00
C202   C     0.20454   0.51973   0.67326   0.00000  Uiso   1.00
C203   C     0.22586   0.59369   0.64949   0.00000  Uiso   1.00
C204   C     0.30298   0.64167   0.68442   0.00000  Uiso   1.00
C205   C     0.13797   0.37352   0.60396   0.00000  Uiso   1.00
C206   C     0.10334   0.32455   0.52191   0.00000  Uiso   1.00
C207   C     0.12444   0.24944   0.49848   0.00000  Uiso   1.00
H208   H     0.26433   0.39196   0.79118   0.00000  Uiso   1.00
H209   H     0.17643   0.39205   0.89951   0.00000  Uiso   1.00
H210   H     0.37708   0.52296   0.80872   0.00000  Uiso   1.00
H211   H     0.25458   0.25387   0.68116   0.00000  Uiso   1.00
H212   H     0.05526   0.40328   0.99464   0.00000  Uiso   1.00
H213   H     0.47835   0.67929   0.80318   0.00000  Uiso   1.00
H214   H     0.22004   0.11186   0.53419   0.00000  Uiso   1.00
H215   H     0.08149   0.47744   0.59867   0.00000  Uiso   1.00
H216   H     0.98355   0.48222   0.69643   0.00000  Uiso   1.00
H217   H     0.18421   0.61313   0.60564   0.00000  Uiso   1.00
H218   H     0.06171   0.34404   0.47808   0.00000  Uiso   1.00
H219   H     0.89871   0.47647   0.82981   0.00000  Uiso   1.00
H220   H     0.32181   0.75248   0.63836   0.00000  Uiso   1.00
H221   H     0.06349   0.18504   0.36937   0.00000  Uiso   1.00
O222   O     0.91586   0.44150   0.98002   0.00000  Uiso   1.00
O223   O     0.47095   0.80361   0.72883   0.00000  Uiso   1.00
O224   O     0.13205   0.05915   0.37593   0.00000  Uiso   1.00
N225   N     0.03185   0.41983   0.94242   0.00000  Uiso   1.00
N226   N     0.42741   0.67789   0.76343   0.00000  Uiso   1.00
N227   N     0.18593   0.14740   0.51194   0.00000  Uiso   1.00
N228   N     0.94761   0.45921   0.85373   0.00000  Uiso   1.00
N229   N     0.34318   0.71727   0.67474   0.00000  Uiso   1.00
N230   N     0.10169   0.18678   0.42325   0.00000  Uiso   1.00
C231   C     0.41319   0.74921   0.22810   0.00000  Uiso   1.00
C232   C     0.42271   0.77839   0.14875   0.00000  Uiso   1.00
C233   C     0.41117   0.85347   0.13322   0.00000  Uiso   1.00
C234   C     0.42286   0.86856   0.05683   0.00000  Uiso   1.00
C235   C     0.43426   0.92270   0.94257   0.00000  Uiso   1.00
C236   C     0.49208   0.73172   0.26440   0.00000  Uiso   1.00
C237   C     0.53886   0.76755   0.34611   0.00000  Uiso   1.00
C238   C     0.60894   0.74335   0.36707   0.00000  Uiso   1.00
C239   C     0.72801   0.72498   0.43238   0.00000  Uiso   1.00
C240   C     0.35308   0.66441   0.19712   0.00000  Uiso   1.00
C241   C     0.28300   0.64364   0.22227   0.00000  Uiso   1.00
C242   C     0.23607   0.56276   0.18659   0.00000  Uiso   1.00
C243   C     0.13932   0.43989   0.14743   0.00000  Uiso   1.00
C244   C     0.45446   0.64251   0.12007   0.00000  Uiso   1.00
C245   C     0.44512   0.72043   0.09008   0.00000  Uiso   1.00
C246   C     0.45682   0.73541   0.01369   0.00000  Uiso   1.00
C247   C     0.44531   0.81050   0.99804   0.00000  Uiso   1.00
C248   C     0.51449   0.67376   0.20573   0.00000  Uiso   1.00
C249   C     0.58451   0.64949   0.22658   0.00000  Uiso   1.00
C250   C     0.63139   0.68528   0.30829   0.00000  Uiso   1.00
C251   C     0.37549   0.60645   0.13843   0.00000  Uiso   1.00
C252   C     0.32866   0.52559   0.10273   0.00000  Uiso   1.00
C253   C     0.25852   0.50470   0.12781   0.00000  Uiso   1.00
H254   H     0.39575   0.79434   0.27379   0.00000  Uiso   1.00
H255   H     0.39383   0.89831   0.17865   0.00000  Uiso   1.00
H256   H     0.52150   0.81239   0.39151   0.00000  Uiso   1.00
H257   H     0.26568   0.68851   0.26768   0.00000  Uiso   1.00
H258   H     0.40162   0.98803   0.04731   0.00000  Uiso   1.00
H259   H     0.67080   0.80686   0.49613   0.00000  Uiso   1.00
H260   H     0.13136   0.54562   0.23502   0.00000  Uiso   1.00
H261   H     0.47191   0.59738   0.07438   0.00000  Uiso   1.00
H262   H     0.47417   0.69055   0.96829   0.00000  Uiso   1.00
H263   H     0.60184   0.60464   0.18115   0.00000  Uiso   1.00
H264   H     0.34602   0.48075   0.05732   0.00000  Uiso   1.00
H265   H     0.46683   0.81941   0.87657   0.00000  Uiso   1.00
H266   H     0.73600   0.63824   0.32540   0.00000  Uiso   1.00
H267   H     0.19656   0.37700   0.06428   0.00000  Uiso   1.00
O268   O     0.43437   0.96857   0.89576   0.00000  Uiso   1.00
O269   O     0.78750   0.73087   0.48461   0.00000  Uiso   1.00
O270   O     0.07977   0.38814   0.14203   0.00000  Uiso   1.00
N271   N     0.41664   0.93555   0.02167   0.00000  Uiso   1.00
N272   N     0.66831   0.76618   0.44130   0.00000  Uiso   1.00
N273   N     0.16399   0.52194   0.19719   0.00000  Uiso   1.00
N274   N     0.45173   0.84482   0.92980   0.00000  Uiso   1.00
N275   N     0.70340   0.67544   0.34943   0.00000  Uiso   1.00
N276   N     0.19908   0.43120   0.10532   0.00000  Uiso   1.00
