data_job_00883
_audit_creation_date              2018-12-19
_audit_creation_method            'Materials Studio'
_symmetry_space_group_name_H-M    'P1'
_symmetry_Int_Tables_number       1
_symmetry_cell_setting            triclinic
loop_
_symmetry_equiv_pos_as_xyz
  x,y,z
_cell_length_a                    30.6216
_cell_length_b                    7.4157
_cell_length_c                    23.3651
_cell_angle_alpha                 90.0000
_cell_angle_beta                  149.2838
_cell_angle_gamma                 90.0000
loop_
_atom_site_label
_atom_site_type_symbol
_atom_site_fract_x
_atom_site_fract_y
_atom_site_fract_z
_atom_site_U_iso_or_equiv
_atom_site_adp_type
_atom_site_occupancy
C1     C     0.66962   0.23546   0.34115   0.00000  Uiso   1.00
C2     C     0.73582   0.28865   0.37090   0.00000  Uiso   1.00
C3     C     0.76394   0.18090   0.35782   0.00000  Uiso   1.00
C4     C     0.82485   0.25424   0.39003   0.00000  Uiso   1.00
C5     C     0.92287   0.31020   0.42964   0.00000  Uiso   1.00
C6     C     0.71311   0.25962   0.44806   0.00000  Uiso   1.00
C7     C     0.72212   0.12746   0.49983   0.00000  Uiso   1.00
C8     C     0.76390   0.17639   0.59699   0.00000  Uiso   1.00
C9     C     0.82661   0.18731   0.75633   0.00000  Uiso   1.00
C10    C     0.59979   0.37869   0.25965   0.00000  Uiso   1.00
C11    C     0.51352   0.34665   0.15301   0.00000  Uiso   1.00
C12    C     0.45989   0.49583   0.09154   0.00000  Uiso   1.00
C13    C     0.34666   0.69163   0.95834   0.00000  Uiso   1.00
C14    C     0.72780   0.55735   0.42163   0.00000  Uiso   1.00
C15    C     0.76742   0.46349   0.41462   0.00000  Uiso   1.00
C16    C     0.82831   0.53702   0.44686   0.00000  Uiso   1.00
C17    C     0.85651   0.42940   0.43382   0.00000  Uiso   1.00
C18    C     0.74471   0.43445   0.49178   0.00000  Uiso   1.00
C19    C     0.78649   0.48359   0.58887   0.00000  Uiso   1.00
C20    C     0.79556   0.35154   0.64078   0.00000  Uiso   1.00
C21    C     0.63139   0.55353   0.30336   0.00000  Uiso   1.00
C22    C     0.57789   0.70278   0.24205   0.00000  Uiso   1.00
C23    C     0.49155   0.67098   0.13533   0.00000  Uiso   1.00
H24    H     0.64501   0.09934   0.30712   0.00000  Uiso   1.00
H25    H     0.73947   0.04559   0.32399   0.00000  Uiso   1.00
H26    H     0.69765   0.99218   0.46598   0.00000  Uiso   1.00
H27    H     0.48909   0.21134   0.11921   0.00000  Uiso   1.00
H28    H     0.85815   0.06308   0.36202   0.00000  Uiso   1.00
H29    H     0.76995   0.95046   0.66138   0.00000  Uiso   1.00
H30    H     0.33014   0.41261   0.93014   0.00000  Uiso   1.00
H31    H     0.75240   0.69347   0.45567   0.00000  Uiso   1.00
H32    H     0.85275   0.67232   0.48069   0.00000  Uiso   1.00
H33    H     0.81093   0.61890   0.62267   0.00000  Uiso   1.00
H34    H     0.60237   0.83806   0.27590   0.00000  Uiso   1.00
H35    H     0.95010   0.57175   0.48920   0.00000  Uiso   1.00
H36    H     0.86189   0.45914   0.78856   0.00000  Uiso   1.00
H37    H     0.42209   0.92128   0.05732   0.00000  Uiso   1.00
O38    O     0.96822   0.29276   0.43942   0.00000  Uiso   1.00
O39    O     0.85248   0.14502   0.83216   0.00000  Uiso   1.00
O40    O     0.27548   0.75134   0.87279   0.00000  Uiso   1.00
N41    N     0.86600   0.18571   0.38849   0.00000  Uiso   1.00
N42    N     0.78355   0.08041   0.66839   0.00000  Uiso   1.00
N43    N     0.37237   0.51247   0.98476   0.00000  Uiso   1.00
N44    N     0.91548   0.45942   0.45693   0.00000  Uiso   1.00
N45    N     0.83303   0.35413   0.73682   0.00000  Uiso   1.00
N46    N     0.42185   0.78619   0.05319   0.00000  Uiso   1.00
C47    C     0.33038   0.23546   0.15885   0.00000  Uiso   1.00
C48    C     0.26418   0.28865   0.12910   0.00000  Uiso   1.00
C49    C     0.23606   0.18090   0.14218   0.00000  Uiso   1.00
C50    C     0.17515   0.25424   0.10997   0.00000  Uiso   1.00
C51    C     0.07713   0.31020   0.07036   0.00000  Uiso   1.00
C52    C     0.28689   0.25962   0.05194   0.00000  Uiso   1.00
C53    C     0.27788   0.12746   0.00017   0.00000  Uiso   1.00
C54    C     0.23610   0.17639   0.90301   0.00000  Uiso   1.00
C55    C     0.17339   0.18731   0.74367   0.00000  Uiso   1.00
C56    C     0.40021   0.37869   0.24035   0.00000  Uiso   1.00
C57    C     0.48648   0.34665   0.34699   0.00000  Uiso   1.00
C58    C     0.54011   0.49583   0.40846   0.00000  Uiso   1.00
C59    C     0.65334   0.69163   0.54166   0.00000  Uiso   1.00
C60    C     0.27220   0.55735   0.07837   0.00000  Uiso   1.00
C61    C     0.23258   0.46349   0.08538   0.00000  Uiso   1.00
C62    C     0.17169   0.53702   0.05314   0.00000  Uiso   1.00
C63    C     0.14349   0.42940   0.06618   0.00000  Uiso   1.00
C64    C     0.25529   0.43445   0.00822   0.00000  Uiso   1.00
C65    C     0.21351   0.48359   0.91113   0.00000  Uiso   1.00
C66    C     0.20444   0.35154   0.85922   0.00000  Uiso   1.00
C67    C     0.36861   0.55353   0.19664   0.00000  Uiso   1.00
C68    C     0.42211   0.70278   0.25795   0.00000  Uiso   1.00
C69    C     0.50845   0.67098   0.36467   0.00000  Uiso   1.00
H70    H     0.35499   0.09934   0.19288   0.00000  Uiso   1.00
H71    H     0.26053   0.04559   0.17601   0.00000  Uiso   1.00
H72    H     0.30235   0.99218   0.03402   0.00000  Uiso   1.00
H73    H     0.51091   0.21134   0.38079   0.00000  Uiso   1.00
H74    H     0.14185   0.06308   0.13798   0.00000  Uiso   1.00
H75    H     0.23005   0.95046   0.83862   0.00000  Uiso   1.00
H76    H     0.66986   0.41261   0.56986   0.00000  Uiso   1.00
H77    H     0.24760   0.69347   0.04433   0.00000  Uiso   1.00
H78    H     0.14725   0.67232   0.01931   0.00000  Uiso   1.00
H79    H     0.18907   0.61890   0.87733   0.00000  Uiso   1.00
H80    H     0.39763   0.83806   0.22410   0.00000  Uiso   1.00
H81    H     0.04990   0.57175   0.01080   0.00000  Uiso   1.00
H82    H     0.13811   0.45914   0.71144   0.00000  Uiso   1.00
H83    H     0.57791   0.92128   0.44268   0.00000  Uiso   1.00
O84    O     0.03178   0.29276   0.06058   0.00000  Uiso   1.00
O85    O     0.14752   0.14502   0.66784   0.00000  Uiso   1.00
O86    O     0.72452   0.75134   0.62721   0.00000  Uiso   1.00
N87    N     0.13400   0.18571   0.11151   0.00000  Uiso   1.00
N88    N     0.21645   0.08041   0.83161   0.00000  Uiso   1.00
N89    N     0.62763   0.51247   0.51524   0.00000  Uiso   1.00
N90    N     0.08452   0.45942   0.04307   0.00000  Uiso   1.00
N91    N     0.16697   0.35413   0.76318   0.00000  Uiso   1.00
N92    N     0.57815   0.78619   0.44681   0.00000  Uiso   1.00
C93    C     0.33038   0.76454   0.65885   0.00000  Uiso   1.00
C94    C     0.26418   0.71135   0.62910   0.00000  Uiso   1.00
C95    C     0.23606   0.81910   0.64218   0.00000  Uiso   1.00
C96    C     0.17515   0.74576   0.60997   0.00000  Uiso   1.00
C97    C     0.07713   0.68980   0.57036   0.00000  Uiso   1.00
C98    C     0.28689   0.74038   0.55194   0.00000  Uiso   1.00
C99    C     0.27788   0.87254   0.50017   0.00000  Uiso   1.00
C100   C     0.23610   0.82361   0.40301   0.00000  Uiso   1.00
C101   C     0.17339   0.81269   0.24367   0.00000  Uiso   1.00
C102   C     0.40021   0.62131   0.74035   0.00000  Uiso   1.00
C103   C     0.48648   0.65335   0.84699   0.00000  Uiso   1.00
C104   C     0.54011   0.50417   0.90846   0.00000  Uiso   1.00
C105   C     0.65334   0.30837   0.04166   0.00000  Uiso   1.00
C106   C     0.27220   0.44265   0.57837   0.00000  Uiso   1.00
C107   C     0.23258   0.53651   0.58538   0.00000  Uiso   1.00
C108   C     0.17169   0.46298   0.55314   0.00000  Uiso   1.00
C109   C     0.14349   0.57060   0.56618   0.00000  Uiso   1.00
C110   C     0.25529   0.56555   0.50822   0.00000  Uiso   1.00
C111   C     0.21351   0.51641   0.41113   0.00000  Uiso   1.00
C112   C     0.20444   0.64846   0.35922   0.00000  Uiso   1.00
C113   C     0.36861   0.44647   0.69664   0.00000  Uiso   1.00
C114   C     0.42211   0.29722   0.75795   0.00000  Uiso   1.00
C115   C     0.50845   0.32902   0.86467   0.00000  Uiso   1.00
H116   H     0.35499   0.90066   0.69288   0.00000  Uiso   1.00
H117   H     0.26053   0.95441   0.67601   0.00000  Uiso   1.00
H118   H     0.30235   0.00782   0.53402   0.00000  Uiso   1.00
H119   H     0.51091   0.78866   0.88079   0.00000  Uiso   1.00
H120   H     0.14185   0.93692   0.63798   0.00000  Uiso   1.00
H121   H     0.23005   0.04954   0.33862   0.00000  Uiso   1.00
H122   H     0.66986   0.58739   0.06986   0.00000  Uiso   1.00
H123   H     0.24760   0.30653   0.54433   0.00000  Uiso   1.00
H124   H     0.14725   0.32768   0.51931   0.00000  Uiso   1.00
H125   H     0.18907   0.38110   0.37733   0.00000  Uiso   1.00
H126   H     0.39763   0.16194   0.72410   0.00000  Uiso   1.00
H127   H     0.04990   0.42825   0.51080   0.00000  Uiso   1.00
H128   H     0.13811   0.54086   0.21144   0.00000  Uiso   1.00
H129   H     0.57791   0.07872   0.94268   0.00000  Uiso   1.00
O130   O     0.03178   0.70724   0.56058   0.00000  Uiso   1.00
O131   O     0.14752   0.85498   0.16784   0.00000  Uiso   1.00
O132   O     0.72452   0.24866   0.12721   0.00000  Uiso   1.00
N133   N     0.13400   0.81429   0.61151   0.00000  Uiso   1.00
N134   N     0.21645   0.91959   0.33161   0.00000  Uiso   1.00
N135   N     0.62763   0.48753   0.01524   0.00000  Uiso   1.00
N136   N     0.08452   0.54058   0.54307   0.00000  Uiso   1.00
N137   N     0.16697   0.64587   0.26318   0.00000  Uiso   1.00
N138   N     0.57815   0.21381   0.94681   0.00000  Uiso   1.00
C139   C     0.66962   0.76454   0.84115   0.00000  Uiso   1.00
C140   C     0.73582   0.71135   0.87090   0.00000  Uiso   1.00
C141   C     0.76394   0.81910   0.85782   0.00000  Uiso   1.00
C142   C     0.82485   0.74576   0.89003   0.00000  Uiso   1.00
C143   C     0.92287   0.68980   0.92964   0.00000  Uiso   1.00
C144   C     0.71311   0.74038   0.94806   0.00000  Uiso   1.00
C145   C     0.72212   0.87254   0.99983   0.00000  Uiso   1.00
C146   C     0.76390   0.82361   0.09699   0.00000  Uiso   1.00
C147   C     0.82661   0.81269   0.25633   0.00000  Uiso   1.00
C148   C     0.59979   0.62131   0.75965   0.00000  Uiso   1.00
C149   C     0.51352   0.65335   0.65301   0.00000  Uiso   1.00
C150   C     0.45989   0.50417   0.59154   0.00000  Uiso   1.00
C151   C     0.34666   0.30837   0.45834   0.00000  Uiso   1.00
C152   C     0.72780   0.44265   0.92163   0.00000  Uiso   1.00
C153   C     0.76742   0.53651   0.91462   0.00000  Uiso   1.00
C154   C     0.82831   0.46298   0.94686   0.00000  Uiso   1.00
C155   C     0.85651   0.57060   0.93382   0.00000  Uiso   1.00
C156   C     0.74471   0.56555   0.99178   0.00000  Uiso   1.00
C157   C     0.78649   0.51641   0.08887   0.00000  Uiso   1.00
C158   C     0.79556   0.64846   0.14078   0.00000  Uiso   1.00
C159   C     0.63139   0.44647   0.80336   0.00000  Uiso   1.00
C160   C     0.57789   0.29722   0.74205   0.00000  Uiso   1.00
C161   C     0.49155   0.32902   0.63533   0.00000  Uiso   1.00
H162   H     0.64501   0.90066   0.80712   0.00000  Uiso   1.00
H163   H     0.73947   0.95441   0.82399   0.00000  Uiso   1.00
H164   H     0.69765   0.00782   0.96598   0.00000  Uiso   1.00
H165   H     0.48909   0.78866   0.61921   0.00000  Uiso   1.00
H166   H     0.85815   0.93692   0.86202   0.00000  Uiso   1.00
H167   H     0.76995   0.04954   0.16138   0.00000  Uiso   1.00
H168   H     0.33014   0.58739   0.43014   0.00000  Uiso   1.00
H169   H     0.75240   0.30653   0.95567   0.00000  Uiso   1.00
H170   H     0.85275   0.32768   0.98069   0.00000  Uiso   1.00
H171   H     0.81093   0.38110   0.12267   0.00000  Uiso   1.00
H172   H     0.60237   0.16194   0.77590   0.00000  Uiso   1.00
H173   H     0.95010   0.42825   0.98920   0.00000  Uiso   1.00
H174   H     0.86189   0.54086   0.28856   0.00000  Uiso   1.00
H175   H     0.42209   0.07872   0.55732   0.00000  Uiso   1.00
O176   O     0.96822   0.70724   0.93942   0.00000  Uiso   1.00
O177   O     0.85248   0.85498   0.33216   0.00000  Uiso   1.00
O178   O     0.27548   0.24866   0.37279   0.00000  Uiso   1.00
N179   N     0.86600   0.81429   0.88849   0.00000  Uiso   1.00
N180   N     0.78355   0.91959   0.16839   0.00000  Uiso   1.00
N181   N     0.37237   0.48753   0.48476   0.00000  Uiso   1.00
N182   N     0.91548   0.54058   0.95693   0.00000  Uiso   1.00
N183   N     0.83303   0.64587   0.23682   0.00000  Uiso   1.00
N184   N     0.42185   0.21381   0.55319   0.00000  Uiso   1.00
