data_job_01936
_audit_creation_date              2018-12-19
_audit_creation_method            'Materials Studio'
_symmetry_space_group_name_H-M    'P1'
_symmetry_Int_Tables_number       1
_symmetry_cell_setting            triclinic
loop_
_symmetry_equiv_pos_as_xyz
  x,y,z
_cell_length_a                    19.7752
_cell_length_b                    34.6727
_cell_length_c                    7.8658
_cell_angle_alpha                 90.0000
_cell_angle_beta                  90.0000
_cell_angle_gamma                 90.0000
loop_
_atom_site_label
_atom_site_type_symbol
_atom_site_fract_x
_atom_site_fract_y
_atom_site_fract_z
_atom_site_U_iso_or_equiv
_atom_site_adp_type
_atom_site_occupancy
C1     C     0.68849   0.91386   0.68490   0.00000  Uiso   1.00
C2     C     0.65294   0.94535   0.58329   0.00000  Uiso   1.00
C3     C     0.63702   0.98196   0.64234   0.00000  Uiso   1.00
C4     C     0.60445   0.00657   0.52972   0.00000  Uiso   1.00
C5     C     0.55165   0.05723   0.39717   0.00000  Uiso   1.00
C6     C     0.64158   0.87897   0.68070   0.00000  Uiso   1.00
C7     C     0.61613   0.85976   0.82166   0.00000  Uiso   1.00
C8     C     0.57402   0.82848   0.79103   0.00000  Uiso   1.00
C9     C     0.50363   0.77606   0.80972   0.00000  Uiso   1.00
C10    C     0.75071   0.90260   0.58170   0.00000  Uiso   1.00
C11    C     0.81702   0.90325   0.63942   0.00000  Uiso   1.00
C12    C     0.86678   0.89187   0.52545   0.00000  Uiso   1.00
C13    C     0.96583   0.87614   0.39042   0.00000  Uiso   1.00
C14    C     0.65895   0.89247   0.37989   0.00000  Uiso   1.00
C15    C     0.63689   0.93373   0.41762   0.00000  Uiso   1.00
C16    C     0.60434   0.95829   0.30487   0.00000  Uiso   1.00
C17    C     0.58838   0.99493   0.36374   0.00000  Uiso   1.00
C18    C     0.62554   0.86735   0.51504   0.00000  Uiso   1.00
C19    C     0.58345   0.83609   0.48420   0.00000  Uiso   1.00
C20    C     0.55794   0.81684   0.62507   0.00000  Uiso   1.00
C21    C     0.73467   0.89098   0.41602   0.00000  Uiso   1.00
C22    C     0.78433   0.87959   0.30195   0.00000  Uiso   1.00
C23    C     0.85071   0.88022   0.35948   0.00000  Uiso   1.00
H24    H     0.70098   0.92291   0.81389   0.00000  Uiso   1.00
H25    H     0.64944   0.99094   0.77056   0.00000  Uiso   1.00
H26    H     0.62856   0.86876   0.94985   0.00000  Uiso   1.00
H27    H     0.82942   0.91225   0.76763   0.00000  Uiso   1.00
H28    H     0.58520   0.06124   0.64949   0.00000  Uiso   1.00
H29    H     0.54120   0.80360   0.02753   0.00000  Uiso   1.00
H30    H     0.96474   0.89531   0.64329   0.00000  Uiso   1.00
H31    H     0.64646   0.88342   0.25090   0.00000  Uiso   1.00
H32    H     0.59193   0.94929   0.17668   0.00000  Uiso   1.00
H33    H     0.57105   0.82710   0.35597   0.00000  Uiso   1.00
H34    H     0.77190   0.87060   0.17376   0.00000  Uiso   1.00
H35    H     0.53852   0.02743   0.16747   0.00000  Uiso   1.00
H36    H     0.49452   0.76979   0.54552   0.00000  Uiso   1.00
H37    H     0.91805   0.86150   0.16127   0.00000  Uiso   1.00
O38    O     0.52695   0.08838   0.36983   0.00000  Uiso   1.00
O39    O     0.46923   0.75036   0.86581   0.00000  Uiso   1.00
O40    O     0.02490   0.87068   0.36169   0.00000  Uiso   1.00
N41    N     0.58171   0.04425   0.54622   0.00000  Uiso   1.00
N42    N     0.54056   0.80337   0.89967   0.00000  Uiso   1.00
N43    N     0.93653   0.88910   0.54045   0.00000  Uiso   1.00
N44    N     0.55659   0.02606   0.28685   0.00000  Uiso   1.00
N45    N     0.51544   0.78518   0.64030   0.00000  Uiso   1.00
N46    N     0.91141   0.87091   0.28108   0.00000  Uiso   1.00
C47    C     0.81151   0.08614   0.18490   0.00000  Uiso   1.00
C48    C     0.84706   0.05465   0.08329   0.00000  Uiso   1.00
C49    C     0.86298   0.01804   0.14234   0.00000  Uiso   1.00
C50    C     0.89555   0.99343   0.02972   0.00000  Uiso   1.00
C51    C     0.94835   0.94277   0.89717   0.00000  Uiso   1.00
C52    C     0.85842   0.12103   0.18070   0.00000  Uiso   1.00
C53    C     0.88387   0.14024   0.32166   0.00000  Uiso   1.00
C54    C     0.92598   0.17152   0.29103   0.00000  Uiso   1.00
C55    C     0.99637   0.22394   0.30972   0.00000  Uiso   1.00
C56    C     0.74929   0.09740   0.08170   0.00000  Uiso   1.00
C57    C     0.68298   0.09675   0.13942   0.00000  Uiso   1.00
C58    C     0.63322   0.10813   0.02545   0.00000  Uiso   1.00
C59    C     0.53417   0.12386   0.89042   0.00000  Uiso   1.00
C60    C     0.84105   0.10753   0.87989   0.00000  Uiso   1.00
C61    C     0.86311   0.06627   0.91762   0.00000  Uiso   1.00
C62    C     0.89566   0.04171   0.80487   0.00000  Uiso   1.00
C63    C     0.91162   0.00507   0.86374   0.00000  Uiso   1.00
C64    C     0.87446   0.13265   0.01504   0.00000  Uiso   1.00
C65    C     0.91655   0.16391   0.98420   0.00000  Uiso   1.00
C66    C     0.94206   0.18316   0.12507   0.00000  Uiso   1.00
C67    C     0.76533   0.10902   0.91602   0.00000  Uiso   1.00
C68    C     0.71567   0.12041   0.80195   0.00000  Uiso   1.00
C69    C     0.64929   0.11978   0.85948   0.00000  Uiso   1.00
H70    H     0.79902   0.07709   0.31389   0.00000  Uiso   1.00
H71    H     0.85056   0.00906   0.27056   0.00000  Uiso   1.00
H72    H     0.87144   0.13124   0.44985   0.00000  Uiso   1.00
H73    H     0.67058   0.08775   0.26763   0.00000  Uiso   1.00
H74    H     0.91480   0.93876   0.14949   0.00000  Uiso   1.00
H75    H     0.95880   0.19640   0.52753   0.00000  Uiso   1.00
H76    H     0.53526   0.10469   0.14329   0.00000  Uiso   1.00
H77    H     0.85354   0.11658   0.75090   0.00000  Uiso   1.00
H78    H     0.90807   0.05071   0.67668   0.00000  Uiso   1.00
H79    H     0.92895   0.17290   0.85597   0.00000  Uiso   1.00
H80    H     0.72810   0.12940   0.67376   0.00000  Uiso   1.00
H81    H     0.96148   0.97257   0.66747   0.00000  Uiso   1.00
H82    H     0.00548   0.23021   0.04552   0.00000  Uiso   1.00
H83    H     0.58195   0.13850   0.66127   0.00000  Uiso   1.00
O84    O     0.97305   0.91162   0.86983   0.00000  Uiso   1.00
O85    O     0.03077   0.24964   0.36581   0.00000  Uiso   1.00
O86    O     0.47510   0.12932   0.86169   0.00000  Uiso   1.00
N87    N     0.91829   0.95575   0.04622   0.00000  Uiso   1.00
N88    N     0.95944   0.19663   0.39967   0.00000  Uiso   1.00
N89    N     0.56347   0.11090   0.04045   0.00000  Uiso   1.00
N90    N     0.94341   0.97394   0.78685   0.00000  Uiso   1.00
N91    N     0.98456   0.21482   0.14030   0.00000  Uiso   1.00
N92    N     0.58859   0.12909   0.78108   0.00000  Uiso   1.00
C93    C     0.31151   0.41386   0.81510   0.00000  Uiso   1.00
C94    C     0.34706   0.44535   0.91671   0.00000  Uiso   1.00
C95    C     0.36298   0.48196   0.85766   0.00000  Uiso   1.00
C96    C     0.39555   0.50657   0.97028   0.00000  Uiso   1.00
C97    C     0.44835   0.55723   0.10283   0.00000  Uiso   1.00
C98    C     0.35842   0.37897   0.81930   0.00000  Uiso   1.00
C99    C     0.38387   0.35976   0.67834   0.00000  Uiso   1.00
C100   C     0.42598   0.32848   0.70897   0.00000  Uiso   1.00
C101   C     0.49637   0.27606   0.69028   0.00000  Uiso   1.00
C102   C     0.24929   0.40260   0.91830   0.00000  Uiso   1.00
C103   C     0.18298   0.40325   0.86058   0.00000  Uiso   1.00
C104   C     0.13322   0.39187   0.97455   0.00000  Uiso   1.00
C105   C     0.03417   0.37614   0.10958   0.00000  Uiso   1.00
C106   C     0.34105   0.39247   0.12011   0.00000  Uiso   1.00
C107   C     0.36311   0.43373   0.08238   0.00000  Uiso   1.00
C108   C     0.39566   0.45829   0.19513   0.00000  Uiso   1.00
C109   C     0.41162   0.49493   0.13626   0.00000  Uiso   1.00
C110   C     0.37446   0.36735   0.98496   0.00000  Uiso   1.00
C111   C     0.41655   0.33609   0.01580   0.00000  Uiso   1.00
C112   C     0.44206   0.31684   0.87493   0.00000  Uiso   1.00
C113   C     0.26533   0.39098   0.08398   0.00000  Uiso   1.00
C114   C     0.21567   0.37959   0.19805   0.00000  Uiso   1.00
C115   C     0.14929   0.38022   0.14052   0.00000  Uiso   1.00
H116   H     0.29902   0.42291   0.68611   0.00000  Uiso   1.00
H117   H     0.35056   0.49094   0.72944   0.00000  Uiso   1.00
H118   H     0.37144   0.36876   0.55015   0.00000  Uiso   1.00
H119   H     0.17058   0.41225   0.73237   0.00000  Uiso   1.00
H120   H     0.41480   0.56124   0.85051   0.00000  Uiso   1.00
H121   H     0.45880   0.30360   0.47247   0.00000  Uiso   1.00
H122   H     0.03526   0.39531   0.85671   0.00000  Uiso   1.00
H123   H     0.35354   0.38342   0.24910   0.00000  Uiso   1.00
H124   H     0.40807   0.44929   0.32332   0.00000  Uiso   1.00
H125   H     0.42895   0.32710   0.14403   0.00000  Uiso   1.00
H126   H     0.22810   0.37060   0.32624   0.00000  Uiso   1.00
H127   H     0.46148   0.52743   0.33253   0.00000  Uiso   1.00
H128   H     0.50548   0.26979   0.95448   0.00000  Uiso   1.00
H129   H     0.08195   0.36150   0.33873   0.00000  Uiso   1.00
O130   O     0.47305   0.58838   0.13017   0.00000  Uiso   1.00
O131   O     0.53077   0.25036   0.63419   0.00000  Uiso   1.00
O132   O     0.97510   0.37068   0.13831   0.00000  Uiso   1.00
N133   N     0.41829   0.54425   0.95378   0.00000  Uiso   1.00
N134   N     0.45944   0.30337   0.60033   0.00000  Uiso   1.00
N135   N     0.06347   0.38910   0.95955   0.00000  Uiso   1.00
N136   N     0.44341   0.52606   0.21315   0.00000  Uiso   1.00
N137   N     0.48456   0.28518   0.85970   0.00000  Uiso   1.00
N138   N     0.08859   0.37091   0.21892   0.00000  Uiso   1.00
C139   C     0.18849   0.58614   0.31510   0.00000  Uiso   1.00
C140   C     0.15294   0.55465   0.41671   0.00000  Uiso   1.00
C141   C     0.13702   0.51804   0.35766   0.00000  Uiso   1.00
C142   C     0.10445   0.49343   0.47028   0.00000  Uiso   1.00
C143   C     0.05165   0.44277   0.60283   0.00000  Uiso   1.00
C144   C     0.14158   0.62103   0.31930   0.00000  Uiso   1.00
C145   C     0.11613   0.64024   0.17834   0.00000  Uiso   1.00
C146   C     0.07402   0.67152   0.20897   0.00000  Uiso   1.00
C147   C     0.00363   0.72394   0.19028   0.00000  Uiso   1.00
C148   C     0.25071   0.59740   0.41830   0.00000  Uiso   1.00
C149   C     0.31702   0.59675   0.36058   0.00000  Uiso   1.00
C150   C     0.36678   0.60813   0.47455   0.00000  Uiso   1.00
C151   C     0.46583   0.62386   0.60958   0.00000  Uiso   1.00
C152   C     0.15895   0.60753   0.62011   0.00000  Uiso   1.00
C153   C     0.13689   0.56627   0.58238   0.00000  Uiso   1.00
C154   C     0.10434   0.54171   0.69513   0.00000  Uiso   1.00
C155   C     0.08838   0.50507   0.63626   0.00000  Uiso   1.00
C156   C     0.12554   0.63265   0.48496   0.00000  Uiso   1.00
C157   C     0.08345   0.66391   0.51580   0.00000  Uiso   1.00
C158   C     0.05794   0.68316   0.37493   0.00000  Uiso   1.00
C159   C     0.23467   0.60902   0.58398   0.00000  Uiso   1.00
C160   C     0.28433   0.62041   0.69805   0.00000  Uiso   1.00
C161   C     0.35071   0.61978   0.64052   0.00000  Uiso   1.00
H162   H     0.20098   0.57709   0.18611   0.00000  Uiso   1.00
H163   H     0.14944   0.50906   0.22944   0.00000  Uiso   1.00
H164   H     0.12856   0.63124   0.05015   0.00000  Uiso   1.00
H165   H     0.32942   0.58775   0.23237   0.00000  Uiso   1.00
H166   H     0.08520   0.43876   0.35051   0.00000  Uiso   1.00
H167   H     0.04120   0.69640   0.97247   0.00000  Uiso   1.00
H168   H     0.46474   0.60469   0.35671   0.00000  Uiso   1.00
H169   H     0.14646   0.61658   0.74910   0.00000  Uiso   1.00
H170   H     0.09193   0.55071   0.82332   0.00000  Uiso   1.00
H171   H     0.07105   0.67290   0.64403   0.00000  Uiso   1.00
H172   H     0.27190   0.62940   0.82624   0.00000  Uiso   1.00
H173   H     0.03852   0.47257   0.83253   0.00000  Uiso   1.00
H174   H     0.99452   0.73021   0.45448   0.00000  Uiso   1.00
H175   H     0.41805   0.63850   0.83873   0.00000  Uiso   1.00
O176   O     0.02695   0.41162   0.63017   0.00000  Uiso   1.00
O177   O     0.96923   0.74964   0.13419   0.00000  Uiso   1.00
O178   O     0.52490   0.62932   0.63831   0.00000  Uiso   1.00
N179   N     0.08171   0.45575   0.45378   0.00000  Uiso   1.00
N180   N     0.04056   0.69663   0.10033   0.00000  Uiso   1.00
N181   N     0.43653   0.61090   0.45955   0.00000  Uiso   1.00
N182   N     0.05659   0.47394   0.71315   0.00000  Uiso   1.00
N183   N     0.01544   0.71482   0.35970   0.00000  Uiso   1.00
N184   N     0.41141   0.62909   0.71892   0.00000  Uiso   1.00
C185   C     0.31151   0.08614   0.31510   0.00000  Uiso   1.00
C186   C     0.34706   0.05465   0.41671   0.00000  Uiso   1.00
C187   C     0.36298   0.01804   0.35766   0.00000  Uiso   1.00
C188   C     0.39555   0.99343   0.47028   0.00000  Uiso   1.00
C189   C     0.44835   0.94277   0.60283   0.00000  Uiso   1.00
C190   C     0.35842   0.12103   0.31930   0.00000  Uiso   1.00
C191   C     0.38387   0.14024   0.17834   0.00000  Uiso   1.00
C192   C     0.42598   0.17152   0.20897   0.00000  Uiso   1.00
C193   C     0.49637   0.22394   0.19028   0.00000  Uiso   1.00
C194   C     0.24929   0.09740   0.41830   0.00000  Uiso   1.00
C195   C     0.18298   0.09675   0.36058   0.00000  Uiso   1.00
C196   C     0.13322   0.10813   0.47455   0.00000  Uiso   1.00
C197   C     0.03417   0.12386   0.60958   0.00000  Uiso   1.00
C198   C     0.34105   0.10753   0.62011   0.00000  Uiso   1.00
C199   C     0.36311   0.06627   0.58238   0.00000  Uiso   1.00
C200   C     0.39566   0.04171   0.69513   0.00000  Uiso   1.00
C201   C     0.41162   0.00507   0.63626   0.00000  Uiso   1.00
C202   C     0.37446   0.13265   0.48496   0.00000  Uiso   1.00
C203   C     0.41655   0.16391   0.51580   0.00000  Uiso   1.00
C204   C     0.44206   0.18316   0.37493   0.00000  Uiso   1.00
C205   C     0.26533   0.10902   0.58398   0.00000  Uiso   1.00
C206   C     0.21567   0.12041   0.69805   0.00000  Uiso   1.00
C207   C     0.14929   0.11978   0.64052   0.00000  Uiso   1.00
H208   H     0.29902   0.07709   0.18611   0.00000  Uiso   1.00
H209   H     0.35056   0.00906   0.22944   0.00000  Uiso   1.00
H210   H     0.37144   0.13124   0.05015   0.00000  Uiso   1.00
H211   H     0.17058   0.08775   0.23237   0.00000  Uiso   1.00
H212   H     0.41480   0.93876   0.35051   0.00000  Uiso   1.00
H213   H     0.45880   0.19640   0.97247   0.00000  Uiso   1.00
H214   H     0.03526   0.10469   0.35671   0.00000  Uiso   1.00
H215   H     0.35354   0.11658   0.74910   0.00000  Uiso   1.00
H216   H     0.40807   0.05071   0.82332   0.00000  Uiso   1.00
H217   H     0.42895   0.17290   0.64403   0.00000  Uiso   1.00
H218   H     0.22810   0.12940   0.82624   0.00000  Uiso   1.00
H219   H     0.46148   0.97257   0.83253   0.00000  Uiso   1.00
H220   H     0.50548   0.23021   0.45448   0.00000  Uiso   1.00
H221   H     0.08195   0.13850   0.83873   0.00000  Uiso   1.00
O222   O     0.47305   0.91162   0.63017   0.00000  Uiso   1.00
O223   O     0.53077   0.24964   0.13419   0.00000  Uiso   1.00
O224   O     0.97510   0.12932   0.63831   0.00000  Uiso   1.00
N225   N     0.41829   0.95575   0.45378   0.00000  Uiso   1.00
N226   N     0.45944   0.19663   0.10033   0.00000  Uiso   1.00
N227   N     0.06347   0.11090   0.45955   0.00000  Uiso   1.00
N228   N     0.44341   0.97394   0.71315   0.00000  Uiso   1.00
N229   N     0.48456   0.21482   0.35970   0.00000  Uiso   1.00
N230   N     0.08859   0.12909   0.71892   0.00000  Uiso   1.00
C231   C     0.18849   0.91386   0.81510   0.00000  Uiso   1.00
C232   C     0.15294   0.94535   0.91671   0.00000  Uiso   1.00
C233   C     0.13702   0.98196   0.85766   0.00000  Uiso   1.00
C234   C     0.10445   0.00657   0.97028   0.00000  Uiso   1.00
C235   C     0.05165   0.05723   0.10283   0.00000  Uiso   1.00
C236   C     0.14158   0.87897   0.81930   0.00000  Uiso   1.00
C237   C     0.11613   0.85976   0.67834   0.00000  Uiso   1.00
C238   C     0.07402   0.82848   0.70897   0.00000  Uiso   1.00
C239   C     0.00363   0.77606   0.69028   0.00000  Uiso   1.00
C240   C     0.25071   0.90260   0.91830   0.00000  Uiso   1.00
C241   C     0.31702   0.90325   0.86058   0.00000  Uiso   1.00
C242   C     0.36678   0.89187   0.97455   0.00000  Uiso   1.00
C243   C     0.46583   0.87614   0.10958   0.00000  Uiso   1.00
C244   C     0.15895   0.89247   0.12011   0.00000  Uiso   1.00
C245   C     0.13689   0.93373   0.08238   0.00000  Uiso   1.00
C246   C     0.10434   0.95829   0.19513   0.00000  Uiso   1.00
C247   C     0.08838   0.99493   0.13626   0.00000  Uiso   1.00
C248   C     0.12554   0.86735   0.98496   0.00000  Uiso   1.00
C249   C     0.08345   0.83609   0.01580   0.00000  Uiso   1.00
C250   C     0.05794   0.81684   0.87493   0.00000  Uiso   1.00
C251   C     0.23467   0.89098   0.08398   0.00000  Uiso   1.00
C252   C     0.28433   0.87959   0.19805   0.00000  Uiso   1.00
C253   C     0.35071   0.88022   0.14052   0.00000  Uiso   1.00
H254   H     0.20098   0.92291   0.68611   0.00000  Uiso   1.00
H255   H     0.14944   0.99094   0.72944   0.00000  Uiso   1.00
H256   H     0.12856   0.86876   0.55015   0.00000  Uiso   1.00
H257   H     0.32942   0.91225   0.73237   0.00000  Uiso   1.00
H258   H     0.08520   0.06124   0.85051   0.00000  Uiso   1.00
H259   H     0.04120   0.80360   0.47247   0.00000  Uiso   1.00
H260   H     0.46474   0.89531   0.85671   0.00000  Uiso   1.00
H261   H     0.14646   0.88342   0.24910   0.00000  Uiso   1.00
H262   H     0.09193   0.94929   0.32332   0.00000  Uiso   1.00
H263   H     0.07105   0.82710   0.14403   0.00000  Uiso   1.00
H264   H     0.27190   0.87060   0.32624   0.00000  Uiso   1.00
H265   H     0.03852   0.02743   0.33253   0.00000  Uiso   1.00
H266   H     0.99452   0.76979   0.95448   0.00000  Uiso   1.00
H267   H     0.41805   0.86150   0.33873   0.00000  Uiso   1.00
O268   O     0.02695   0.08838   0.13017   0.00000  Uiso   1.00
O269   O     0.96923   0.75036   0.63419   0.00000  Uiso   1.00
O270   O     0.52490   0.87068   0.13831   0.00000  Uiso   1.00
N271   N     0.08171   0.04425   0.95378   0.00000  Uiso   1.00
N272   N     0.04056   0.80337   0.60033   0.00000  Uiso   1.00
N273   N     0.43653   0.88910   0.95955   0.00000  Uiso   1.00
N274   N     0.05659   0.02606   0.21315   0.00000  Uiso   1.00
N275   N     0.01544   0.78518   0.85970   0.00000  Uiso   1.00
N276   N     0.41141   0.87091   0.21892   0.00000  Uiso   1.00
C277   C     0.68849   0.58614   0.18490   0.00000  Uiso   1.00
C278   C     0.65294   0.55465   0.08329   0.00000  Uiso   1.00
C279   C     0.63702   0.51804   0.14234   0.00000  Uiso   1.00
C280   C     0.60445   0.49343   0.02972   0.00000  Uiso   1.00
C281   C     0.55165   0.44277   0.89717   0.00000  Uiso   1.00
C282   C     0.64158   0.62103   0.18070   0.00000  Uiso   1.00
C283   C     0.61613   0.64024   0.32166   0.00000  Uiso   1.00
C284   C     0.57402   0.67152   0.29103   0.00000  Uiso   1.00
C285   C     0.50363   0.72394   0.30972   0.00000  Uiso   1.00
C286   C     0.75071   0.59740   0.08170   0.00000  Uiso   1.00
C287   C     0.81702   0.59675   0.13942   0.00000  Uiso   1.00
C288   C     0.86678   0.60813   0.02545   0.00000  Uiso   1.00
C289   C     0.96583   0.62386   0.89042   0.00000  Uiso   1.00
C290   C     0.65895   0.60753   0.87989   0.00000  Uiso   1.00
C291   C     0.63689   0.56627   0.91762   0.00000  Uiso   1.00
C292   C     0.60434   0.54171   0.80487   0.00000  Uiso   1.00
C293   C     0.58838   0.50507   0.86374   0.00000  Uiso   1.00
C294   C     0.62554   0.63265   0.01504   0.00000  Uiso   1.00
C295   C     0.58345   0.66391   0.98420   0.00000  Uiso   1.00
C296   C     0.55794   0.68316   0.12507   0.00000  Uiso   1.00
C297   C     0.73467   0.60902   0.91602   0.00000  Uiso   1.00
C298   C     0.78433   0.62041   0.80195   0.00000  Uiso   1.00
C299   C     0.85071   0.61978   0.85948   0.00000  Uiso   1.00
H300   H     0.70098   0.57709   0.31389   0.00000  Uiso   1.00
H301   H     0.64944   0.50906   0.27056   0.00000  Uiso   1.00
H302   H     0.62856   0.63124   0.44985   0.00000  Uiso   1.00
H303   H     0.82942   0.58775   0.26763   0.00000  Uiso   1.00
H304   H     0.58520   0.43876   0.14949   0.00000  Uiso   1.00
H305   H     0.54120   0.69640   0.52753   0.00000  Uiso   1.00
H306   H     0.96474   0.60469   0.14329   0.00000  Uiso   1.00
H307   H     0.64646   0.61658   0.75090   0.00000  Uiso   1.00
H308   H     0.59193   0.55071   0.67668   0.00000  Uiso   1.00
H309   H     0.57105   0.67290   0.85597   0.00000  Uiso   1.00
H310   H     0.77190   0.62940   0.67376   0.00000  Uiso   1.00
H311   H     0.53852   0.47257   0.66747   0.00000  Uiso   1.00
H312   H     0.49452   0.73021   0.04552   0.00000  Uiso   1.00
H313   H     0.91805   0.63850   0.66127   0.00000  Uiso   1.00
O314   O     0.52695   0.41162   0.86983   0.00000  Uiso   1.00
O315   O     0.46923   0.74964   0.36581   0.00000  Uiso   1.00
O316   O     0.02490   0.62932   0.86169   0.00000  Uiso   1.00
N317   N     0.58171   0.45575   0.04622   0.00000  Uiso   1.00
N318   N     0.54056   0.69663   0.39967   0.00000  Uiso   1.00
N319   N     0.93653   0.61090   0.04045   0.00000  Uiso   1.00
N320   N     0.55659   0.47394   0.78685   0.00000  Uiso   1.00
N321   N     0.51544   0.71482   0.14030   0.00000  Uiso   1.00
N322   N     0.91141   0.62909   0.78108   0.00000  Uiso   1.00
C323   C     0.81151   0.41386   0.68490   0.00000  Uiso   1.00
C324   C     0.84706   0.44535   0.58329   0.00000  Uiso   1.00
C325   C     0.86298   0.48196   0.64234   0.00000  Uiso   1.00
C326   C     0.89555   0.50657   0.52972   0.00000  Uiso   1.00
C327   C     0.94835   0.55723   0.39717   0.00000  Uiso   1.00
C328   C     0.85842   0.37897   0.68070   0.00000  Uiso   1.00
C329   C     0.88387   0.35976   0.82166   0.00000  Uiso   1.00
C330   C     0.92598   0.32848   0.79103   0.00000  Uiso   1.00
C331   C     0.99637   0.27606   0.80972   0.00000  Uiso   1.00
C332   C     0.74929   0.40260   0.58170   0.00000  Uiso   1.00
C333   C     0.68298   0.40325   0.63942   0.00000  Uiso   1.00
C334   C     0.63322   0.39187   0.52545   0.00000  Uiso   1.00
C335   C     0.53417   0.37614   0.39042   0.00000  Uiso   1.00
C336   C     0.84105   0.39247   0.37989   0.00000  Uiso   1.00
C337   C     0.86311   0.43373   0.41762   0.00000  Uiso   1.00
C338   C     0.89566   0.45829   0.30487   0.00000  Uiso   1.00
C339   C     0.91162   0.49493   0.36374   0.00000  Uiso   1.00
C340   C     0.87446   0.36735   0.51504   0.00000  Uiso   1.00
C341   C     0.91655   0.33609   0.48420   0.00000  Uiso   1.00
C342   C     0.94206   0.31684   0.62507   0.00000  Uiso   1.00
C343   C     0.76533   0.39098   0.41602   0.00000  Uiso   1.00
C344   C     0.71567   0.37959   0.30195   0.00000  Uiso   1.00
C345   C     0.64929   0.38022   0.35948   0.00000  Uiso   1.00
H346   H     0.79902   0.42291   0.81389   0.00000  Uiso   1.00
H347   H     0.85056   0.49094   0.77056   0.00000  Uiso   1.00
H348   H     0.87144   0.36876   0.94985   0.00000  Uiso   1.00
H349   H     0.67058   0.41225   0.76763   0.00000  Uiso   1.00
H350   H     0.91480   0.56124   0.64949   0.00000  Uiso   1.00
H351   H     0.95880   0.30360   0.02753   0.00000  Uiso   1.00
H352   H     0.53526   0.39531   0.64329   0.00000  Uiso   1.00
H353   H     0.85354   0.38342   0.25090   0.00000  Uiso   1.00
H354   H     0.90807   0.44929   0.17668   0.00000  Uiso   1.00
H355   H     0.92895   0.32710   0.35597   0.00000  Uiso   1.00
H356   H     0.72810   0.37060   0.17376   0.00000  Uiso   1.00
H357   H     0.96148   0.52743   0.16747   0.00000  Uiso   1.00
H358   H     0.00548   0.26979   0.54552   0.00000  Uiso   1.00
H359   H     0.58195   0.36150   0.16127   0.00000  Uiso   1.00
O360   O     0.97305   0.58838   0.36983   0.00000  Uiso   1.00
O361   O     0.03077   0.25036   0.86581   0.00000  Uiso   1.00
O362   O     0.47510   0.37068   0.36169   0.00000  Uiso   1.00
N363   N     0.91829   0.54425   0.54622   0.00000  Uiso   1.00
N364   N     0.95944   0.30337   0.89967   0.00000  Uiso   1.00
N365   N     0.56347   0.38910   0.54045   0.00000  Uiso   1.00
N366   N     0.94341   0.52606   0.28685   0.00000  Uiso   1.00
N367   N     0.98456   0.28518   0.64030   0.00000  Uiso   1.00
N368   N     0.58859   0.37091   0.28108   0.00000  Uiso   1.00
