data_job_06150
_audit_creation_date              2018-12-19
_audit_creation_method            'Materials Studio'
_symmetry_space_group_name_H-M    'P1'
_symmetry_Int_Tables_number       1
_symmetry_cell_setting            triclinic
loop_
_symmetry_equiv_pos_as_xyz
  x,y,z
_cell_length_a                    9.7867
_cell_length_b                    23.1229
_cell_length_c                    23.1484
_cell_angle_alpha                 61.9260
_cell_angle_beta                  82.2679
_cell_angle_gamma                 97.7179
loop_
_atom_site_label
_atom_site_type_symbol
_atom_site_fract_x
_atom_site_fract_y
_atom_site_fract_z
_atom_site_U_iso_or_equiv
_atom_site_adp_type
_atom_site_occupancy
C1     C     0.66704   0.75078   0.54897   0.00000  Uiso   1.00
C2     C     0.57283   0.79156   0.56428   0.00000  Uiso   1.00
C3     C     0.53012   0.78610   0.62663   0.00000  Uiso   1.00
C4     C     0.44394   0.82788   0.63025   0.00000  Uiso   1.00
C5     C     0.30397   0.88425   0.66267   0.00000  Uiso   1.00
C6     C     0.58332   0.71629   0.51829   0.00000  Uiso   1.00
C7     C     0.54946   0.64756   0.54197   0.00000  Uiso   1.00
C8     C     0.47213   0.62598   0.50686   0.00000  Uiso   1.00
C9     C     0.34854   0.56550   0.46785   0.00000  Uiso   1.00
C10    C     0.79212   0.80197   0.49275   0.00000  Uiso   1.00
C11    C     0.93382   0.80525   0.49495   0.00000  Uiso   1.00
C12    C     0.03228   0.85579   0.43834   0.00000  Uiso   1.00
C13    C     0.23288   0.92833   0.35968   0.00000  Uiso   1.00
C14    C     0.58994   0.83467   0.44452   0.00000  Uiso   1.00
C15    C     0.53095   0.83713   0.50755   0.00000  Uiso   1.00
C16    C     0.44482   0.87892   0.51108   0.00000  Uiso   1.00
C17    C     0.40199   0.87353   0.57342   0.00000  Uiso   1.00
C18    C     0.54144   0.76186   0.46156   0.00000  Uiso   1.00
C19    C     0.46416   0.74038   0.42641   0.00000  Uiso   1.00
C20    C     0.43017   0.67163   0.45003   0.00000  Uiso   1.00
C21    C     0.75024   0.84754   0.43602   0.00000  Uiso   1.00
C22    C     0.84851   0.89808   0.37940   0.00000  Uiso   1.00
C23    C     0.99033   0.90144   0.38151   0.00000  Uiso   1.00
H24    H     0.69964   0.71530   0.59313   0.00000  Uiso   1.00
H25    H     0.56255   0.75083   0.67052   0.00000  Uiso   1.00
H26    H     0.58190   0.61231   0.58586   0.00000  Uiso   1.00
H27    H     0.96619   0.76998   0.53886   0.00000  Uiso   1.00
H28    H     0.39204   0.81030   0.73131   0.00000  Uiso   1.00
H29    H     0.43288   0.51822   0.55279   0.00000  Uiso   1.00
H30    H     0.24324   0.85071   0.45367   0.00000  Uiso   1.00
H31    H     0.55733   0.87015   0.40035   0.00000  Uiso   1.00
H32    H     0.41242   0.91418   0.46717   0.00000  Uiso   1.00
H33    H     0.43177   0.77565   0.38251   0.00000  Uiso   1.00
H34    H     0.81606   0.93333   0.33551   0.00000  Uiso   1.00
H35    H     0.27018   0.94288   0.56627   0.00000  Uiso   1.00
H36    H     0.31103   0.65080   0.38774   0.00000  Uiso   1.00
H37    H     0.12139   0.98329   0.28862   0.00000  Uiso   1.00
O38    O     0.23831   0.90275   0.69623   0.00000  Uiso   1.00
O39    O     0.29193   0.51955   0.46201   0.00000  Uiso   1.00
O40    O     0.35509   0.95576   0.33197   0.00000  Uiso   1.00
N41    N     0.38327   0.83547   0.68330   0.00000  Uiso   1.00
N42    N     0.42143   0.56239   0.51640   0.00000  Uiso   1.00
N43    N     0.17905   0.87323   0.42372   0.00000  Uiso   1.00
N44    N     0.31770   0.90681   0.59449   0.00000  Uiso   1.00
N45    N     0.35587   0.63373   0.42759   0.00000  Uiso   1.00
N46    N     0.11349   0.94457   0.33491   0.00000  Uiso   1.00
C47    C     0.91537   0.69998   0.75091   0.00000  Uiso   1.00
C48    C     0.78176   0.64430   0.79098   0.00000  Uiso   1.00
C49    C     0.74452   0.58748   0.78524   0.00000  Uiso   1.00
C50    C     0.61794   0.54248   0.82636   0.00000  Uiso   1.00
C51    C     0.42355   0.45430   0.88169   0.00000  Uiso   1.00
C52    C     0.86539   0.76525   0.71617   0.00000  Uiso   1.00
C53    C     0.89848   0.81011   0.64752   0.00000  Uiso   1.00
C54    C     0.84232   0.86694   0.62566   0.00000  Uiso   1.00
C55    C     0.77784   0.96655   0.56484   0.00000  Uiso   1.00
C56    C     0.99029   0.70489   0.80262   0.00000  Uiso   1.00
C57    C     0.12842   0.69902   0.80665   0.00000  Uiso   1.00
C58    C     0.17743   0.70505   0.85758   0.00000  Uiso   1.00
C59    C     0.30688   0.71094   0.93099   0.00000  Uiso   1.00
C60    C     0.75680   0.72112   0.83416   0.00000  Uiso   1.00
C61    C     0.69563   0.65579   0.83620   0.00000  Uiso   1.00
C62    C     0.56908   0.61087   0.87735   0.00000  Uiso   1.00
C63    C     0.53166   0.55398   0.87167   0.00000  Uiso   1.00
C64    C     0.77926   0.77673   0.76138   0.00000  Uiso   1.00
C65    C     0.72304   0.83350   0.73963   0.00000  Uiso   1.00
C66    C     0.75603   0.87844   0.67096   0.00000  Uiso   1.00
C67    C     0.90416   0.71637   0.84784   0.00000  Uiso   1.00
C68    C     0.95297   0.72241   0.89877   0.00000  Uiso   1.00
C69    C     0.09114   0.71655   0.90288   0.00000  Uiso   1.00
H70    H     0.98243   0.69105   0.71570   0.00000  Uiso   1.00
H71    H     0.81120   0.57861   0.75023   0.00000  Uiso   1.00
H72    H     0.96515   0.80122   0.61253   0.00000  Uiso   1.00
H73    H     0.19504   0.69014   0.77165   0.00000  Uiso   1.00
H74    H     0.58335   0.45903   0.80844   0.00000  Uiso   1.00
H75    H     0.90800   0.92842   0.51810   0.00000  Uiso   1.00
H76    H     0.39279   0.69419   0.85363   0.00000  Uiso   1.00
H77    H     0.68974   0.73006   0.86937   0.00000  Uiso   1.00
H78    H     0.50245   0.61977   0.91234   0.00000  Uiso   1.00
H79    H     0.65640   0.84238   0.77464   0.00000  Uiso   1.00
H80    H     0.88629   0.73130   0.93375   0.00000  Uiso   1.00
H81    H     0.33275   0.49244   0.94001   0.00000  Uiso   1.00
H82    H     0.65741   0.96183   0.64967   0.00000  Uiso   1.00
H83    H     0.14219   0.72760   0.98520   0.00000  Uiso   1.00
O84    O     0.34010   0.40249   0.89970   0.00000  Uiso   1.00
O85    O     0.76606   0.01831   0.51879   0.00000  Uiso   1.00
O86    O     0.40207   0.71101   0.95899   0.00000  Uiso   1.00
N87    N     0.55009   0.48203   0.83352   0.00000  Uiso   1.00
N88    N     0.85360   0.92087   0.56207   0.00000  Uiso   1.00
N89    N     0.30685   0.70190   0.87574   0.00000  Uiso   1.00
N90    N     0.41525   0.50000   0.90432   0.00000  Uiso   1.00
N91    N     0.71876   0.93885   0.63286   0.00000  Uiso   1.00
N92    N     0.17200   0.71988   0.94654   0.00000  Uiso   1.00
C93    C     0.21199   0.54849   0.70086   0.00000  Uiso   1.00
C94    C     0.13292   0.56422   0.64465   0.00000  Uiso   1.00
C95    C     0.15104   0.62667   0.58788   0.00000  Uiso   1.00
C96    C     0.06858   0.63069   0.54235   0.00000  Uiso   1.00
C97    C     0.96051   0.66371   0.45343   0.00000  Uiso   1.00
C98    C     0.09864   0.51838   0.76562   0.00000  Uiso   1.00
C99    C     0.08796   0.54228   0.81057   0.00000  Uiso   1.00
C100   C     0.97666   0.50770   0.86687   0.00000  Uiso   1.00
C101   C     0.81543   0.46952   0.96578   0.00000  Uiso   1.00
C102   C     0.28198   0.49166   0.70608   0.00000  Uiso   1.00
C103   C     0.42546   0.49309   0.70098   0.00000  Uiso   1.00
C104   C     0.46852   0.43601   0.70717   0.00000  Uiso   1.00
C105   C     0.59196   0.35634   0.71363   0.00000  Uiso   1.00
C106   C     0.03334   0.44458   0.72095   0.00000  Uiso   1.00
C107   C     0.03588   0.50778   0.65556   0.00000  Uiso   1.00
C108   C     0.95338   0.51171   0.61010   0.00000  Uiso   1.00
C109   C     0.97138   0.57415   0.55327   0.00000  Uiso   1.00
C110   C     0.00161   0.46194   0.77653   0.00000  Uiso   1.00
C111   C     0.89030   0.42732   0.83279   0.00000  Uiso   1.00
C112   C     0.87945   0.45116   0.87780   0.00000  Uiso   1.00
C113   C     0.18495   0.43522   0.71699   0.00000  Uiso   1.00
C114   C     0.22780   0.37813   0.72319   0.00000  Uiso   1.00
C115   C     0.37130   0.37947   0.71810   0.00000  Uiso   1.00
H116   H     0.28753   0.59243   0.69237   0.00000  Uiso   1.00
H117   H     0.22613   0.67034   0.57946   0.00000  Uiso   1.00
H118   H     0.16307   0.58595   0.80211   0.00000  Uiso   1.00
H119   H     0.50051   0.53677   0.69254   0.00000  Uiso   1.00
H120   H     0.11523   0.73183   0.45910   0.00000  Uiso   1.00
H121   H     0.98229   0.55389   0.92858   0.00000  Uiso   1.00
H122   H     0.69385   0.45018   0.69753   0.00000  Uiso   1.00
H123   H     0.95780   0.40064   0.72944   0.00000  Uiso   1.00
H124   H     0.87830   0.46802   0.61856   0.00000  Uiso   1.00
H125   H     0.81524   0.38364   0.84121   0.00000  Uiso   1.00
H126   H     0.15268   0.33446   0.73164   0.00000  Uiso   1.00
H127   H     0.83291   0.56763   0.49084   0.00000  Uiso   1.00
H128   H     0.69998   0.38968   0.96032   0.00000  Uiso   1.00
H129   H     0.41153   0.28597   0.72926   0.00000  Uiso   1.00
O130   O     0.92769   0.69752   0.40137   0.00000  Uiso   1.00
O131   O     0.75330   0.46406   0.01732   0.00000  Uiso   1.00
O132   O     0.68685   0.32800   0.71417   0.00000  Uiso   1.00
N133   N     0.05971   0.68393   0.48178   0.00000  Uiso   1.00
N134   N     0.93541   0.51758   0.92071   0.00000  Uiso   1.00
N135   N     0.60066   0.42061   0.70471   0.00000  Uiso   1.00
N136   N     0.90780   0.59558   0.49886   0.00000  Uiso   1.00
N137   N     0.78350   0.42922   0.93779   0.00000  Uiso   1.00
N138   N     0.44875   0.33225   0.72179   0.00000  Uiso   1.00
C139   C     0.33296   0.24922   0.45104   0.00000  Uiso   1.00
C140   C     0.42717   0.20844   0.43572   0.00000  Uiso   1.00
C141   C     0.46988   0.21390   0.37337   0.00000  Uiso   1.00
C142   C     0.55606   0.17212   0.36975   0.00000  Uiso   1.00
C143   C     0.69603   0.11575   0.33733   0.00000  Uiso   1.00
C144   C     0.41668   0.28371   0.48171   0.00000  Uiso   1.00
C145   C     0.45054   0.35244   0.45804   0.00000  Uiso   1.00
C146   C     0.52787   0.37402   0.49314   0.00000  Uiso   1.00
C147   C     0.65146   0.43450   0.53215   0.00000  Uiso   1.00
C148   C     0.20788   0.19803   0.50725   0.00000  Uiso   1.00
C149   C     0.06618   0.19475   0.50505   0.00000  Uiso   1.00
C150   C     0.96772   0.14421   0.56166   0.00000  Uiso   1.00
C151   C     0.76712   0.07167   0.64032   0.00000  Uiso   1.00
C152   C     0.41006   0.16533   0.55548   0.00000  Uiso   1.00
C153   C     0.46905   0.16287   0.49245   0.00000  Uiso   1.00
C154   C     0.55518   0.12108   0.48892   0.00000  Uiso   1.00
C155   C     0.59801   0.12647   0.42658   0.00000  Uiso   1.00
C156   C     0.45856   0.23814   0.53844   0.00000  Uiso   1.00
C157   C     0.53585   0.25962   0.57359   0.00000  Uiso   1.00
C158   C     0.56983   0.32838   0.54997   0.00000  Uiso   1.00
C159   C     0.24976   0.15246   0.56398   0.00000  Uiso   1.00
C160   C     0.15149   0.10193   0.62060   0.00000  Uiso   1.00
C161   C     0.00967   0.09856   0.61849   0.00000  Uiso   1.00
H162   H     0.30036   0.28470   0.40687   0.00000  Uiso   1.00
H163   H     0.43746   0.24917   0.32948   0.00000  Uiso   1.00
H164   H     0.41810   0.38769   0.41414   0.00000  Uiso   1.00
H165   H     0.03381   0.23002   0.46114   0.00000  Uiso   1.00
H166   H     0.60796   0.18970   0.26869   0.00000  Uiso   1.00
H167   H     0.56712   0.48178   0.44721   0.00000  Uiso   1.00
H168   H     0.75676   0.14929   0.54633   0.00000  Uiso   1.00
H169   H     0.44267   0.12985   0.59965   0.00000  Uiso   1.00
H170   H     0.58758   0.08582   0.53283   0.00000  Uiso   1.00
H171   H     0.56823   0.22435   0.61749   0.00000  Uiso   1.00
H172   H     0.18394   0.06667   0.66449   0.00000  Uiso   1.00
H173   H     0.72982   0.05712   0.43373   0.00000  Uiso   1.00
H174   H     0.68897   0.34920   0.61226   0.00000  Uiso   1.00
H175   H     0.87861   0.01671   0.71138   0.00000  Uiso   1.00
O176   O     0.76169   0.09726   0.30377   0.00000  Uiso   1.00
O177   O     0.70808   0.48045   0.53799   0.00000  Uiso   1.00
O178   O     0.64491   0.04424   0.66803   0.00000  Uiso   1.00
N179   N     0.61673   0.16453   0.31670   0.00000  Uiso   1.00
N180   N     0.57857   0.43761   0.48360   0.00000  Uiso   1.00
N181   N     0.82095   0.12677   0.57628   0.00000  Uiso   1.00
N182   N     0.68230   0.09319   0.40551   0.00000  Uiso   1.00
N183   N     0.64413   0.36627   0.57241   0.00000  Uiso   1.00
N184   N     0.88651   0.05543   0.66509   0.00000  Uiso   1.00
C185   C     0.08463   0.30002   0.24909   0.00000  Uiso   1.00
C186   C     0.21824   0.35570   0.20902   0.00000  Uiso   1.00
C187   C     0.25548   0.41252   0.21476   0.00000  Uiso   1.00
C188   C     0.38206   0.45752   0.17364   0.00000  Uiso   1.00
C189   C     0.57646   0.54570   0.11831   0.00000  Uiso   1.00
C190   C     0.13461   0.23475   0.28383   0.00000  Uiso   1.00
C191   C     0.10152   0.18989   0.35249   0.00000  Uiso   1.00
C192   C     0.15768   0.13306   0.37434   0.00000  Uiso   1.00
C193   C     0.22216   0.03345   0.43516   0.00000  Uiso   1.00
C194   C     0.00971   0.29511   0.19738   0.00000  Uiso   1.00
C195   C     0.87158   0.30098   0.19335   0.00000  Uiso   1.00
C196   C     0.82257   0.29495   0.14242   0.00000  Uiso   1.00
C197   C     0.69312   0.28906   0.06901   0.00000  Uiso   1.00
C198   C     0.24320   0.27888   0.16584   0.00000  Uiso   1.00
C199   C     0.30437   0.34421   0.16380   0.00000  Uiso   1.00
C200   C     0.43092   0.38913   0.12265   0.00000  Uiso   1.00
C201   C     0.46834   0.44602   0.12833   0.00000  Uiso   1.00
C202   C     0.22074   0.22327   0.23862   0.00000  Uiso   1.00
C203   C     0.27696   0.16650   0.26037   0.00000  Uiso   1.00
C204   C     0.24397   0.12156   0.32904   0.00000  Uiso   1.00
C205   C     0.09584   0.28363   0.15216   0.00000  Uiso   1.00
C206   C     0.04703   0.27759   0.10123   0.00000  Uiso   1.00
C207   C     0.90886   0.28345   0.09712   0.00000  Uiso   1.00
H208   H     0.01757   0.30895   0.28430   0.00000  Uiso   1.00
H209   H     0.18880   0.42139   0.24977   0.00000  Uiso   1.00
H210   H     0.03485   0.19878   0.38747   0.00000  Uiso   1.00
H211   H     0.80496   0.30986   0.22835   0.00000  Uiso   1.00
H212   H     0.41665   0.54097   0.19156   0.00000  Uiso   1.00
H213   H     0.09200   0.07158   0.48190   0.00000  Uiso   1.00
H214   H     0.60721   0.30581   0.14637   0.00000  Uiso   1.00
H215   H     0.31026   0.26994   0.13063   0.00000  Uiso   1.00
H216   H     0.49755   0.38023   0.08766   0.00000  Uiso   1.00
H217   H     0.34360   0.15762   0.22536   0.00000  Uiso   1.00
H218   H     0.11371   0.26870   0.06625   0.00000  Uiso   1.00
H219   H     0.66725   0.50756   0.05999   0.00000  Uiso   1.00
H220   H     0.34259   0.03817   0.35033   0.00000  Uiso   1.00
H221   H     0.85781   0.27240   0.01480   0.00000  Uiso   1.00
O222   O     0.65990   0.59751   0.10030   0.00000  Uiso   1.00
O223   O     0.23394   0.98169   0.48121   0.00000  Uiso   1.00
O224   O     0.59793   0.28900   0.04101   0.00000  Uiso   1.00
N225   N     0.44991   0.51798   0.16648   0.00000  Uiso   1.00
N226   N     0.14640   0.07913   0.43793   0.00000  Uiso   1.00
N227   N     0.69315   0.29810   0.12426   0.00000  Uiso   1.00
N228   N     0.58475   0.50000   0.09568   0.00000  Uiso   1.00
N229   N     0.28124   0.06115   0.36714   0.00000  Uiso   1.00
N230   N     0.82800   0.28012   0.05346   0.00000  Uiso   1.00
C231   C     0.78801   0.45151   0.29914   0.00000  Uiso   1.00
C232   C     0.86708   0.43578   0.35535   0.00000  Uiso   1.00
C233   C     0.84896   0.37333   0.41212   0.00000  Uiso   1.00
C234   C     0.93142   0.36931   0.45765   0.00000  Uiso   1.00
C235   C     0.03949   0.33629   0.54657   0.00000  Uiso   1.00
C236   C     0.90136   0.48162   0.23438   0.00000  Uiso   1.00
C237   C     0.91204   0.45772   0.18943   0.00000  Uiso   1.00
C238   C     0.02334   0.49230   0.13313   0.00000  Uiso   1.00
C239   C     0.18457   0.53048   0.03422   0.00000  Uiso   1.00
C240   C     0.71802   0.50834   0.29392   0.00000  Uiso   1.00
C241   C     0.57454   0.50691   0.29902   0.00000  Uiso   1.00
C242   C     0.53149   0.56399   0.29283   0.00000  Uiso   1.00
C243   C     0.40804   0.64366   0.28637   0.00000  Uiso   1.00
C244   C     0.96666   0.55542   0.27905   0.00000  Uiso   1.00
C245   C     0.96412   0.49222   0.34444   0.00000  Uiso   1.00
C246   C     0.04662   0.48829   0.38990   0.00000  Uiso   1.00
C247   C     0.02862   0.42585   0.44673   0.00000  Uiso   1.00
C248   C     0.99839   0.53806   0.22347   0.00000  Uiso   1.00
C249   C     0.10970   0.57268   0.16722   0.00000  Uiso   1.00
C250   C     0.12055   0.54884   0.12220   0.00000  Uiso   1.00
C251   C     0.81505   0.56478   0.28301   0.00000  Uiso   1.00
C252   C     0.77220   0.62187   0.27681   0.00000  Uiso   1.00
C253   C     0.62870   0.62053   0.28190   0.00000  Uiso   1.00
H254   H     0.71247   0.40757   0.30763   0.00000  Uiso   1.00
H255   H     0.77387   0.32966   0.42054   0.00000  Uiso   1.00
H256   H     0.83693   0.41405   0.19789   0.00000  Uiso   1.00
H257   H     0.49949   0.46323   0.30746   0.00000  Uiso   1.00
H258   H     0.88477   0.26817   0.54090   0.00000  Uiso   1.00
H259   H     0.01771   0.44611   0.07142   0.00000  Uiso   1.00
H260   H     0.30615   0.54982   0.30247   0.00000  Uiso   1.00
H261   H     0.04220   0.59936   0.27056   0.00000  Uiso   1.00
H262   H     0.12170   0.53198   0.38144   0.00000  Uiso   1.00
H263   H     0.18476   0.61636   0.15879   0.00000  Uiso   1.00
H264   H     0.84732   0.66554   0.26836   0.00000  Uiso   1.00
H265   H     0.16709   0.43237   0.50916   0.00000  Uiso   1.00
H266   H     0.30002   0.61032   0.03968   0.00000  Uiso   1.00
H267   H     0.58847   0.71403   0.27074   0.00000  Uiso   1.00
O268   O     0.07231   0.30248   0.59863   0.00000  Uiso   1.00
O269   O     0.24670   0.53594   0.98268   0.00000  Uiso   1.00
O270   O     0.31315   0.67200   0.28583   0.00000  Uiso   1.00
N271   N     0.94029   0.31607   0.51822   0.00000  Uiso   1.00
N272   N     0.06459   0.48242   0.07929   0.00000  Uiso   1.00
N273   N     0.39934   0.57939   0.29529   0.00000  Uiso   1.00
N274   N     0.09220   0.40442   0.50114   0.00000  Uiso   1.00
N275   N     0.21650   0.57078   0.06221   0.00000  Uiso   1.00
N276   N     0.55125   0.66775   0.27822   0.00000  Uiso   1.00
