data_job_05822
_audit_creation_date              2018-12-19
_audit_creation_method            'Materials Studio'
_symmetry_space_group_name_H-M    'P1'
_symmetry_Int_Tables_number       1
_symmetry_cell_setting            triclinic
loop_
_symmetry_equiv_pos_as_xyz
  x,y,z
_cell_length_a                    18.9769
_cell_length_b                    21.0844
_cell_length_c                    23.1938
_cell_angle_alpha                 90.0000
_cell_angle_beta                  90.0000
_cell_angle_gamma                 90.0000
loop_
_atom_site_label
_atom_site_type_symbol
_atom_site_fract_x
_atom_site_fract_y
_atom_site_fract_z
_atom_site_U_iso_or_equiv
_atom_site_adp_type
_atom_site_occupancy
C1     C     0.11858   0.44317   0.38610   0.00000  Uiso   1.00
C2     C     0.18438   0.41451   0.35879   0.00000  Uiso   1.00
C3     C     0.18983   0.39241   0.30260   0.00000  Uiso   1.00
C4     C     0.25456   0.36790   0.28584   0.00000  Uiso   1.00
C5     C     0.34802   0.32371   0.23765   0.00000  Uiso   1.00
C6     C     0.10336   0.40351   0.43965   0.00000  Uiso   1.00
C7     C     0.04067   0.37219   0.45145   0.00000  Uiso   1.00
C8     C     0.03720   0.33842   0.50277   0.00000  Uiso   1.00
C9     C     0.00485   0.27721   0.58014   0.00000  Uiso   1.00
C10    C     0.14017   0.50856   0.40793   0.00000  Uiso   1.00
C11    C     0.10842   0.56556   0.39307   0.00000  Uiso   1.00
C12    C     0.13593   0.62024   0.41769   0.00000  Uiso   1.00
C13    C     0.16073   0.72214   0.44581   0.00000  Uiso   1.00
C14    C     0.22387   0.43891   0.45625   0.00000  Uiso   1.00
C15    C     0.24157   0.41219   0.39690   0.00000  Uiso   1.00
C16    C     0.30632   0.38771   0.38022   0.00000  Uiso   1.00
C17    C     0.31186   0.36558   0.32401   0.00000  Uiso   1.00
C18    C     0.16054   0.40120   0.47775   0.00000  Uiso   1.00
C19    C     0.15716   0.36748   0.52907   0.00000  Uiso   1.00
C20    C     0.09450   0.33611   0.54094   0.00000  Uiso   1.00
C21    C     0.19735   0.50625   0.44603   0.00000  Uiso   1.00
C22    C     0.22492   0.56085   0.47068   0.00000  Uiso   1.00
C23    C     0.19322   0.61793   0.45587   0.00000  Uiso   1.00
H24    H     0.07406   0.44496   0.35644   0.00000  Uiso   1.00
H25    H     0.14555   0.39420   0.27313   0.00000  Uiso   1.00
H26    H     0.99642   0.37399   0.42196   0.00000  Uiso   1.00
H27    H     0.06417   0.56733   0.36359   0.00000  Uiso   1.00
H28    H     0.25003   0.33689   0.19758   0.00000  Uiso   1.00
H29    H     0.93558   0.29428   0.51141   0.00000  Uiso   1.00
H30    H     0.07842   0.70199   0.38831   0.00000  Uiso   1.00
H31    H     0.26840   0.43711   0.48592   0.00000  Uiso   1.00
H32    H     0.35056   0.38592   0.40971   0.00000  Uiso   1.00
H33    H     0.20143   0.36570   0.55855   0.00000  Uiso   1.00
H34    H     0.26917   0.55905   0.50017   0.00000  Uiso   1.00
H35    H     0.41643   0.33016   0.30844   0.00000  Uiso   1.00
H36    H     0.10196   0.28755   0.62227   0.00000  Uiso   1.00
H37    H     0.24481   0.69526   0.49917   0.00000  Uiso   1.00
O38    O     0.38377   0.29997   0.20055   0.00000  Uiso   1.00
O39    O     0.97121   0.24408   0.61229   0.00000  Uiso   1.00
O40    O     0.15862   0.77898   0.45078   0.00000  Uiso   1.00
N41    N     0.27792   0.34234   0.23412   0.00000  Uiso   1.00
N42    N     0.98393   0.30249   0.52753   0.00000  Uiso   1.00
N43    N     0.11746   0.68367   0.41246   0.00000  Uiso   1.00
N44    N     0.36746   0.33872   0.29378   0.00000  Uiso   1.00
N45    N     0.07346   0.29888   0.58718   0.00000  Uiso   1.00
N46    N     0.20700   0.68005   0.47211   0.00000  Uiso   1.00
C47    C     0.89941   0.94190   0.60006   0.00000  Uiso   1.00
C48    C     0.84530   0.91002   0.63909   0.00000  Uiso   1.00
C49    C     0.85661   0.89101   0.69562   0.00000  Uiso   1.00
C50    C     0.80042   0.86271   0.72403   0.00000  Uiso   1.00
C51    C     0.72632   0.81455   0.78877   0.00000  Uiso   1.00
C52    C     0.90474   0.90038   0.54640   0.00000  Uiso   1.00
C53    C     0.96604   0.87326   0.52500   0.00000  Uiso   1.00
C54    C     0.95988   0.83684   0.47538   0.00000  Uiso   1.00
C55    C     0.97808   0.77375   0.39619   0.00000  Uiso   1.00
C56    C     0.86600   0.00400   0.58037   0.00000  Uiso   1.00
C57    C     0.89473   0.06402   0.58751   0.00000  Uiso   1.00
C58    C     0.85596   0.11485   0.56648   0.00000  Uiso   1.00
C59    C     0.81401   0.21265   0.54002   0.00000  Uiso   1.00
C60    C     0.77949   0.92544   0.54999   0.00000  Uiso   1.00
C61    C     0.78017   0.90108   0.61189   0.00000  Uiso   1.00
C62    C     0.72394   0.87280   0.64022   0.00000  Uiso   1.00
C63    C     0.73517   0.85375   0.69679   0.00000  Uiso   1.00
C64    C     0.83961   0.89143   0.51921   0.00000  Uiso   1.00
C65    C     0.83337   0.85505   0.46960   0.00000  Uiso   1.00
C66    C     0.89463   0.82789   0.44813   0.00000  Uiso   1.00
C67    C     0.80087   0.99507   0.55317   0.00000  Uiso   1.00
C68    C     0.76205   0.04581   0.53212   0.00000  Uiso   1.00
C69    C     0.79071   0.10590   0.53923   0.00000  Uiso   1.00
H70    H     0.95012   0.94885   0.62123   0.00000  Uiso   1.00
H71    H     0.90703   0.89793   0.71665   0.00000  Uiso   1.00
H72    H     0.01643   0.88019   0.54605   0.00000  Uiso   1.00
H73    H     0.94513   0.07092   0.60856   0.00000  Uiso   1.00
H74    H     0.83054   0.83752   0.81044   0.00000  Uiso   1.00
H75    H     0.06123   0.80013   0.45072   0.00000  Uiso   1.00
H76    H     0.91088   0.20232   0.58252   0.00000  Uiso   1.00
H77    H     0.72878   0.91848   0.52881   0.00000  Uiso   1.00
H78    H     0.67354   0.86589   0.61917   0.00000  Uiso   1.00
H79    H     0.78295   0.84815   0.44857   0.00000  Uiso   1.00
H80    H     0.71165   0.03888   0.51107   0.00000  Uiso   1.00
H81    H     0.64103   0.81150   0.73132   0.00000  Uiso   1.00
H82    H     0.87173   0.77412   0.37159   0.00000  Uiso   1.00
H83    H     0.72138   0.17631   0.50340   0.00000  Uiso   1.00
O84    O     0.70345   0.79044   0.83198   0.00000  Uiso   1.00
O85    O     0.00612   0.74141   0.36003   0.00000  Uiso   1.00
O86    O     0.80886   0.26907   0.53295   0.00000  Uiso   1.00
N87    N     0.79351   0.83862   0.77943   0.00000  Uiso   1.00
N88    N     0.00920   0.80366   0.44311   0.00000  Uiso   1.00
N89    N     0.86864   0.17967   0.56632   0.00000  Uiso   1.00
N90    N     0.69154   0.82463   0.73685   0.00000  Uiso   1.00
N91    N     0.90723   0.78966   0.40053   0.00000  Uiso   1.00
N92    N     0.76667   0.16568   0.52374   0.00000  Uiso   1.00
C93    C     0.88142   0.55683   0.88610   0.00000  Uiso   1.00
C94    C     0.81562   0.58549   0.85879   0.00000  Uiso   1.00
C95    C     0.81017   0.60759   0.80260   0.00000  Uiso   1.00
C96    C     0.74544   0.63210   0.78584   0.00000  Uiso   1.00
C97    C     0.65198   0.67629   0.73765   0.00000  Uiso   1.00
C98    C     0.89664   0.59649   0.93965   0.00000  Uiso   1.00
C99    C     0.95933   0.62781   0.95145   0.00000  Uiso   1.00
C100   C     0.96280   0.66158   0.00277   0.00000  Uiso   1.00
C101   C     0.99515   0.72279   0.08014   0.00000  Uiso   1.00
C102   C     0.85983   0.49144   0.90793   0.00000  Uiso   1.00
C103   C     0.89158   0.43444   0.89307   0.00000  Uiso   1.00
C104   C     0.86407   0.37976   0.91769   0.00000  Uiso   1.00
C105   C     0.83927   0.27786   0.94581   0.00000  Uiso   1.00
C106   C     0.77613   0.56109   0.95625   0.00000  Uiso   1.00
C107   C     0.75843   0.58781   0.89690   0.00000  Uiso   1.00
C108   C     0.69368   0.61229   0.88022   0.00000  Uiso   1.00
C109   C     0.68814   0.63442   0.82401   0.00000  Uiso   1.00
C110   C     0.83946   0.59880   0.97775   0.00000  Uiso   1.00
C111   C     0.84284   0.63252   0.02907   0.00000  Uiso   1.00
C112   C     0.90550   0.66389   0.04094   0.00000  Uiso   1.00
C113   C     0.80265   0.49375   0.94603   0.00000  Uiso   1.00
C114   C     0.77508   0.43915   0.97068   0.00000  Uiso   1.00
C115   C     0.80678   0.38207   0.95587   0.00000  Uiso   1.00
H116   H     0.92594   0.55504   0.85644   0.00000  Uiso   1.00
H117   H     0.85445   0.60580   0.77313   0.00000  Uiso   1.00
H118   H     0.00358   0.62601   0.92196   0.00000  Uiso   1.00
H119   H     0.93583   0.43267   0.86359   0.00000  Uiso   1.00
H120   H     0.74997   0.66311   0.69758   0.00000  Uiso   1.00
H121   H     0.06442   0.70572   0.01141   0.00000  Uiso   1.00
H122   H     0.92158   0.29801   0.88831   0.00000  Uiso   1.00
H123   H     0.73160   0.56289   0.98592   0.00000  Uiso   1.00
H124   H     0.64944   0.61408   0.90971   0.00000  Uiso   1.00
H125   H     0.79857   0.63430   0.05855   0.00000  Uiso   1.00
H126   H     0.73083   0.44095   0.00017   0.00000  Uiso   1.00
H127   H     0.58357   0.66984   0.80844   0.00000  Uiso   1.00
H128   H     0.89804   0.71245   0.12227   0.00000  Uiso   1.00
H129   H     0.75519   0.30474   0.99917   0.00000  Uiso   1.00
O130   O     0.61623   0.70003   0.70055   0.00000  Uiso   1.00
O131   O     0.02879   0.75592   0.11229   0.00000  Uiso   1.00
O132   O     0.84138   0.22102   0.95078   0.00000  Uiso   1.00
N133   N     0.72208   0.65766   0.73412   0.00000  Uiso   1.00
N134   N     0.01607   0.69751   0.02753   0.00000  Uiso   1.00
N135   N     0.88254   0.31633   0.91246   0.00000  Uiso   1.00
N136   N     0.63254   0.66128   0.79378   0.00000  Uiso   1.00
N137   N     0.92654   0.70112   0.08718   0.00000  Uiso   1.00
N138   N     0.79300   0.31995   0.97211   0.00000  Uiso   1.00
C139   C     0.10059   0.05810   0.10006   0.00000  Uiso   1.00
C140   C     0.15470   0.08998   0.13909   0.00000  Uiso   1.00
C141   C     0.14339   0.10899   0.19562   0.00000  Uiso   1.00
C142   C     0.19958   0.13729   0.22403   0.00000  Uiso   1.00
C143   C     0.27368   0.18545   0.28877   0.00000  Uiso   1.00
C144   C     0.09526   0.09962   0.04640   0.00000  Uiso   1.00
C145   C     0.03396   0.12674   0.02500   0.00000  Uiso   1.00
C146   C     0.04012   0.16316   0.97538   0.00000  Uiso   1.00
C147   C     0.02192   0.22625   0.89619   0.00000  Uiso   1.00
C148   C     0.13400   0.99600   0.08037   0.00000  Uiso   1.00
C149   C     0.10527   0.93598   0.08751   0.00000  Uiso   1.00
C150   C     0.14404   0.88515   0.06648   0.00000  Uiso   1.00
C151   C     0.18599   0.78735   0.04002   0.00000  Uiso   1.00
C152   C     0.22051   0.07456   0.04999   0.00000  Uiso   1.00
C153   C     0.21983   0.09892   0.11189   0.00000  Uiso   1.00
C154   C     0.27606   0.12720   0.14022   0.00000  Uiso   1.00
C155   C     0.26483   0.14625   0.19679   0.00000  Uiso   1.00
C156   C     0.16039   0.10857   0.01921   0.00000  Uiso   1.00
C157   C     0.16663   0.14495   0.96960   0.00000  Uiso   1.00
C158   C     0.10537   0.17211   0.94813   0.00000  Uiso   1.00
C159   C     0.19913   0.00493   0.05317   0.00000  Uiso   1.00
C160   C     0.23795   0.95419   0.03212   0.00000  Uiso   1.00
C161   C     0.20929   0.89410   0.03923   0.00000  Uiso   1.00
H162   H     0.04988   0.05115   0.12123   0.00000  Uiso   1.00
H163   H     0.09297   0.10207   0.21665   0.00000  Uiso   1.00
H164   H     0.98357   0.11981   0.04605   0.00000  Uiso   1.00
H165   H     0.05487   0.92908   0.10856   0.00000  Uiso   1.00
H166   H     0.16946   0.16248   0.31044   0.00000  Uiso   1.00
H167   H     0.93877   0.19987   0.95072   0.00000  Uiso   1.00
H168   H     0.08912   0.79768   0.08252   0.00000  Uiso   1.00
H169   H     0.27122   0.08152   0.02881   0.00000  Uiso   1.00
H170   H     0.32646   0.13411   0.11917   0.00000  Uiso   1.00
H171   H     0.21705   0.15185   0.94857   0.00000  Uiso   1.00
H172   H     0.28835   0.96112   0.01107   0.00000  Uiso   1.00
H173   H     0.35897   0.18850   0.23132   0.00000  Uiso   1.00
H174   H     0.12827   0.22588   0.87159   0.00000  Uiso   1.00
H175   H     0.27862   0.82369   0.00340   0.00000  Uiso   1.00
O176   O     0.29655   0.20956   0.33198   0.00000  Uiso   1.00
O177   O     0.99388   0.25859   0.86003   0.00000  Uiso   1.00
O178   O     0.19114   0.73093   0.03295   0.00000  Uiso   1.00
N179   N     0.20649   0.16138   0.27943   0.00000  Uiso   1.00
N180   N     0.99080   0.19634   0.94311   0.00000  Uiso   1.00
N181   N     0.13136   0.82033   0.06632   0.00000  Uiso   1.00
N182   N     0.30846   0.17537   0.23685   0.00000  Uiso   1.00
N183   N     0.09277   0.21034   0.90053   0.00000  Uiso   1.00
N184   N     0.23333   0.83432   0.02374   0.00000  Uiso   1.00
C185   C     0.61858   0.55683   0.38610   0.00000  Uiso   1.00
C186   C     0.68438   0.58549   0.35879   0.00000  Uiso   1.00
C187   C     0.68983   0.60759   0.30260   0.00000  Uiso   1.00
C188   C     0.75456   0.63210   0.28584   0.00000  Uiso   1.00
C189   C     0.84802   0.67629   0.23765   0.00000  Uiso   1.00
C190   C     0.60336   0.59649   0.43965   0.00000  Uiso   1.00
C191   C     0.54067   0.62781   0.45145   0.00000  Uiso   1.00
C192   C     0.53720   0.66158   0.50277   0.00000  Uiso   1.00
C193   C     0.50485   0.72279   0.58014   0.00000  Uiso   1.00
C194   C     0.64017   0.49144   0.40793   0.00000  Uiso   1.00
C195   C     0.60842   0.43444   0.39307   0.00000  Uiso   1.00
C196   C     0.63593   0.37976   0.41769   0.00000  Uiso   1.00
C197   C     0.66073   0.27786   0.44581   0.00000  Uiso   1.00
C198   C     0.72387   0.56109   0.45625   0.00000  Uiso   1.00
C199   C     0.74157   0.58781   0.39690   0.00000  Uiso   1.00
C200   C     0.80632   0.61229   0.38022   0.00000  Uiso   1.00
C201   C     0.81186   0.63442   0.32401   0.00000  Uiso   1.00
C202   C     0.66054   0.59880   0.47775   0.00000  Uiso   1.00
C203   C     0.65716   0.63252   0.52907   0.00000  Uiso   1.00
C204   C     0.59450   0.66389   0.54094   0.00000  Uiso   1.00
C205   C     0.69735   0.49375   0.44603   0.00000  Uiso   1.00
C206   C     0.72492   0.43915   0.47068   0.00000  Uiso   1.00
C207   C     0.69322   0.38207   0.45587   0.00000  Uiso   1.00
H208   H     0.57406   0.55504   0.35644   0.00000  Uiso   1.00
H209   H     0.64555   0.60580   0.27313   0.00000  Uiso   1.00
H210   H     0.49642   0.62601   0.42196   0.00000  Uiso   1.00
H211   H     0.56417   0.43267   0.36359   0.00000  Uiso   1.00
H212   H     0.75003   0.66311   0.19758   0.00000  Uiso   1.00
H213   H     0.43558   0.70572   0.51141   0.00000  Uiso   1.00
H214   H     0.57842   0.29801   0.38831   0.00000  Uiso   1.00
H215   H     0.76840   0.56289   0.48592   0.00000  Uiso   1.00
H216   H     0.85056   0.61408   0.40971   0.00000  Uiso   1.00
H217   H     0.70143   0.63430   0.55855   0.00000  Uiso   1.00
H218   H     0.76917   0.44095   0.50017   0.00000  Uiso   1.00
H219   H     0.91643   0.66984   0.30844   0.00000  Uiso   1.00
H220   H     0.60196   0.71245   0.62227   0.00000  Uiso   1.00
H221   H     0.74481   0.30474   0.49917   0.00000  Uiso   1.00
O222   O     0.88377   0.70003   0.20055   0.00000  Uiso   1.00
O223   O     0.47121   0.75592   0.61229   0.00000  Uiso   1.00
O224   O     0.65862   0.22102   0.45078   0.00000  Uiso   1.00
N225   N     0.77792   0.65766   0.23412   0.00000  Uiso   1.00
N226   N     0.48393   0.69751   0.52753   0.00000  Uiso   1.00
N227   N     0.61746   0.31633   0.41246   0.00000  Uiso   1.00
N228   N     0.86746   0.66128   0.29378   0.00000  Uiso   1.00
N229   N     0.57346   0.70112   0.58718   0.00000  Uiso   1.00
N230   N     0.70700   0.31995   0.47211   0.00000  Uiso   1.00
C231   C     0.39941   0.05810   0.60006   0.00000  Uiso   1.00
C232   C     0.34530   0.08998   0.63909   0.00000  Uiso   1.00
C233   C     0.35661   0.10899   0.69562   0.00000  Uiso   1.00
C234   C     0.30042   0.13729   0.72403   0.00000  Uiso   1.00
C235   C     0.22632   0.18545   0.78877   0.00000  Uiso   1.00
C236   C     0.40474   0.09962   0.54640   0.00000  Uiso   1.00
C237   C     0.46604   0.12674   0.52500   0.00000  Uiso   1.00
C238   C     0.45988   0.16316   0.47538   0.00000  Uiso   1.00
C239   C     0.47808   0.22625   0.39619   0.00000  Uiso   1.00
C240   C     0.36600   0.99600   0.58037   0.00000  Uiso   1.00
C241   C     0.39473   0.93598   0.58751   0.00000  Uiso   1.00
C242   C     0.35596   0.88515   0.56648   0.00000  Uiso   1.00
C243   C     0.31401   0.78735   0.54002   0.00000  Uiso   1.00
C244   C     0.27949   0.07456   0.54999   0.00000  Uiso   1.00
C245   C     0.28017   0.09892   0.61189   0.00000  Uiso   1.00
C246   C     0.22394   0.12720   0.64022   0.00000  Uiso   1.00
C247   C     0.23517   0.14625   0.69679   0.00000  Uiso   1.00
C248   C     0.33961   0.10857   0.51921   0.00000  Uiso   1.00
C249   C     0.33337   0.14495   0.46960   0.00000  Uiso   1.00
C250   C     0.39463   0.17211   0.44813   0.00000  Uiso   1.00
C251   C     0.30087   0.00493   0.55317   0.00000  Uiso   1.00
C252   C     0.26205   0.95419   0.53212   0.00000  Uiso   1.00
C253   C     0.29071   0.89410   0.53923   0.00000  Uiso   1.00
H254   H     0.45012   0.05115   0.62123   0.00000  Uiso   1.00
H255   H     0.40703   0.10207   0.71665   0.00000  Uiso   1.00
H256   H     0.51643   0.11981   0.54605   0.00000  Uiso   1.00
H257   H     0.44513   0.92908   0.60856   0.00000  Uiso   1.00
H258   H     0.33054   0.16248   0.81044   0.00000  Uiso   1.00
H259   H     0.56123   0.19987   0.45072   0.00000  Uiso   1.00
H260   H     0.41088   0.79768   0.58252   0.00000  Uiso   1.00
H261   H     0.22878   0.08152   0.52881   0.00000  Uiso   1.00
H262   H     0.17354   0.13411   0.61917   0.00000  Uiso   1.00
H263   H     0.28295   0.15185   0.44857   0.00000  Uiso   1.00
H264   H     0.21165   0.96112   0.51107   0.00000  Uiso   1.00
H265   H     0.14103   0.18850   0.73132   0.00000  Uiso   1.00
H266   H     0.37173   0.22588   0.37159   0.00000  Uiso   1.00
H267   H     0.22138   0.82369   0.50340   0.00000  Uiso   1.00
O268   O     0.20345   0.20956   0.83198   0.00000  Uiso   1.00
O269   O     0.50612   0.25859   0.36003   0.00000  Uiso   1.00
O270   O     0.30886   0.73093   0.53295   0.00000  Uiso   1.00
N271   N     0.29351   0.16138   0.77943   0.00000  Uiso   1.00
N272   N     0.50920   0.19634   0.44311   0.00000  Uiso   1.00
N273   N     0.36864   0.82033   0.56632   0.00000  Uiso   1.00
N274   N     0.19154   0.17537   0.73685   0.00000  Uiso   1.00
N275   N     0.40723   0.21034   0.40053   0.00000  Uiso   1.00
N276   N     0.26667   0.83432   0.52374   0.00000  Uiso   1.00
C277   C     0.38142   0.44317   0.88610   0.00000  Uiso   1.00
C278   C     0.31562   0.41451   0.85879   0.00000  Uiso   1.00
C279   C     0.31017   0.39241   0.80260   0.00000  Uiso   1.00
C280   C     0.24544   0.36790   0.78584   0.00000  Uiso   1.00
C281   C     0.15198   0.32371   0.73765   0.00000  Uiso   1.00
C282   C     0.39664   0.40351   0.93965   0.00000  Uiso   1.00
C283   C     0.45933   0.37219   0.95145   0.00000  Uiso   1.00
C284   C     0.46280   0.33842   0.00277   0.00000  Uiso   1.00
C285   C     0.49515   0.27721   0.08014   0.00000  Uiso   1.00
C286   C     0.35983   0.50856   0.90793   0.00000  Uiso   1.00
C287   C     0.39158   0.56556   0.89307   0.00000  Uiso   1.00
C288   C     0.36407   0.62024   0.91769   0.00000  Uiso   1.00
C289   C     0.33927   0.72214   0.94581   0.00000  Uiso   1.00
C290   C     0.27613   0.43891   0.95625   0.00000  Uiso   1.00
C291   C     0.25843   0.41219   0.89690   0.00000  Uiso   1.00
C292   C     0.19368   0.38771   0.88022   0.00000  Uiso   1.00
C293   C     0.18814   0.36558   0.82401   0.00000  Uiso   1.00
C294   C     0.33946   0.40120   0.97775   0.00000  Uiso   1.00
C295   C     0.34284   0.36748   0.02907   0.00000  Uiso   1.00
C296   C     0.40550   0.33611   0.04094   0.00000  Uiso   1.00
C297   C     0.30265   0.50625   0.94603   0.00000  Uiso   1.00
C298   C     0.27508   0.56085   0.97068   0.00000  Uiso   1.00
C299   C     0.30678   0.61793   0.95587   0.00000  Uiso   1.00
H300   H     0.42594   0.44496   0.85644   0.00000  Uiso   1.00
H301   H     0.35445   0.39420   0.77313   0.00000  Uiso   1.00
H302   H     0.50358   0.37399   0.92196   0.00000  Uiso   1.00
H303   H     0.43583   0.56733   0.86359   0.00000  Uiso   1.00
H304   H     0.24997   0.33689   0.69758   0.00000  Uiso   1.00
H305   H     0.56442   0.29428   0.01141   0.00000  Uiso   1.00
H306   H     0.42158   0.70199   0.88831   0.00000  Uiso   1.00
H307   H     0.23160   0.43711   0.98592   0.00000  Uiso   1.00
H308   H     0.14944   0.38592   0.90971   0.00000  Uiso   1.00
H309   H     0.29857   0.36570   0.05855   0.00000  Uiso   1.00
H310   H     0.23083   0.55905   0.00017   0.00000  Uiso   1.00
H311   H     0.08357   0.33016   0.80844   0.00000  Uiso   1.00
H312   H     0.39804   0.28755   0.12227   0.00000  Uiso   1.00
H313   H     0.25519   0.69526   0.99917   0.00000  Uiso   1.00
O314   O     0.11623   0.29997   0.70055   0.00000  Uiso   1.00
O315   O     0.52879   0.24408   0.11229   0.00000  Uiso   1.00
O316   O     0.34138   0.77898   0.95078   0.00000  Uiso   1.00
N317   N     0.22208   0.34234   0.73412   0.00000  Uiso   1.00
N318   N     0.51607   0.30249   0.02753   0.00000  Uiso   1.00
N319   N     0.38254   0.68367   0.91246   0.00000  Uiso   1.00
N320   N     0.13254   0.33872   0.79378   0.00000  Uiso   1.00
N321   N     0.42654   0.29888   0.08718   0.00000  Uiso   1.00
N322   N     0.29300   0.68005   0.97211   0.00000  Uiso   1.00
C323   C     0.60059   0.94190   0.10006   0.00000  Uiso   1.00
C324   C     0.65470   0.91002   0.13909   0.00000  Uiso   1.00
C325   C     0.64339   0.89101   0.19562   0.00000  Uiso   1.00
C326   C     0.69958   0.86271   0.22403   0.00000  Uiso   1.00
C327   C     0.77368   0.81455   0.28877   0.00000  Uiso   1.00
C328   C     0.59526   0.90038   0.04640   0.00000  Uiso   1.00
C329   C     0.53396   0.87326   0.02500   0.00000  Uiso   1.00
C330   C     0.54012   0.83684   0.97538   0.00000  Uiso   1.00
C331   C     0.52192   0.77375   0.89619   0.00000  Uiso   1.00
C332   C     0.63400   0.00400   0.08037   0.00000  Uiso   1.00
C333   C     0.60527   0.06402   0.08751   0.00000  Uiso   1.00
C334   C     0.64404   0.11485   0.06648   0.00000  Uiso   1.00
C335   C     0.68599   0.21265   0.04002   0.00000  Uiso   1.00
C336   C     0.72051   0.92544   0.04999   0.00000  Uiso   1.00
C337   C     0.71983   0.90108   0.11189   0.00000  Uiso   1.00
C338   C     0.77606   0.87280   0.14022   0.00000  Uiso   1.00
C339   C     0.76483   0.85375   0.19679   0.00000  Uiso   1.00
C340   C     0.66039   0.89143   0.01921   0.00000  Uiso   1.00
C341   C     0.66663   0.85505   0.96960   0.00000  Uiso   1.00
C342   C     0.60537   0.82789   0.94813   0.00000  Uiso   1.00
C343   C     0.69913   0.99507   0.05317   0.00000  Uiso   1.00
C344   C     0.73795   0.04581   0.03212   0.00000  Uiso   1.00
C345   C     0.70929   0.10590   0.03923   0.00000  Uiso   1.00
H346   H     0.54988   0.94885   0.12123   0.00000  Uiso   1.00
H347   H     0.59297   0.89793   0.21665   0.00000  Uiso   1.00
H348   H     0.48357   0.88019   0.04605   0.00000  Uiso   1.00
H349   H     0.55487   0.07092   0.10856   0.00000  Uiso   1.00
H350   H     0.66946   0.83752   0.31044   0.00000  Uiso   1.00
H351   H     0.43877   0.80013   0.95072   0.00000  Uiso   1.00
H352   H     0.58912   0.20232   0.08252   0.00000  Uiso   1.00
H353   H     0.77122   0.91848   0.02881   0.00000  Uiso   1.00
H354   H     0.82646   0.86589   0.11917   0.00000  Uiso   1.00
H355   H     0.71705   0.84815   0.94857   0.00000  Uiso   1.00
H356   H     0.78835   0.03888   0.01107   0.00000  Uiso   1.00
H357   H     0.85897   0.81150   0.23132   0.00000  Uiso   1.00
H358   H     0.62827   0.77412   0.87159   0.00000  Uiso   1.00
H359   H     0.77862   0.17631   0.00340   0.00000  Uiso   1.00
O360   O     0.79655   0.79044   0.33198   0.00000  Uiso   1.00
O361   O     0.49388   0.74141   0.86003   0.00000  Uiso   1.00
O362   O     0.69114   0.26907   0.03295   0.00000  Uiso   1.00
N363   N     0.70649   0.83862   0.27943   0.00000  Uiso   1.00
N364   N     0.49080   0.80366   0.94311   0.00000  Uiso   1.00
N365   N     0.63136   0.17967   0.06632   0.00000  Uiso   1.00
N366   N     0.80846   0.82463   0.23685   0.00000  Uiso   1.00
N367   N     0.59277   0.78966   0.90053   0.00000  Uiso   1.00
N368   N     0.73333   0.16568   0.02374   0.00000  Uiso   1.00
