data_job_01088
_audit_creation_date              2018-12-19
_audit_creation_method            'Materials Studio'
_symmetry_space_group_name_H-M    'P1'
_symmetry_Int_Tables_number       1
_symmetry_cell_setting            triclinic
loop_
_symmetry_equiv_pos_as_xyz
  x,y,z
_cell_length_a                    12.2984
_cell_length_b                    14.4099
_cell_length_c                    19.1308
_cell_angle_alpha                 90.0000
_cell_angle_beta                  118.8260
_cell_angle_gamma                 90.0000
loop_
_atom_site_label
_atom_site_type_symbol
_atom_site_fract_x
_atom_site_fract_y
_atom_site_fract_z
_atom_site_U_iso_or_equiv
_atom_site_adp_type
_atom_site_occupancy
C1     C     0.46703   0.56784   0.23758   0.00000  Uiso   1.00
C2     C     0.35551   0.52481   0.23987   0.00000  Uiso   1.00
C3     C     0.33891   0.51894   0.30652   0.00000  Uiso   1.00
C4     C     0.23056   0.47702   0.29632   0.00000  Uiso   1.00
C5     C     0.07089   0.41546   0.31118   0.00000  Uiso   1.00
C6     C     0.51911   0.49241   0.20613   0.00000  Uiso   1.00
C7     C     0.64006   0.45930   0.24441   0.00000  Uiso   1.00
C8     C     0.66944   0.39011   0.20579   0.00000  Uiso   1.00
C9     C     0.76378   0.27829   0.16823   0.00000  Uiso   1.00
C10    C     0.41486   0.64243   0.17310   0.00000  Uiso   1.00
C11    C     0.44818   0.73546   0.18360   0.00000  Uiso   1.00
C12    C     0.38980   0.79257   0.11718   0.00000  Uiso   1.00
C13    C     0.32227   0.91368   0.02834   0.00000  Uiso   1.00
C14    C     0.30414   0.50383   0.10093   0.00000  Uiso   1.00
C15    C     0.26704   0.49004   0.16565   0.00000  Uiso   1.00
C16    C     0.15869   0.44813   0.15534   0.00000  Uiso   1.00
C17    C     0.14193   0.44220   0.22197   0.00000  Uiso   1.00
C18    C     0.43064   0.45764   0.13191   0.00000  Uiso   1.00
C19    C     0.45985   0.38849   0.09322   0.00000  Uiso   1.00
C20    C     0.58081   0.35528   0.13144   0.00000  Uiso   1.00
C21    C     0.32638   0.60766   0.09888   0.00000  Uiso   1.00
C22    C     0.26795   0.66464   0.03242   0.00000  Uiso   1.00
C23    C     0.30117   0.75774   0.04282   0.00000  Uiso   1.00
H24    H     0.53592   0.59490   0.29536   0.00000  Uiso   1.00
H25    H     0.40740   0.54585   0.36395   0.00000  Uiso   1.00
H26    H     0.70851   0.48623   0.30184   0.00000  Uiso   1.00
H27    H     0.51665   0.76234   0.24105   0.00000  Uiso   1.00
H28    H     0.22593   0.47610   0.40728   0.00000  Uiso   1.00
H29    H     0.86084   0.35041   0.27629   0.00000  Uiso   1.00
H30    H     0.45626   0.93264   0.14810   0.00000  Uiso   1.00
H31    H     0.23526   0.47676   0.04315   0.00000  Uiso   1.00
H32    H     0.09024   0.42123   0.09790   0.00000  Uiso   1.00
H33    H     0.39136   0.36160   0.03579   0.00000  Uiso   1.00
H34    H     0.19949   0.63771   0.97499   0.00000  Uiso   1.00
H35    H     0.96851   0.37495   0.19134   0.00000  Uiso   1.00
H36    H     0.60343   0.24925   0.06035   0.00000  Uiso   1.00
H37    H     0.19885   0.83149   0.93216   0.00000  Uiso   1.00
O38    O     0.00726   0.39109   0.33988   0.00000  Uiso   1.00
O39    O     0.84025   0.22620   0.16803   0.00000  Uiso   1.00
O40    O     0.30945   0.99008   0.99985   0.00000  Uiso   1.00
N41    N     0.18523   0.45993   0.34894   0.00000  Uiso   1.00
N42    N     0.77884   0.34240   0.22648   0.00000  Uiso   1.00
N43    N     0.40061   0.88674   0.10663   0.00000  Uiso   1.00
N44    N     0.04672   0.40550   0.23274   0.00000  Uiso   1.00
N45    N     0.64032   0.28798   0.11028   0.00000  Uiso   1.00
N46    N     0.26210   0.83231   0.99043   0.00000  Uiso   1.00
C47    C     0.53297   0.06784   0.26242   0.00000  Uiso   1.00
C48    C     0.64449   0.02481   0.26013   0.00000  Uiso   1.00
C49    C     0.66109   0.01894   0.19348   0.00000  Uiso   1.00
C50    C     0.76944   0.97702   0.20368   0.00000  Uiso   1.00
C51    C     0.92911   0.91546   0.18882   0.00000  Uiso   1.00
C52    C     0.48089   0.99241   0.29387   0.00000  Uiso   1.00
C53    C     0.35994   0.95930   0.25559   0.00000  Uiso   1.00
C54    C     0.33056   0.89011   0.29421   0.00000  Uiso   1.00
C55    C     0.23622   0.77829   0.33177   0.00000  Uiso   1.00
C56    C     0.58514   0.14243   0.32690   0.00000  Uiso   1.00
C57    C     0.55182   0.23546   0.31640   0.00000  Uiso   1.00
C58    C     0.61020   0.29257   0.38282   0.00000  Uiso   1.00
C59    C     0.67773   0.41368   0.47166   0.00000  Uiso   1.00
C60    C     0.69586   0.00383   0.39907   0.00000  Uiso   1.00
C61    C     0.73296   0.99004   0.33435   0.00000  Uiso   1.00
C62    C     0.84131   0.94813   0.34466   0.00000  Uiso   1.00
C63    C     0.85807   0.94220   0.27803   0.00000  Uiso   1.00
C64    C     0.56936   0.95764   0.36809   0.00000  Uiso   1.00
C65    C     0.54015   0.88849   0.40678   0.00000  Uiso   1.00
C66    C     0.41919   0.85528   0.36856   0.00000  Uiso   1.00
C67    C     0.67362   0.10766   0.40112   0.00000  Uiso   1.00
C68    C     0.73205   0.16464   0.46758   0.00000  Uiso   1.00
C69    C     0.69883   0.25774   0.45718   0.00000  Uiso   1.00
H70    H     0.46408   0.09490   0.20464   0.00000  Uiso   1.00
H71    H     0.59260   0.04585   0.13605   0.00000  Uiso   1.00
H72    H     0.29149   0.98623   0.19816   0.00000  Uiso   1.00
H73    H     0.48335   0.26234   0.25895   0.00000  Uiso   1.00
H74    H     0.77407   0.97610   0.09272   0.00000  Uiso   1.00
H75    H     0.13916   0.85041   0.22371   0.00000  Uiso   1.00
H76    H     0.54374   0.43264   0.35190   0.00000  Uiso   1.00
H77    H     0.76474   0.97676   0.45685   0.00000  Uiso   1.00
H78    H     0.90976   0.92123   0.40210   0.00000  Uiso   1.00
H79    H     0.60864   0.86160   0.46421   0.00000  Uiso   1.00
H80    H     0.80051   0.13771   0.52501   0.00000  Uiso   1.00
H81    H     0.03149   0.87495   0.30866   0.00000  Uiso   1.00
H82    H     0.39657   0.74925   0.43965   0.00000  Uiso   1.00
H83    H     0.80115   0.33149   0.56784   0.00000  Uiso   1.00
O84    O     0.99274   0.89109   0.16012   0.00000  Uiso   1.00
O85    O     0.15975   0.72620   0.33197   0.00000  Uiso   1.00
O86    O     0.69055   0.49008   0.50015   0.00000  Uiso   1.00
N87    N     0.81477   0.95993   0.15106   0.00000  Uiso   1.00
N88    N     0.22116   0.84240   0.27352   0.00000  Uiso   1.00
N89    N     0.59939   0.38674   0.39337   0.00000  Uiso   1.00
N90    N     0.95328   0.90550   0.26726   0.00000  Uiso   1.00
N91    N     0.35968   0.78798   0.38972   0.00000  Uiso   1.00
N92    N     0.73790   0.33231   0.50957   0.00000  Uiso   1.00
C93    C     0.53297   0.43216   0.76242   0.00000  Uiso   1.00
C94    C     0.64449   0.47519   0.76013   0.00000  Uiso   1.00
C95    C     0.66109   0.48106   0.69348   0.00000  Uiso   1.00
C96    C     0.76944   0.52298   0.70368   0.00000  Uiso   1.00
C97    C     0.92911   0.58454   0.68882   0.00000  Uiso   1.00
C98    C     0.48089   0.50759   0.79387   0.00000  Uiso   1.00
C99    C     0.35994   0.54070   0.75559   0.00000  Uiso   1.00
C100   C     0.33056   0.60989   0.79421   0.00000  Uiso   1.00
C101   C     0.23622   0.72171   0.83177   0.00000  Uiso   1.00
C102   C     0.58514   0.35757   0.82690   0.00000  Uiso   1.00
C103   C     0.55182   0.26454   0.81640   0.00000  Uiso   1.00
C104   C     0.61020   0.20743   0.88282   0.00000  Uiso   1.00
C105   C     0.67773   0.08632   0.97166   0.00000  Uiso   1.00
C106   C     0.69586   0.49617   0.89907   0.00000  Uiso   1.00
C107   C     0.73296   0.50996   0.83435   0.00000  Uiso   1.00
C108   C     0.84131   0.55187   0.84466   0.00000  Uiso   1.00
C109   C     0.85807   0.55780   0.77803   0.00000  Uiso   1.00
C110   C     0.56936   0.54236   0.86809   0.00000  Uiso   1.00
C111   C     0.54015   0.61151   0.90678   0.00000  Uiso   1.00
C112   C     0.41919   0.64472   0.86856   0.00000  Uiso   1.00
C113   C     0.67362   0.39234   0.90112   0.00000  Uiso   1.00
C114   C     0.73205   0.33536   0.96758   0.00000  Uiso   1.00
C115   C     0.69883   0.24226   0.95718   0.00000  Uiso   1.00
H116   H     0.46408   0.40510   0.70464   0.00000  Uiso   1.00
H117   H     0.59260   0.45415   0.63605   0.00000  Uiso   1.00
H118   H     0.29149   0.51377   0.69816   0.00000  Uiso   1.00
H119   H     0.48335   0.23766   0.75895   0.00000  Uiso   1.00
H120   H     0.77407   0.52390   0.59272   0.00000  Uiso   1.00
H121   H     0.13916   0.64959   0.72371   0.00000  Uiso   1.00
H122   H     0.54374   0.06736   0.85190   0.00000  Uiso   1.00
H123   H     0.76474   0.52324   0.95685   0.00000  Uiso   1.00
H124   H     0.90976   0.57877   0.90210   0.00000  Uiso   1.00
H125   H     0.60864   0.63840   0.96421   0.00000  Uiso   1.00
H126   H     0.80051   0.36229   0.02501   0.00000  Uiso   1.00
H127   H     0.03149   0.62505   0.80866   0.00000  Uiso   1.00
H128   H     0.39657   0.75075   0.93965   0.00000  Uiso   1.00
H129   H     0.80115   0.16851   0.06784   0.00000  Uiso   1.00
O130   O     0.99274   0.60891   0.66012   0.00000  Uiso   1.00
O131   O     0.15975   0.77380   0.83197   0.00000  Uiso   1.00
O132   O     0.69055   0.00992   0.00015   0.00000  Uiso   1.00
N133   N     0.81477   0.54007   0.65106   0.00000  Uiso   1.00
N134   N     0.22116   0.65760   0.77352   0.00000  Uiso   1.00
N135   N     0.59939   0.11326   0.89337   0.00000  Uiso   1.00
N136   N     0.95328   0.59450   0.76726   0.00000  Uiso   1.00
N137   N     0.35968   0.71202   0.88972   0.00000  Uiso   1.00
N138   N     0.73790   0.16769   0.00957   0.00000  Uiso   1.00
C139   C     0.46703   0.93216   0.73758   0.00000  Uiso   1.00
C140   C     0.35551   0.97519   0.73987   0.00000  Uiso   1.00
C141   C     0.33891   0.98106   0.80652   0.00000  Uiso   1.00
C142   C     0.23056   0.02298   0.79632   0.00000  Uiso   1.00
C143   C     0.07089   0.08454   0.81118   0.00000  Uiso   1.00
C144   C     0.51911   0.00759   0.70613   0.00000  Uiso   1.00
C145   C     0.64006   0.04070   0.74441   0.00000  Uiso   1.00
C146   C     0.66944   0.10989   0.70579   0.00000  Uiso   1.00
C147   C     0.76378   0.22171   0.66823   0.00000  Uiso   1.00
C148   C     0.41486   0.85757   0.67310   0.00000  Uiso   1.00
C149   C     0.44818   0.76454   0.68360   0.00000  Uiso   1.00
C150   C     0.38980   0.70743   0.61718   0.00000  Uiso   1.00
C151   C     0.32227   0.58632   0.52834   0.00000  Uiso   1.00
C152   C     0.30414   0.99617   0.60093   0.00000  Uiso   1.00
C153   C     0.26704   0.00996   0.66565   0.00000  Uiso   1.00
C154   C     0.15869   0.05187   0.65534   0.00000  Uiso   1.00
C155   C     0.14193   0.05780   0.72197   0.00000  Uiso   1.00
C156   C     0.43064   0.04236   0.63191   0.00000  Uiso   1.00
C157   C     0.45985   0.11151   0.59322   0.00000  Uiso   1.00
C158   C     0.58081   0.14472   0.63144   0.00000  Uiso   1.00
C159   C     0.32638   0.89234   0.59888   0.00000  Uiso   1.00
C160   C     0.26795   0.83536   0.53242   0.00000  Uiso   1.00
C161   C     0.30117   0.74226   0.54282   0.00000  Uiso   1.00
H162   H     0.53592   0.90510   0.79536   0.00000  Uiso   1.00
H163   H     0.40740   0.95415   0.86395   0.00000  Uiso   1.00
H164   H     0.70851   0.01377   0.80184   0.00000  Uiso   1.00
H165   H     0.51665   0.73766   0.74105   0.00000  Uiso   1.00
H166   H     0.22593   0.02390   0.90728   0.00000  Uiso   1.00
H167   H     0.86084   0.14959   0.77629   0.00000  Uiso   1.00
H168   H     0.45626   0.56736   0.64810   0.00000  Uiso   1.00
H169   H     0.23526   0.02324   0.54315   0.00000  Uiso   1.00
H170   H     0.09024   0.07877   0.59790   0.00000  Uiso   1.00
H171   H     0.39136   0.13840   0.53579   0.00000  Uiso   1.00
H172   H     0.19949   0.86229   0.47499   0.00000  Uiso   1.00
H173   H     0.96851   0.12505   0.69134   0.00000  Uiso   1.00
H174   H     0.60343   0.25075   0.56035   0.00000  Uiso   1.00
H175   H     0.19885   0.66851   0.43216   0.00000  Uiso   1.00
O176   O     0.00726   0.10891   0.83988   0.00000  Uiso   1.00
O177   O     0.84025   0.27380   0.66803   0.00000  Uiso   1.00
O178   O     0.30945   0.50992   0.49985   0.00000  Uiso   1.00
N179   N     0.18523   0.04007   0.84894   0.00000  Uiso   1.00
N180   N     0.77884   0.15760   0.72648   0.00000  Uiso   1.00
N181   N     0.40061   0.61326   0.60663   0.00000  Uiso   1.00
N182   N     0.04672   0.09450   0.73274   0.00000  Uiso   1.00
N183   N     0.64032   0.21202   0.61028   0.00000  Uiso   1.00
N184   N     0.26210   0.66769   0.49043   0.00000  Uiso   1.00
