data_job_02430
_audit_creation_date              2018-12-19
_audit_creation_method            'Materials Studio'
_symmetry_space_group_name_H-M    'P1'
_symmetry_Int_Tables_number       1
_symmetry_cell_setting            triclinic
loop_
_symmetry_equiv_pos_as_xyz
  x,y,z
_cell_length_a                    32.4600
_cell_length_b                    32.4600
_cell_length_c                    7.0124
_cell_angle_alpha                 90.0000
_cell_angle_beta                  90.0000
_cell_angle_gamma                 90.0000
loop_
_atom_site_label
_atom_site_type_symbol
_atom_site_fract_x
_atom_site_fract_y
_atom_site_fract_z
_atom_site_U_iso_or_equiv
_atom_site_adp_type
_atom_site_occupancy
C1     C     0.71518   0.52836   0.57086   0.00000  Uiso   1.00
C2     C     0.72728   0.56390   0.70162   0.00000  Uiso   1.00
C3     C     0.73431   0.60425   0.64492   0.00000  Uiso   1.00
C4     C     0.74509   0.63220   0.78624   0.00000  Uiso   1.00
C5     C     0.76335   0.68920   0.96020   0.00000  Uiso   1.00
C6     C     0.74766   0.49504   0.60063   0.00000  Uiso   1.00
C7     C     0.77183   0.47749   0.45901   0.00000  Uiso   1.00
C8     C     0.79977   0.44747   0.51532   0.00000  Uiso   1.00
C9     C     0.84965   0.39754   0.53246   0.00000  Uiso   1.00
C10    C     0.67515   0.51099   0.65141   0.00000  Uiso   1.00
C11    C     0.63835   0.50685   0.55248   0.00000  Uiso   1.00
C12    C     0.60524   0.49026   0.65153   0.00000  Uiso   1.00
C13    C     0.54254   0.46510   0.74752   0.00000  Uiso   1.00
C14    C     0.72181   0.50624   0.92266   0.00000  Uiso   1.00
C15    C     0.73088   0.55188   0.89270   0.00000  Uiso   1.00
C16    C     0.74165   0.57978   0.03415   0.00000  Uiso   1.00
C17    C     0.74870   0.62016   0.97767   0.00000  Uiso   1.00
C18    C     0.75126   0.48302   0.79170   0.00000  Uiso   1.00
C19    C     0.77917   0.45302   0.84823   0.00000  Uiso   1.00
C20    C     0.80338   0.43543   0.70674   0.00000  Uiso   1.00
C21    C     0.67875   0.49898   0.84250   0.00000  Uiso   1.00
C22    C     0.64569   0.48238   0.94171   0.00000  Uiso   1.00
C23    C     0.60885   0.47822   0.84296   0.00000  Uiso   1.00
H24    H     0.71238   0.53771   0.42209   0.00000  Uiso   1.00
H25    H     0.73152   0.61353   0.49703   0.00000  Uiso   1.00
H26    H     0.76903   0.48679   0.31115   0.00000  Uiso   1.00
H27    H     0.63558   0.51615   0.40461   0.00000  Uiso   1.00
H28    H     0.75436   0.69229   0.66437   0.00000  Uiso   1.00
H29    H     0.83344   0.42504   0.27242   0.00000  Uiso   1.00
H30    H     0.55202   0.48695   0.46950   0.00000  Uiso   1.00
H31    H     0.72462   0.49689   0.07143   0.00000  Uiso   1.00
H32    H     0.74444   0.57047   0.18201   0.00000  Uiso   1.00
H33    H     0.78195   0.44373   0.99612   0.00000  Uiso   1.00
H34    H     0.64849   0.47309   0.08958   0.00000  Uiso   1.00
H35    H     0.76484   0.65734   0.22032   0.00000  Uiso   1.00
H36    H     0.84392   0.39009   0.82836   0.00000  Uiso   1.00
H37    H     0.56250   0.45200   0.02545   0.00000  Uiso   1.00
O38    O     0.77243   0.72395   0.00336   0.00000  Uiso   1.00
O39    O     0.87617   0.37332   0.48912   0.00000  Uiso   1.00
O40    O     0.50695   0.45455   0.74769   0.00000  Uiso   1.00
N41    N     0.75410   0.67397   0.78004   0.00000  Uiso   1.00
N42    N     0.82804   0.42411   0.41359   0.00000  Uiso   1.00
N43    N     0.56493   0.48198   0.59783   0.00000  Uiso   1.00
N44    N     0.75973   0.65516   0.07920   0.00000  Uiso   1.00
N45    N     0.83368   0.40530   0.71275   0.00000  Uiso   1.00
N46    N     0.57057   0.46317   0.89699   0.00000  Uiso   1.00
C47    C     0.28482   0.47164   0.57086   0.00000  Uiso   1.00
C48    C     0.27272   0.43610   0.70162   0.00000  Uiso   1.00
C49    C     0.26569   0.39575   0.64492   0.00000  Uiso   1.00
C50    C     0.25491   0.36780   0.78624   0.00000  Uiso   1.00
C51    C     0.23665   0.31080   0.96020   0.00000  Uiso   1.00
C52    C     0.25234   0.50496   0.60063   0.00000  Uiso   1.00
C53    C     0.22817   0.52251   0.45901   0.00000  Uiso   1.00
C54    C     0.20023   0.55253   0.51532   0.00000  Uiso   1.00
C55    C     0.15035   0.60246   0.53246   0.00000  Uiso   1.00
C56    C     0.32485   0.48901   0.65141   0.00000  Uiso   1.00
C57    C     0.36165   0.49315   0.55248   0.00000  Uiso   1.00
C58    C     0.39476   0.50974   0.65153   0.00000  Uiso   1.00
C59    C     0.45746   0.53490   0.74752   0.00000  Uiso   1.00
C60    C     0.27819   0.49376   0.92266   0.00000  Uiso   1.00
C61    C     0.26912   0.44812   0.89270   0.00000  Uiso   1.00
C62    C     0.25835   0.42022   0.03415   0.00000  Uiso   1.00
C63    C     0.25130   0.37984   0.97767   0.00000  Uiso   1.00
C64    C     0.24874   0.51698   0.79170   0.00000  Uiso   1.00
C65    C     0.22083   0.54698   0.84823   0.00000  Uiso   1.00
C66    C     0.19662   0.56457   0.70674   0.00000  Uiso   1.00
C67    C     0.32125   0.50102   0.84250   0.00000  Uiso   1.00
C68    C     0.35431   0.51762   0.94171   0.00000  Uiso   1.00
C69    C     0.39115   0.52178   0.84296   0.00000  Uiso   1.00
H70    H     0.28762   0.46229   0.42209   0.00000  Uiso   1.00
H71    H     0.26848   0.38647   0.49703   0.00000  Uiso   1.00
H72    H     0.23097   0.51321   0.31115   0.00000  Uiso   1.00
H73    H     0.36442   0.48385   0.40461   0.00000  Uiso   1.00
H74    H     0.24564   0.30771   0.66437   0.00000  Uiso   1.00
H75    H     0.16656   0.57496   0.27242   0.00000  Uiso   1.00
H76    H     0.44798   0.51305   0.46950   0.00000  Uiso   1.00
H77    H     0.27538   0.50311   0.07143   0.00000  Uiso   1.00
H78    H     0.25556   0.42953   0.18201   0.00000  Uiso   1.00
H79    H     0.21805   0.55627   0.99612   0.00000  Uiso   1.00
H80    H     0.35151   0.52691   0.08958   0.00000  Uiso   1.00
H81    H     0.23516   0.34266   0.22032   0.00000  Uiso   1.00
H82    H     0.15608   0.60991   0.82836   0.00000  Uiso   1.00
H83    H     0.43750   0.54800   0.02545   0.00000  Uiso   1.00
O84    O     0.22757   0.27605   0.00336   0.00000  Uiso   1.00
O85    O     0.12383   0.62668   0.48912   0.00000  Uiso   1.00
O86    O     0.49305   0.54545   0.74769   0.00000  Uiso   1.00
N87    N     0.24590   0.32603   0.78004   0.00000  Uiso   1.00
N88    N     0.17196   0.57589   0.41359   0.00000  Uiso   1.00
N89    N     0.43507   0.51802   0.59783   0.00000  Uiso   1.00
N90    N     0.24027   0.34484   0.07920   0.00000  Uiso   1.00
N91    N     0.16632   0.59470   0.71275   0.00000  Uiso   1.00
N92    N     0.42943   0.53683   0.89699   0.00000  Uiso   1.00
C93    C     0.52836   0.28482   0.42914   0.00000  Uiso   1.00
C94    C     0.56390   0.27272   0.29838   0.00000  Uiso   1.00
C95    C     0.60425   0.26569   0.35508   0.00000  Uiso   1.00
C96    C     0.63220   0.25491   0.21376   0.00000  Uiso   1.00
C97    C     0.68920   0.23665   0.03980   0.00000  Uiso   1.00
C98    C     0.49504   0.25234   0.39937   0.00000  Uiso   1.00
C99    C     0.47749   0.22817   0.54099   0.00000  Uiso   1.00
C100   C     0.44747   0.20023   0.48468   0.00000  Uiso   1.00
C101   C     0.39754   0.15035   0.46754   0.00000  Uiso   1.00
C102   C     0.51099   0.32485   0.34859   0.00000  Uiso   1.00
C103   C     0.50685   0.36165   0.44752   0.00000  Uiso   1.00
C104   C     0.49026   0.39476   0.34847   0.00000  Uiso   1.00
C105   C     0.46510   0.45746   0.25248   0.00000  Uiso   1.00
C106   C     0.50624   0.27819   0.07734   0.00000  Uiso   1.00
C107   C     0.55188   0.26912   0.10730   0.00000  Uiso   1.00
C108   C     0.57978   0.25835   0.96585   0.00000  Uiso   1.00
C109   C     0.62016   0.25130   0.02233   0.00000  Uiso   1.00
C110   C     0.48302   0.24874   0.20830   0.00000  Uiso   1.00
C111   C     0.45302   0.22083   0.15177   0.00000  Uiso   1.00
C112   C     0.43543   0.19662   0.29326   0.00000  Uiso   1.00
C113   C     0.49898   0.32125   0.15750   0.00000  Uiso   1.00
C114   C     0.48238   0.35431   0.05829   0.00000  Uiso   1.00
C115   C     0.47822   0.39115   0.15704   0.00000  Uiso   1.00
H116   H     0.53771   0.28762   0.57791   0.00000  Uiso   1.00
H117   H     0.61353   0.26848   0.50297   0.00000  Uiso   1.00
H118   H     0.48679   0.23097   0.68885   0.00000  Uiso   1.00
H119   H     0.51615   0.36442   0.59539   0.00000  Uiso   1.00
H120   H     0.69229   0.24564   0.33563   0.00000  Uiso   1.00
H121   H     0.42504   0.16656   0.72758   0.00000  Uiso   1.00
H122   H     0.48695   0.44798   0.53050   0.00000  Uiso   1.00
H123   H     0.49689   0.27538   0.92857   0.00000  Uiso   1.00
H124   H     0.57047   0.25556   0.81799   0.00000  Uiso   1.00
H125   H     0.44373   0.21805   0.00388   0.00000  Uiso   1.00
H126   H     0.47309   0.35151   0.91042   0.00000  Uiso   1.00
H127   H     0.65734   0.23516   0.77968   0.00000  Uiso   1.00
H128   H     0.39009   0.15608   0.17164   0.00000  Uiso   1.00
H129   H     0.45200   0.43750   0.97455   0.00000  Uiso   1.00
O130   O     0.72395   0.22757   0.99664   0.00000  Uiso   1.00
O131   O     0.37332   0.12383   0.51088   0.00000  Uiso   1.00
O132   O     0.45455   0.49305   0.25231   0.00000  Uiso   1.00
N133   N     0.67397   0.24590   0.21996   0.00000  Uiso   1.00
N134   N     0.42411   0.17196   0.58641   0.00000  Uiso   1.00
N135   N     0.48198   0.43507   0.40217   0.00000  Uiso   1.00
N136   N     0.65516   0.24027   0.92080   0.00000  Uiso   1.00
N137   N     0.40530   0.16632   0.28725   0.00000  Uiso   1.00
N138   N     0.46317   0.42943   0.10301   0.00000  Uiso   1.00
C139   C     0.47164   0.71518   0.42914   0.00000  Uiso   1.00
C140   C     0.43610   0.72728   0.29838   0.00000  Uiso   1.00
C141   C     0.39575   0.73431   0.35508   0.00000  Uiso   1.00
C142   C     0.36780   0.74509   0.21376   0.00000  Uiso   1.00
C143   C     0.31080   0.76335   0.03980   0.00000  Uiso   1.00
C144   C     0.50496   0.74766   0.39937   0.00000  Uiso   1.00
C145   C     0.52251   0.77183   0.54099   0.00000  Uiso   1.00
C146   C     0.55253   0.79977   0.48468   0.00000  Uiso   1.00
C147   C     0.60246   0.84965   0.46754   0.00000  Uiso   1.00
C148   C     0.48901   0.67515   0.34859   0.00000  Uiso   1.00
C149   C     0.49315   0.63835   0.44752   0.00000  Uiso   1.00
C150   C     0.50974   0.60524   0.34847   0.00000  Uiso   1.00
C151   C     0.53490   0.54254   0.25248   0.00000  Uiso   1.00
C152   C     0.49376   0.72181   0.07734   0.00000  Uiso   1.00
C153   C     0.44812   0.73088   0.10730   0.00000  Uiso   1.00
C154   C     0.42022   0.74165   0.96585   0.00000  Uiso   1.00
C155   C     0.37984   0.74870   0.02233   0.00000  Uiso   1.00
C156   C     0.51698   0.75126   0.20830   0.00000  Uiso   1.00
C157   C     0.54698   0.77917   0.15177   0.00000  Uiso   1.00
C158   C     0.56457   0.80338   0.29326   0.00000  Uiso   1.00
C159   C     0.50102   0.67875   0.15750   0.00000  Uiso   1.00
C160   C     0.51762   0.64569   0.05829   0.00000  Uiso   1.00
C161   C     0.52178   0.60885   0.15704   0.00000  Uiso   1.00
H162   H     0.46229   0.71238   0.57791   0.00000  Uiso   1.00
H163   H     0.38647   0.73152   0.50297   0.00000  Uiso   1.00
H164   H     0.51321   0.76903   0.68885   0.00000  Uiso   1.00
H165   H     0.48385   0.63558   0.59539   0.00000  Uiso   1.00
H166   H     0.30771   0.75436   0.33563   0.00000  Uiso   1.00
H167   H     0.57496   0.83344   0.72758   0.00000  Uiso   1.00
H168   H     0.51305   0.55202   0.53050   0.00000  Uiso   1.00
H169   H     0.50311   0.72462   0.92857   0.00000  Uiso   1.00
H170   H     0.42953   0.74444   0.81799   0.00000  Uiso   1.00
H171   H     0.55627   0.78195   0.00388   0.00000  Uiso   1.00
H172   H     0.52691   0.64849   0.91042   0.00000  Uiso   1.00
H173   H     0.34266   0.76484   0.77968   0.00000  Uiso   1.00
H174   H     0.60991   0.84392   0.17164   0.00000  Uiso   1.00
H175   H     0.54800   0.56250   0.97455   0.00000  Uiso   1.00
O176   O     0.27605   0.77243   0.99664   0.00000  Uiso   1.00
O177   O     0.62668   0.87617   0.51088   0.00000  Uiso   1.00
O178   O     0.54545   0.50695   0.25231   0.00000  Uiso   1.00
N179   N     0.32603   0.75410   0.21996   0.00000  Uiso   1.00
N180   N     0.57589   0.82804   0.58641   0.00000  Uiso   1.00
N181   N     0.51802   0.56493   0.40217   0.00000  Uiso   1.00
N182   N     0.34484   0.75973   0.92080   0.00000  Uiso   1.00
N183   N     0.59470   0.83368   0.28725   0.00000  Uiso   1.00
N184   N     0.53683   0.57057   0.10301   0.00000  Uiso   1.00
C185   C     0.21518   0.97164   0.07086   0.00000  Uiso   1.00
C186   C     0.22728   0.93610   0.20162   0.00000  Uiso   1.00
C187   C     0.23431   0.89575   0.14492   0.00000  Uiso   1.00
C188   C     0.24509   0.86780   0.28624   0.00000  Uiso   1.00
C189   C     0.26335   0.81080   0.46020   0.00000  Uiso   1.00
C190   C     0.24766   0.00496   0.10063   0.00000  Uiso   1.00
C191   C     0.27183   0.02251   0.95901   0.00000  Uiso   1.00
C192   C     0.29977   0.05253   0.01532   0.00000  Uiso   1.00
C193   C     0.34965   0.10246   0.03246   0.00000  Uiso   1.00
C194   C     0.17515   0.98901   0.15141   0.00000  Uiso   1.00
C195   C     0.13835   0.99315   0.05248   0.00000  Uiso   1.00
C196   C     0.10524   0.00974   0.15153   0.00000  Uiso   1.00
C197   C     0.04254   0.03490   0.24752   0.00000  Uiso   1.00
C198   C     0.22181   0.99376   0.42266   0.00000  Uiso   1.00
C199   C     0.23088   0.94812   0.39270   0.00000  Uiso   1.00
C200   C     0.24165   0.92022   0.53415   0.00000  Uiso   1.00
C201   C     0.24870   0.87984   0.47767   0.00000  Uiso   1.00
C202   C     0.25126   0.01698   0.29170   0.00000  Uiso   1.00
C203   C     0.27917   0.04698   0.34823   0.00000  Uiso   1.00
C204   C     0.30338   0.06457   0.20674   0.00000  Uiso   1.00
C205   C     0.17875   0.00102   0.34250   0.00000  Uiso   1.00
C206   C     0.14569   0.01762   0.44171   0.00000  Uiso   1.00
C207   C     0.10885   0.02178   0.34296   0.00000  Uiso   1.00
H208   H     0.21238   0.96229   0.92209   0.00000  Uiso   1.00
H209   H     0.23152   0.88647   0.99703   0.00000  Uiso   1.00
H210   H     0.26903   0.01321   0.81115   0.00000  Uiso   1.00
H211   H     0.13558   0.98385   0.90461   0.00000  Uiso   1.00
H212   H     0.25436   0.80771   0.16437   0.00000  Uiso   1.00
H213   H     0.33344   0.07496   0.77242   0.00000  Uiso   1.00
H214   H     0.05202   0.01305   0.96950   0.00000  Uiso   1.00
H215   H     0.22462   0.00311   0.57143   0.00000  Uiso   1.00
H216   H     0.24444   0.92953   0.68201   0.00000  Uiso   1.00
H217   H     0.28195   0.05627   0.49612   0.00000  Uiso   1.00
H218   H     0.14849   0.02691   0.58958   0.00000  Uiso   1.00
H219   H     0.26484   0.84266   0.72032   0.00000  Uiso   1.00
H220   H     0.34392   0.10991   0.32836   0.00000  Uiso   1.00
H221   H     0.06250   0.04800   0.52545   0.00000  Uiso   1.00
O222   O     0.27243   0.77605   0.50336   0.00000  Uiso   1.00
O223   O     0.37617   0.12668   0.98912   0.00000  Uiso   1.00
O224   O     0.00695   0.04545   0.24769   0.00000  Uiso   1.00
N225   N     0.25410   0.82603   0.28004   0.00000  Uiso   1.00
N226   N     0.32804   0.07589   0.91359   0.00000  Uiso   1.00
N227   N     0.06493   0.01802   0.09783   0.00000  Uiso   1.00
N228   N     0.25973   0.84484   0.57920   0.00000  Uiso   1.00
N229   N     0.33368   0.09470   0.21275   0.00000  Uiso   1.00
N230   N     0.07057   0.03683   0.39699   0.00000  Uiso   1.00
C231   C     0.78482   0.02836   0.07086   0.00000  Uiso   1.00
C232   C     0.77272   0.06390   0.20162   0.00000  Uiso   1.00
C233   C     0.76569   0.10425   0.14492   0.00000  Uiso   1.00
C234   C     0.75491   0.13220   0.28624   0.00000  Uiso   1.00
C235   C     0.73665   0.18920   0.46020   0.00000  Uiso   1.00
C236   C     0.75234   0.99504   0.10063   0.00000  Uiso   1.00
C237   C     0.72817   0.97749   0.95901   0.00000  Uiso   1.00
C238   C     0.70023   0.94747   0.01532   0.00000  Uiso   1.00
C239   C     0.65035   0.89754   0.03246   0.00000  Uiso   1.00
C240   C     0.82485   0.01099   0.15141   0.00000  Uiso   1.00
C241   C     0.86165   0.00685   0.05248   0.00000  Uiso   1.00
C242   C     0.89476   0.99026   0.15153   0.00000  Uiso   1.00
C243   C     0.95746   0.96510   0.24752   0.00000  Uiso   1.00
C244   C     0.77819   0.00624   0.42266   0.00000  Uiso   1.00
C245   C     0.76912   0.05188   0.39270   0.00000  Uiso   1.00
C246   C     0.75835   0.07978   0.53415   0.00000  Uiso   1.00
C247   C     0.75130   0.12016   0.47767   0.00000  Uiso   1.00
C248   C     0.74874   0.98302   0.29170   0.00000  Uiso   1.00
C249   C     0.72083   0.95302   0.34823   0.00000  Uiso   1.00
C250   C     0.69662   0.93543   0.20674   0.00000  Uiso   1.00
C251   C     0.82125   0.99898   0.34250   0.00000  Uiso   1.00
C252   C     0.85431   0.98238   0.44171   0.00000  Uiso   1.00
C253   C     0.89115   0.97822   0.34296   0.00000  Uiso   1.00
H254   H     0.78762   0.03771   0.92209   0.00000  Uiso   1.00
H255   H     0.76848   0.11353   0.99703   0.00000  Uiso   1.00
H256   H     0.73097   0.98679   0.81115   0.00000  Uiso   1.00
H257   H     0.86442   0.01615   0.90461   0.00000  Uiso   1.00
H258   H     0.74564   0.19229   0.16437   0.00000  Uiso   1.00
H259   H     0.66656   0.92504   0.77242   0.00000  Uiso   1.00
H260   H     0.94798   0.98695   0.96950   0.00000  Uiso   1.00
H261   H     0.77538   0.99689   0.57143   0.00000  Uiso   1.00
H262   H     0.75556   0.07047   0.68201   0.00000  Uiso   1.00
H263   H     0.71805   0.94373   0.49612   0.00000  Uiso   1.00
H264   H     0.85151   0.97309   0.58958   0.00000  Uiso   1.00
H265   H     0.73516   0.15734   0.72032   0.00000  Uiso   1.00
H266   H     0.65608   0.89009   0.32836   0.00000  Uiso   1.00
H267   H     0.93750   0.95200   0.52545   0.00000  Uiso   1.00
O268   O     0.72757   0.22395   0.50336   0.00000  Uiso   1.00
O269   O     0.62383   0.87332   0.98912   0.00000  Uiso   1.00
O270   O     0.99305   0.95455   0.24769   0.00000  Uiso   1.00
N271   N     0.74590   0.17397   0.28004   0.00000  Uiso   1.00
N272   N     0.67196   0.92411   0.91359   0.00000  Uiso   1.00
N273   N     0.93507   0.98198   0.09783   0.00000  Uiso   1.00
N274   N     0.74027   0.15516   0.57920   0.00000  Uiso   1.00
N275   N     0.66632   0.90530   0.21275   0.00000  Uiso   1.00
N276   N     0.92943   0.96317   0.39699   0.00000  Uiso   1.00
C277   C     0.02836   0.21518   0.92914   0.00000  Uiso   1.00
C278   C     0.06390   0.22728   0.79838   0.00000  Uiso   1.00
C279   C     0.10425   0.23431   0.85508   0.00000  Uiso   1.00
C280   C     0.13220   0.24509   0.71376   0.00000  Uiso   1.00
C281   C     0.18920   0.26335   0.53980   0.00000  Uiso   1.00
C282   C     0.99504   0.24766   0.89937   0.00000  Uiso   1.00
C283   C     0.97749   0.27183   0.04099   0.00000  Uiso   1.00
C284   C     0.94747   0.29977   0.98468   0.00000  Uiso   1.00
C285   C     0.89754   0.34965   0.96754   0.00000  Uiso   1.00
C286   C     0.01099   0.17515   0.84859   0.00000  Uiso   1.00
C287   C     0.00685   0.13835   0.94752   0.00000  Uiso   1.00
C288   C     0.99026   0.10524   0.84847   0.00000  Uiso   1.00
C289   C     0.96510   0.04254   0.75248   0.00000  Uiso   1.00
C290   C     0.00624   0.22181   0.57734   0.00000  Uiso   1.00
C291   C     0.05188   0.23088   0.60730   0.00000  Uiso   1.00
C292   C     0.07978   0.24165   0.46585   0.00000  Uiso   1.00
C293   C     0.12016   0.24870   0.52233   0.00000  Uiso   1.00
C294   C     0.98302   0.25126   0.70830   0.00000  Uiso   1.00
C295   C     0.95302   0.27917   0.65177   0.00000  Uiso   1.00
C296   C     0.93543   0.30338   0.79326   0.00000  Uiso   1.00
C297   C     0.99898   0.17875   0.65750   0.00000  Uiso   1.00
C298   C     0.98238   0.14569   0.55829   0.00000  Uiso   1.00
C299   C     0.97822   0.10885   0.65704   0.00000  Uiso   1.00
H300   H     0.03771   0.21238   0.07791   0.00000  Uiso   1.00
H301   H     0.11353   0.23152   0.00297   0.00000  Uiso   1.00
H302   H     0.98679   0.26903   0.18885   0.00000  Uiso   1.00
H303   H     0.01615   0.13558   0.09539   0.00000  Uiso   1.00
H304   H     0.19229   0.25436   0.83563   0.00000  Uiso   1.00
H305   H     0.92504   0.33344   0.22758   0.00000  Uiso   1.00
H306   H     0.98695   0.05202   0.03050   0.00000  Uiso   1.00
H307   H     0.99689   0.22462   0.42857   0.00000  Uiso   1.00
H308   H     0.07047   0.24444   0.31799   0.00000  Uiso   1.00
H309   H     0.94373   0.28195   0.50388   0.00000  Uiso   1.00
H310   H     0.97309   0.14849   0.41042   0.00000  Uiso   1.00
H311   H     0.15734   0.26484   0.27968   0.00000  Uiso   1.00
H312   H     0.89009   0.34392   0.67164   0.00000  Uiso   1.00
H313   H     0.95200   0.06250   0.47455   0.00000  Uiso   1.00
O314   O     0.22395   0.27243   0.49664   0.00000  Uiso   1.00
O315   O     0.87332   0.37617   0.01088   0.00000  Uiso   1.00
O316   O     0.95455   0.00695   0.75231   0.00000  Uiso   1.00
N317   N     0.17397   0.25410   0.71996   0.00000  Uiso   1.00
N318   N     0.92411   0.32804   0.08641   0.00000  Uiso   1.00
N319   N     0.98198   0.06493   0.90217   0.00000  Uiso   1.00
N320   N     0.15516   0.25973   0.42080   0.00000  Uiso   1.00
N321   N     0.90530   0.33368   0.78725   0.00000  Uiso   1.00
N322   N     0.96317   0.07057   0.60301   0.00000  Uiso   1.00
C323   C     0.97164   0.78482   0.92914   0.00000  Uiso   1.00
C324   C     0.93610   0.77272   0.79838   0.00000  Uiso   1.00
C325   C     0.89575   0.76569   0.85508   0.00000  Uiso   1.00
C326   C     0.86780   0.75491   0.71376   0.00000  Uiso   1.00
C327   C     0.81080   0.73665   0.53980   0.00000  Uiso   1.00
C328   C     0.00496   0.75234   0.89937   0.00000  Uiso   1.00
C329   C     0.02251   0.72817   0.04099   0.00000  Uiso   1.00
C330   C     0.05253   0.70023   0.98468   0.00000  Uiso   1.00
C331   C     0.10246   0.65035   0.96754   0.00000  Uiso   1.00
C332   C     0.98901   0.82485   0.84859   0.00000  Uiso   1.00
C333   C     0.99315   0.86165   0.94752   0.00000  Uiso   1.00
C334   C     0.00974   0.89476   0.84847   0.00000  Uiso   1.00
C335   C     0.03490   0.95746   0.75248   0.00000  Uiso   1.00
C336   C     0.99376   0.77819   0.57734   0.00000  Uiso   1.00
C337   C     0.94812   0.76912   0.60730   0.00000  Uiso   1.00
C338   C     0.92022   0.75835   0.46585   0.00000  Uiso   1.00
C339   C     0.87984   0.75130   0.52233   0.00000  Uiso   1.00
C340   C     0.01698   0.74874   0.70830   0.00000  Uiso   1.00
C341   C     0.04698   0.72083   0.65177   0.00000  Uiso   1.00
C342   C     0.06457   0.69662   0.79326   0.00000  Uiso   1.00
C343   C     0.00102   0.82125   0.65750   0.00000  Uiso   1.00
C344   C     0.01762   0.85431   0.55829   0.00000  Uiso   1.00
C345   C     0.02178   0.89115   0.65704   0.00000  Uiso   1.00
H346   H     0.96229   0.78762   0.07791   0.00000  Uiso   1.00
H347   H     0.88647   0.76848   0.00297   0.00000  Uiso   1.00
H348   H     0.01321   0.73097   0.18885   0.00000  Uiso   1.00
H349   H     0.98385   0.86442   0.09539   0.00000  Uiso   1.00
H350   H     0.80771   0.74564   0.83563   0.00000  Uiso   1.00
H351   H     0.07496   0.66656   0.22758   0.00000  Uiso   1.00
H352   H     0.01305   0.94798   0.03050   0.00000  Uiso   1.00
H353   H     0.00311   0.77538   0.42857   0.00000  Uiso   1.00
H354   H     0.92953   0.75556   0.31799   0.00000  Uiso   1.00
H355   H     0.05627   0.71805   0.50388   0.00000  Uiso   1.00
H356   H     0.02691   0.85151   0.41042   0.00000  Uiso   1.00
H357   H     0.84266   0.73516   0.27968   0.00000  Uiso   1.00
H358   H     0.10991   0.65608   0.67164   0.00000  Uiso   1.00
H359   H     0.04800   0.93750   0.47455   0.00000  Uiso   1.00
O360   O     0.77605   0.72757   0.49664   0.00000  Uiso   1.00
O361   O     0.12668   0.62383   0.01088   0.00000  Uiso   1.00
O362   O     0.04545   0.99305   0.75231   0.00000  Uiso   1.00
N363   N     0.82603   0.74590   0.71996   0.00000  Uiso   1.00
N364   N     0.07589   0.67196   0.08641   0.00000  Uiso   1.00
N365   N     0.01802   0.93507   0.90217   0.00000  Uiso   1.00
N366   N     0.84484   0.74027   0.42080   0.00000  Uiso   1.00
N367   N     0.09470   0.66632   0.78725   0.00000  Uiso   1.00
N368   N     0.03683   0.92943   0.60301   0.00000  Uiso   1.00
