data_job_01965
_audit_creation_date              2018-12-19
_audit_creation_method            'Materials Studio'
_symmetry_space_group_name_H-M    'P1'
_symmetry_Int_Tables_number       1
_symmetry_cell_setting            triclinic
loop_
_symmetry_equiv_pos_as_xyz
  x,y,z
_cell_length_a                    25.3400
_cell_length_b                    25.3400
_cell_length_c                    7.8977
_cell_angle_alpha                 90.0000
_cell_angle_beta                  90.0000
_cell_angle_gamma                 90.0000
loop_
_atom_site_label
_atom_site_type_symbol
_atom_site_fract_x
_atom_site_fract_y
_atom_site_fract_z
_atom_site_U_iso_or_equiv
_atom_site_adp_type
_atom_site_occupancy
C1     C     0.51277   0.24647   0.68042   0.00000  Uiso   1.00
C2     C     0.46153   0.24716   0.78164   0.00000  Uiso   1.00
C3     C     0.41100   0.24519   0.71418   0.00000  Uiso   1.00
C4     C     0.36925   0.24626   0.82799   0.00000  Uiso   1.00
C5     C     0.28839   0.24690   0.95854   0.00000  Uiso   1.00
C6     C     0.54292   0.29598   0.73236   0.00000  Uiso   1.00
C7     C     0.56082   0.33506   0.62345   0.00000  Uiso   1.00
C8     C     0.58760   0.37721   0.69579   0.00000  Uiso   1.00
C9     C     0.63312   0.45363   0.74981   0.00000  Uiso   1.00
C10    C     0.54464   0.19998   0.74798   0.00000  Uiso   1.00
C11    C     0.56401   0.15834   0.65222   0.00000  Uiso   1.00
C12    C     0.59225   0.11968   0.73770   0.00000  Uiso   1.00
C13    C     0.64046   0.04704   0.81598   0.00000  Uiso   1.00
C14    C     0.52849   0.25185   0.00250   0.00000  Uiso   1.00
C15    C     0.47007   0.25008   0.95658   0.00000  Uiso   1.00
C16    C     0.42839   0.25114   0.07052   0.00000  Uiso   1.00
C17    C     0.37781   0.24918   0.00325   0.00000  Uiso   1.00
C18    C     0.55146   0.29890   0.90729   0.00000  Uiso   1.00
C19    C     0.57822   0.34101   0.97980   0.00000  Uiso   1.00
C20    C     0.59615   0.38014   0.87104   0.00000  Uiso   1.00
C21    C     0.55318   0.20290   0.92292   0.00000  Uiso   1.00
C22    C     0.58140   0.16429   0.00857   0.00000  Uiso   1.00
C23    C     0.60081   0.12260   0.91295   0.00000  Uiso   1.00
H24    H     0.50613   0.24420   0.54422   0.00000  Uiso   1.00
H25    H     0.40441   0.24294   0.57878   0.00000  Uiso   1.00
H26    H     0.55421   0.33278   0.48808   0.00000  Uiso   1.00
H27    H     0.55740   0.15610   0.51684   0.00000  Uiso   1.00
H28    H     0.29540   0.24285   0.69425   0.00000  Uiso   1.00
H29    H     0.61129   0.43228   0.50299   0.00000  Uiso   1.00
H30    H     0.61801   0.05970   0.56363   0.00000  Uiso   1.00
H31    H     0.53514   0.25413   0.13870   0.00000  Uiso   1.00
H32    H     0.43501   0.25340   0.20590   0.00000  Uiso   1.00
H33    H     0.58482   0.34325   0.11518   0.00000  Uiso   1.00
H34    H     0.58800   0.16656   0.14395   0.00000  Uiso   1.00
H35    H     0.32024   0.25134   0.20324   0.00000  Uiso   1.00
H36    H     0.63613   0.44078   0.01197   0.00000  Uiso   1.00
H37    H     0.64285   0.06819   0.07262   0.00000  Uiso   1.00
O38    O     0.24142   0.24646   0.98222   0.00000  Uiso   1.00
O39    O     0.65587   0.49498   0.73128   0.00000  Uiso   1.00
O40    O     0.66468   0.00616   0.81084   0.00000  Uiso   1.00
N41    N     0.31498   0.24493   0.80482   0.00000  Uiso   1.00
N42    N     0.61032   0.42205   0.62600   0.00000  Uiso   1.00
N43    N     0.61661   0.07372   0.68269   0.00000  Uiso   1.00
N44    N     0.32835   0.24950   0.07871   0.00000  Uiso   1.00
N45    N     0.62368   0.42662   0.89988   0.00000  Uiso   1.00
N46    N     0.62998   0.07829   0.95657   0.00000  Uiso   1.00
C47    C     0.48723   0.75353   0.68042   0.00000  Uiso   1.00
C48    C     0.53847   0.75284   0.78164   0.00000  Uiso   1.00
C49    C     0.58900   0.75481   0.71418   0.00000  Uiso   1.00
C50    C     0.63075   0.75374   0.82799   0.00000  Uiso   1.00
C51    C     0.71161   0.75310   0.95854   0.00000  Uiso   1.00
C52    C     0.45708   0.70402   0.73236   0.00000  Uiso   1.00
C53    C     0.43918   0.66494   0.62345   0.00000  Uiso   1.00
C54    C     0.41240   0.62279   0.69579   0.00000  Uiso   1.00
C55    C     0.36688   0.54637   0.74981   0.00000  Uiso   1.00
C56    C     0.45536   0.80002   0.74798   0.00000  Uiso   1.00
C57    C     0.43599   0.84166   0.65222   0.00000  Uiso   1.00
C58    C     0.40775   0.88032   0.73770   0.00000  Uiso   1.00
C59    C     0.35954   0.95296   0.81598   0.00000  Uiso   1.00
C60    C     0.47151   0.74815   0.00250   0.00000  Uiso   1.00
C61    C     0.52993   0.74992   0.95658   0.00000  Uiso   1.00
C62    C     0.57161   0.74886   0.07052   0.00000  Uiso   1.00
C63    C     0.62219   0.75082   0.00325   0.00000  Uiso   1.00
C64    C     0.44854   0.70110   0.90729   0.00000  Uiso   1.00
C65    C     0.42178   0.65899   0.97980   0.00000  Uiso   1.00
C66    C     0.40385   0.61986   0.87104   0.00000  Uiso   1.00
C67    C     0.44682   0.79710   0.92292   0.00000  Uiso   1.00
C68    C     0.41860   0.83571   0.00857   0.00000  Uiso   1.00
C69    C     0.39919   0.87740   0.91295   0.00000  Uiso   1.00
H70    H     0.49387   0.75580   0.54422   0.00000  Uiso   1.00
H71    H     0.59559   0.75706   0.57878   0.00000  Uiso   1.00
H72    H     0.44579   0.66722   0.48808   0.00000  Uiso   1.00
H73    H     0.44260   0.84390   0.51684   0.00000  Uiso   1.00
H74    H     0.70460   0.75715   0.69425   0.00000  Uiso   1.00
H75    H     0.38871   0.56772   0.50299   0.00000  Uiso   1.00
H76    H     0.38199   0.94030   0.56363   0.00000  Uiso   1.00
H77    H     0.46486   0.74587   0.13870   0.00000  Uiso   1.00
H78    H     0.56499   0.74660   0.20590   0.00000  Uiso   1.00
H79    H     0.41518   0.65675   0.11518   0.00000  Uiso   1.00
H80    H     0.41200   0.83344   0.14395   0.00000  Uiso   1.00
H81    H     0.67976   0.74866   0.20324   0.00000  Uiso   1.00
H82    H     0.36387   0.55922   0.01197   0.00000  Uiso   1.00
H83    H     0.35715   0.93181   0.07262   0.00000  Uiso   1.00
O84    O     0.75858   0.75354   0.98222   0.00000  Uiso   1.00
O85    O     0.34413   0.50502   0.73128   0.00000  Uiso   1.00
O86    O     0.33532   0.99384   0.81084   0.00000  Uiso   1.00
N87    N     0.68502   0.75507   0.80482   0.00000  Uiso   1.00
N88    N     0.38968   0.57795   0.62600   0.00000  Uiso   1.00
N89    N     0.38339   0.92628   0.68269   0.00000  Uiso   1.00
N90    N     0.67165   0.75050   0.07871   0.00000  Uiso   1.00
N91    N     0.37632   0.57338   0.89988   0.00000  Uiso   1.00
N92    N     0.37002   0.92171   0.95657   0.00000  Uiso   1.00
C93    C     0.25353   0.01277   0.18042   0.00000  Uiso   1.00
C94    C     0.25284   0.96153   0.28164   0.00000  Uiso   1.00
C95    C     0.25481   0.91100   0.21418   0.00000  Uiso   1.00
C96    C     0.25374   0.86925   0.32799   0.00000  Uiso   1.00
C97    C     0.25310   0.78839   0.45854   0.00000  Uiso   1.00
C98    C     0.20402   0.04292   0.23236   0.00000  Uiso   1.00
C99    C     0.16494   0.06082   0.12345   0.00000  Uiso   1.00
C100   C     0.12279   0.08760   0.19579   0.00000  Uiso   1.00
C101   C     0.04637   0.13312   0.24981   0.00000  Uiso   1.00
C102   C     0.30002   0.04464   0.24798   0.00000  Uiso   1.00
C103   C     0.34166   0.06401   0.15222   0.00000  Uiso   1.00
C104   C     0.38032   0.09225   0.23770   0.00000  Uiso   1.00
C105   C     0.45296   0.14046   0.31598   0.00000  Uiso   1.00
C106   C     0.24815   0.02849   0.50250   0.00000  Uiso   1.00
C107   C     0.24992   0.97007   0.45658   0.00000  Uiso   1.00
C108   C     0.24886   0.92839   0.57052   0.00000  Uiso   1.00
C109   C     0.25082   0.87781   0.50325   0.00000  Uiso   1.00
C110   C     0.20110   0.05146   0.40729   0.00000  Uiso   1.00
C111   C     0.15899   0.07822   0.47980   0.00000  Uiso   1.00
C112   C     0.11986   0.09615   0.37104   0.00000  Uiso   1.00
C113   C     0.29710   0.05318   0.42292   0.00000  Uiso   1.00
C114   C     0.33571   0.08140   0.50857   0.00000  Uiso   1.00
C115   C     0.37740   0.10081   0.41295   0.00000  Uiso   1.00
H116   H     0.25580   0.00613   0.04422   0.00000  Uiso   1.00
H117   H     0.25706   0.90441   0.07878   0.00000  Uiso   1.00
H118   H     0.16722   0.05421   0.98808   0.00000  Uiso   1.00
H119   H     0.34390   0.05740   0.01684   0.00000  Uiso   1.00
H120   H     0.25715   0.79540   0.19425   0.00000  Uiso   1.00
H121   H     0.06772   0.11129   0.00299   0.00000  Uiso   1.00
H122   H     0.44030   0.11801   0.06363   0.00000  Uiso   1.00
H123   H     0.24587   0.03514   0.63870   0.00000  Uiso   1.00
H124   H     0.24660   0.93501   0.70590   0.00000  Uiso   1.00
H125   H     0.15675   0.08482   0.61518   0.00000  Uiso   1.00
H126   H     0.33344   0.08800   0.64395   0.00000  Uiso   1.00
H127   H     0.24866   0.82024   0.70324   0.00000  Uiso   1.00
H128   H     0.05922   0.13613   0.51197   0.00000  Uiso   1.00
H129   H     0.43181   0.14285   0.57262   0.00000  Uiso   1.00
O130   O     0.25354   0.74142   0.48222   0.00000  Uiso   1.00
O131   O     0.00502   0.15587   0.23128   0.00000  Uiso   1.00
O132   O     0.49384   0.16468   0.31084   0.00000  Uiso   1.00
N133   N     0.25507   0.81498   0.30482   0.00000  Uiso   1.00
N134   N     0.07795   0.11032   0.12600   0.00000  Uiso   1.00
N135   N     0.42628   0.11661   0.18269   0.00000  Uiso   1.00
N136   N     0.25050   0.82835   0.57871   0.00000  Uiso   1.00
N137   N     0.07338   0.12368   0.39988   0.00000  Uiso   1.00
N138   N     0.42171   0.12998   0.45657   0.00000  Uiso   1.00
C139   C     0.74647   0.98723   0.18042   0.00000  Uiso   1.00
C140   C     0.74716   0.03847   0.28164   0.00000  Uiso   1.00
C141   C     0.74519   0.08900   0.21418   0.00000  Uiso   1.00
C142   C     0.74626   0.13075   0.32799   0.00000  Uiso   1.00
C143   C     0.74690   0.21161   0.45854   0.00000  Uiso   1.00
C144   C     0.79598   0.95708   0.23236   0.00000  Uiso   1.00
C145   C     0.83506   0.93918   0.12345   0.00000  Uiso   1.00
C146   C     0.87721   0.91240   0.19579   0.00000  Uiso   1.00
C147   C     0.95363   0.86688   0.24981   0.00000  Uiso   1.00
C148   C     0.69998   0.95536   0.24798   0.00000  Uiso   1.00
C149   C     0.65834   0.93599   0.15222   0.00000  Uiso   1.00
C150   C     0.61968   0.90775   0.23770   0.00000  Uiso   1.00
C151   C     0.54704   0.85954   0.31598   0.00000  Uiso   1.00
C152   C     0.75185   0.97151   0.50250   0.00000  Uiso   1.00
C153   C     0.75008   0.02993   0.45658   0.00000  Uiso   1.00
C154   C     0.75114   0.07161   0.57052   0.00000  Uiso   1.00
C155   C     0.74918   0.12219   0.50325   0.00000  Uiso   1.00
C156   C     0.79890   0.94854   0.40729   0.00000  Uiso   1.00
C157   C     0.84101   0.92178   0.47980   0.00000  Uiso   1.00
C158   C     0.88014   0.90385   0.37104   0.00000  Uiso   1.00
C159   C     0.70290   0.94682   0.42292   0.00000  Uiso   1.00
C160   C     0.66429   0.91860   0.50857   0.00000  Uiso   1.00
C161   C     0.62260   0.89919   0.41295   0.00000  Uiso   1.00
H162   H     0.74420   0.99387   0.04422   0.00000  Uiso   1.00
H163   H     0.74294   0.09559   0.07878   0.00000  Uiso   1.00
H164   H     0.83278   0.94579   0.98808   0.00000  Uiso   1.00
H165   H     0.65610   0.94260   0.01684   0.00000  Uiso   1.00
H166   H     0.74285   0.20460   0.19425   0.00000  Uiso   1.00
H167   H     0.93228   0.88871   0.00299   0.00000  Uiso   1.00
H168   H     0.55970   0.88199   0.06363   0.00000  Uiso   1.00
H169   H     0.75413   0.96486   0.63870   0.00000  Uiso   1.00
H170   H     0.75340   0.06499   0.70590   0.00000  Uiso   1.00
H171   H     0.84325   0.91518   0.61518   0.00000  Uiso   1.00
H172   H     0.66656   0.91200   0.64395   0.00000  Uiso   1.00
H173   H     0.75134   0.17976   0.70324   0.00000  Uiso   1.00
H174   H     0.94078   0.86387   0.51197   0.00000  Uiso   1.00
H175   H     0.56819   0.85715   0.57262   0.00000  Uiso   1.00
O176   O     0.74646   0.25858   0.48222   0.00000  Uiso   1.00
O177   O     0.99498   0.84413   0.23128   0.00000  Uiso   1.00
O178   O     0.50616   0.83532   0.31084   0.00000  Uiso   1.00
N179   N     0.74493   0.18502   0.30482   0.00000  Uiso   1.00
N180   N     0.92205   0.88968   0.12600   0.00000  Uiso   1.00
N181   N     0.57372   0.88339   0.18269   0.00000  Uiso   1.00
N182   N     0.74950   0.17165   0.57871   0.00000  Uiso   1.00
N183   N     0.92662   0.87632   0.39988   0.00000  Uiso   1.00
N184   N     0.57829   0.87002   0.45657   0.00000  Uiso   1.00
C185   C     0.98723   0.25353   0.81958   0.00000  Uiso   1.00
C186   C     0.03847   0.25284   0.71836   0.00000  Uiso   1.00
C187   C     0.08900   0.25481   0.78582   0.00000  Uiso   1.00
C188   C     0.13075   0.25374   0.67201   0.00000  Uiso   1.00
C189   C     0.21161   0.25310   0.54146   0.00000  Uiso   1.00
C190   C     0.95708   0.20402   0.76764   0.00000  Uiso   1.00
C191   C     0.93918   0.16494   0.87655   0.00000  Uiso   1.00
C192   C     0.91240   0.12279   0.80421   0.00000  Uiso   1.00
C193   C     0.86688   0.04637   0.75019   0.00000  Uiso   1.00
C194   C     0.95536   0.30002   0.75202   0.00000  Uiso   1.00
C195   C     0.93599   0.34166   0.84778   0.00000  Uiso   1.00
C196   C     0.90775   0.38032   0.76230   0.00000  Uiso   1.00
C197   C     0.85954   0.45296   0.68402   0.00000  Uiso   1.00
C198   C     0.97151   0.24815   0.49750   0.00000  Uiso   1.00
C199   C     0.02993   0.24992   0.54342   0.00000  Uiso   1.00
C200   C     0.07161   0.24886   0.42948   0.00000  Uiso   1.00
C201   C     0.12219   0.25082   0.49675   0.00000  Uiso   1.00
C202   C     0.94854   0.20110   0.59271   0.00000  Uiso   1.00
C203   C     0.92178   0.15899   0.52020   0.00000  Uiso   1.00
C204   C     0.90385   0.11986   0.62896   0.00000  Uiso   1.00
C205   C     0.94682   0.29710   0.57708   0.00000  Uiso   1.00
C206   C     0.91860   0.33571   0.49143   0.00000  Uiso   1.00
C207   C     0.89919   0.37740   0.58705   0.00000  Uiso   1.00
H208   H     0.99387   0.25580   0.95578   0.00000  Uiso   1.00
H209   H     0.09559   0.25706   0.92122   0.00000  Uiso   1.00
H210   H     0.94579   0.16722   0.01192   0.00000  Uiso   1.00
H211   H     0.94260   0.34390   0.98316   0.00000  Uiso   1.00
H212   H     0.20460   0.25715   0.80575   0.00000  Uiso   1.00
H213   H     0.88871   0.06772   0.99701   0.00000  Uiso   1.00
H214   H     0.88199   0.44030   0.93637   0.00000  Uiso   1.00
H215   H     0.96486   0.24587   0.36130   0.00000  Uiso   1.00
H216   H     0.06499   0.24660   0.29410   0.00000  Uiso   1.00
H217   H     0.91518   0.15675   0.38482   0.00000  Uiso   1.00
H218   H     0.91200   0.33344   0.35605   0.00000  Uiso   1.00
H219   H     0.17976   0.24866   0.29676   0.00000  Uiso   1.00
H220   H     0.86387   0.05922   0.48803   0.00000  Uiso   1.00
H221   H     0.85715   0.43181   0.42738   0.00000  Uiso   1.00
O222   O     0.25858   0.25354   0.51778   0.00000  Uiso   1.00
O223   O     0.84413   0.00502   0.76872   0.00000  Uiso   1.00
O224   O     0.83532   0.49384   0.68916   0.00000  Uiso   1.00
N225   N     0.18502   0.25507   0.69518   0.00000  Uiso   1.00
N226   N     0.88968   0.07795   0.87400   0.00000  Uiso   1.00
N227   N     0.88339   0.42628   0.81731   0.00000  Uiso   1.00
N228   N     0.17165   0.25050   0.42129   0.00000  Uiso   1.00
N229   N     0.87632   0.07338   0.60012   0.00000  Uiso   1.00
N230   N     0.87002   0.42171   0.54343   0.00000  Uiso   1.00
C231   C     0.01277   0.74647   0.81958   0.00000  Uiso   1.00
C232   C     0.96153   0.74716   0.71836   0.00000  Uiso   1.00
C233   C     0.91100   0.74519   0.78582   0.00000  Uiso   1.00
C234   C     0.86925   0.74626   0.67201   0.00000  Uiso   1.00
C235   C     0.78839   0.74690   0.54146   0.00000  Uiso   1.00
C236   C     0.04292   0.79598   0.76764   0.00000  Uiso   1.00
C237   C     0.06082   0.83506   0.87655   0.00000  Uiso   1.00
C238   C     0.08760   0.87721   0.80421   0.00000  Uiso   1.00
C239   C     0.13312   0.95363   0.75019   0.00000  Uiso   1.00
C240   C     0.04464   0.69998   0.75202   0.00000  Uiso   1.00
C241   C     0.06401   0.65834   0.84778   0.00000  Uiso   1.00
C242   C     0.09225   0.61968   0.76230   0.00000  Uiso   1.00
C243   C     0.14046   0.54704   0.68402   0.00000  Uiso   1.00
C244   C     0.02849   0.75185   0.49750   0.00000  Uiso   1.00
C245   C     0.97007   0.75008   0.54342   0.00000  Uiso   1.00
C246   C     0.92839   0.75114   0.42948   0.00000  Uiso   1.00
C247   C     0.87781   0.74918   0.49675   0.00000  Uiso   1.00
C248   C     0.05146   0.79890   0.59271   0.00000  Uiso   1.00
C249   C     0.07822   0.84101   0.52020   0.00000  Uiso   1.00
C250   C     0.09615   0.88014   0.62896   0.00000  Uiso   1.00
C251   C     0.05318   0.70290   0.57708   0.00000  Uiso   1.00
C252   C     0.08140   0.66429   0.49143   0.00000  Uiso   1.00
C253   C     0.10081   0.62260   0.58705   0.00000  Uiso   1.00
H254   H     0.00613   0.74420   0.95578   0.00000  Uiso   1.00
H255   H     0.90441   0.74294   0.92122   0.00000  Uiso   1.00
H256   H     0.05421   0.83278   0.01192   0.00000  Uiso   1.00
H257   H     0.05740   0.65610   0.98316   0.00000  Uiso   1.00
H258   H     0.79540   0.74285   0.80575   0.00000  Uiso   1.00
H259   H     0.11129   0.93228   0.99701   0.00000  Uiso   1.00
H260   H     0.11801   0.55970   0.93637   0.00000  Uiso   1.00
H261   H     0.03514   0.75413   0.36130   0.00000  Uiso   1.00
H262   H     0.93501   0.75340   0.29410   0.00000  Uiso   1.00
H263   H     0.08482   0.84325   0.38482   0.00000  Uiso   1.00
H264   H     0.08800   0.66656   0.35605   0.00000  Uiso   1.00
H265   H     0.82024   0.75134   0.29676   0.00000  Uiso   1.00
H266   H     0.13613   0.94078   0.48803   0.00000  Uiso   1.00
H267   H     0.14285   0.56819   0.42738   0.00000  Uiso   1.00
O268   O     0.74142   0.74646   0.51778   0.00000  Uiso   1.00
O269   O     0.15587   0.99498   0.76872   0.00000  Uiso   1.00
O270   O     0.16468   0.50616   0.68916   0.00000  Uiso   1.00
N271   N     0.81498   0.74493   0.69518   0.00000  Uiso   1.00
N272   N     0.11032   0.92205   0.87400   0.00000  Uiso   1.00
N273   N     0.11661   0.57372   0.81731   0.00000  Uiso   1.00
N274   N     0.82835   0.74950   0.42129   0.00000  Uiso   1.00
N275   N     0.12368   0.92662   0.60012   0.00000  Uiso   1.00
N276   N     0.12998   0.57829   0.54343   0.00000  Uiso   1.00
C277   C     0.24647   0.48723   0.31958   0.00000  Uiso   1.00
C278   C     0.24716   0.53847   0.21836   0.00000  Uiso   1.00
C279   C     0.24519   0.58900   0.28582   0.00000  Uiso   1.00
C280   C     0.24626   0.63075   0.17201   0.00000  Uiso   1.00
C281   C     0.24690   0.71161   0.04146   0.00000  Uiso   1.00
C282   C     0.29598   0.45708   0.26764   0.00000  Uiso   1.00
C283   C     0.33506   0.43918   0.37655   0.00000  Uiso   1.00
C284   C     0.37721   0.41240   0.30421   0.00000  Uiso   1.00
C285   C     0.45363   0.36688   0.25019   0.00000  Uiso   1.00
C286   C     0.19998   0.45536   0.25202   0.00000  Uiso   1.00
C287   C     0.15834   0.43599   0.34778   0.00000  Uiso   1.00
C288   C     0.11968   0.40775   0.26230   0.00000  Uiso   1.00
C289   C     0.04704   0.35954   0.18402   0.00000  Uiso   1.00
C290   C     0.25185   0.47151   0.99750   0.00000  Uiso   1.00
C291   C     0.25008   0.52993   0.04342   0.00000  Uiso   1.00
C292   C     0.25114   0.57161   0.92948   0.00000  Uiso   1.00
C293   C     0.24918   0.62219   0.99675   0.00000  Uiso   1.00
C294   C     0.29890   0.44854   0.09271   0.00000  Uiso   1.00
C295   C     0.34101   0.42178   0.02020   0.00000  Uiso   1.00
C296   C     0.38014   0.40385   0.12896   0.00000  Uiso   1.00
C297   C     0.20290   0.44682   0.07708   0.00000  Uiso   1.00
C298   C     0.16429   0.41860   0.99143   0.00000  Uiso   1.00
C299   C     0.12260   0.39919   0.08705   0.00000  Uiso   1.00
H300   H     0.24420   0.49387   0.45578   0.00000  Uiso   1.00
H301   H     0.24294   0.59559   0.42122   0.00000  Uiso   1.00
H302   H     0.33278   0.44579   0.51192   0.00000  Uiso   1.00
H303   H     0.15610   0.44260   0.48316   0.00000  Uiso   1.00
H304   H     0.24285   0.70460   0.30575   0.00000  Uiso   1.00
H305   H     0.43228   0.38871   0.49701   0.00000  Uiso   1.00
H306   H     0.05970   0.38199   0.43637   0.00000  Uiso   1.00
H307   H     0.25413   0.46486   0.86130   0.00000  Uiso   1.00
H308   H     0.25340   0.56499   0.79410   0.00000  Uiso   1.00
H309   H     0.34325   0.41518   0.88482   0.00000  Uiso   1.00
H310   H     0.16656   0.41200   0.85605   0.00000  Uiso   1.00
H311   H     0.25134   0.67976   0.79676   0.00000  Uiso   1.00
H312   H     0.44078   0.36387   0.98803   0.00000  Uiso   1.00
H313   H     0.06819   0.35715   0.92738   0.00000  Uiso   1.00
O314   O     0.24646   0.75858   0.01778   0.00000  Uiso   1.00
O315   O     0.49498   0.34413   0.26872   0.00000  Uiso   1.00
O316   O     0.00616   0.33532   0.18916   0.00000  Uiso   1.00
N317   N     0.24493   0.68502   0.19518   0.00000  Uiso   1.00
N318   N     0.42205   0.38968   0.37400   0.00000  Uiso   1.00
N319   N     0.07372   0.38339   0.31731   0.00000  Uiso   1.00
N320   N     0.24950   0.67165   0.92129   0.00000  Uiso   1.00
N321   N     0.42662   0.37632   0.10012   0.00000  Uiso   1.00
N322   N     0.07829   0.37002   0.04343   0.00000  Uiso   1.00
C323   C     0.75353   0.51277   0.31958   0.00000  Uiso   1.00
C324   C     0.75284   0.46153   0.21836   0.00000  Uiso   1.00
C325   C     0.75481   0.41100   0.28582   0.00000  Uiso   1.00
C326   C     0.75374   0.36925   0.17201   0.00000  Uiso   1.00
C327   C     0.75310   0.28839   0.04146   0.00000  Uiso   1.00
C328   C     0.70402   0.54292   0.26764   0.00000  Uiso   1.00
C329   C     0.66494   0.56082   0.37655   0.00000  Uiso   1.00
C330   C     0.62279   0.58760   0.30421   0.00000  Uiso   1.00
C331   C     0.54637   0.63312   0.25019   0.00000  Uiso   1.00
C332   C     0.80002   0.54464   0.25202   0.00000  Uiso   1.00
C333   C     0.84166   0.56401   0.34778   0.00000  Uiso   1.00
C334   C     0.88032   0.59225   0.26230   0.00000  Uiso   1.00
C335   C     0.95296   0.64046   0.18402   0.00000  Uiso   1.00
C336   C     0.74815   0.52849   0.99750   0.00000  Uiso   1.00
C337   C     0.74992   0.47007   0.04342   0.00000  Uiso   1.00
C338   C     0.74886   0.42839   0.92948   0.00000  Uiso   1.00
C339   C     0.75082   0.37781   0.99675   0.00000  Uiso   1.00
C340   C     0.70110   0.55146   0.09271   0.00000  Uiso   1.00
C341   C     0.65899   0.57822   0.02020   0.00000  Uiso   1.00
C342   C     0.61986   0.59615   0.12896   0.00000  Uiso   1.00
C343   C     0.79710   0.55318   0.07708   0.00000  Uiso   1.00
C344   C     0.83571   0.58140   0.99143   0.00000  Uiso   1.00
C345   C     0.87740   0.60081   0.08705   0.00000  Uiso   1.00
H346   H     0.75580   0.50613   0.45578   0.00000  Uiso   1.00
H347   H     0.75706   0.40441   0.42122   0.00000  Uiso   1.00
H348   H     0.66722   0.55421   0.51192   0.00000  Uiso   1.00
H349   H     0.84390   0.55740   0.48316   0.00000  Uiso   1.00
H350   H     0.75715   0.29540   0.30575   0.00000  Uiso   1.00
H351   H     0.56772   0.61129   0.49701   0.00000  Uiso   1.00
H352   H     0.94030   0.61801   0.43637   0.00000  Uiso   1.00
H353   H     0.74587   0.53514   0.86130   0.00000  Uiso   1.00
H354   H     0.74660   0.43501   0.79410   0.00000  Uiso   1.00
H355   H     0.65675   0.58482   0.88482   0.00000  Uiso   1.00
H356   H     0.83344   0.58800   0.85605   0.00000  Uiso   1.00
H357   H     0.74866   0.32024   0.79676   0.00000  Uiso   1.00
H358   H     0.55922   0.63613   0.98803   0.00000  Uiso   1.00
H359   H     0.93181   0.64285   0.92738   0.00000  Uiso   1.00
O360   O     0.75354   0.24142   0.01778   0.00000  Uiso   1.00
O361   O     0.50502   0.65587   0.26872   0.00000  Uiso   1.00
O362   O     0.99384   0.66468   0.18916   0.00000  Uiso   1.00
N363   N     0.75507   0.31498   0.19518   0.00000  Uiso   1.00
N364   N     0.57795   0.61032   0.37400   0.00000  Uiso   1.00
N365   N     0.92628   0.61661   0.31731   0.00000  Uiso   1.00
N366   N     0.75050   0.32835   0.92129   0.00000  Uiso   1.00
N367   N     0.57338   0.62368   0.10012   0.00000  Uiso   1.00
N368   N     0.92171   0.62998   0.04343   0.00000  Uiso   1.00
