data_job_01535
_audit_creation_date              2018-12-19
_audit_creation_method            'Materials Studio'
_symmetry_space_group_name_H-M    'P1'
_symmetry_Int_Tables_number       1
_symmetry_cell_setting            triclinic
loop_
_symmetry_equiv_pos_as_xyz
  x,y,z
_cell_length_a                    20.2407
_cell_length_b                    28.1293
_cell_length_c                    11.4705
_cell_angle_alpha                 90.0000
_cell_angle_beta                  90.0000
_cell_angle_gamma                 90.0000
loop_
_atom_site_label
_atom_site_type_symbol
_atom_site_fract_x
_atom_site_fract_y
_atom_site_fract_z
_atom_site_U_iso_or_equiv
_atom_site_adp_type
_atom_site_occupancy
C1     C     0.48564   0.91264   0.75969   0.00000  Uiso   1.00
C2     C     0.52471   0.87008   0.71466   0.00000  Uiso   1.00
C3     C     0.59304   0.86604   0.71359   0.00000  Uiso   1.00
C4     C     0.61928   0.82426   0.66877   0.00000  Uiso   1.00
C5     C     0.68614   0.76372   0.60523   0.00000  Uiso   1.00
C6     C     0.44199   0.92872   0.65876   0.00000  Uiso   1.00
C7     C     0.44076   0.97399   0.61070   0.00000  Uiso   1.00
C8     C     0.39736   0.98157   0.51883   0.00000  Uiso   1.00
C9     C     0.33575   0.01208   0.36855   0.00000  Uiso   1.00
C10    C     0.43889   0.89319   0.85238   0.00000  Uiso   1.00
C11    C     0.43504   0.90860   0.96712   0.00000  Uiso   1.00
C12    C     0.38902   0.88628   0.03826   0.00000  Uiso   1.00
C13    C     0.32260   0.86164   0.18861   0.00000  Uiso   1.00
C14    C     0.41073   0.84561   0.68199   0.00000  Uiso   1.00
C15    C     0.48402   0.83367   0.67246   0.00000  Uiso   1.00
C16    C     0.51016   0.79189   0.62764   0.00000  Uiso   1.00
C17    C     0.57852   0.78779   0.62650   0.00000  Uiso   1.00
C18    C     0.40130   0.89231   0.61656   0.00000  Uiso   1.00
C19    C     0.35789   0.89983   0.52474   0.00000  Uiso   1.00
C20    C     0.35660   0.94510   0.47655   0.00000  Uiso   1.00
C21    C     0.39820   0.85679   0.81019   0.00000  Uiso   1.00
C22    C     0.35217   0.83444   0.88116   0.00000  Uiso   1.00
C23    C     0.34826   0.84981   0.99598   0.00000  Uiso   1.00
H24    H     0.51731   0.94098   0.79253   0.00000  Uiso   1.00
H25    H     0.62451   0.89423   0.74625   0.00000  Uiso   1.00
H26    H     0.47225   0.00215   0.64338   0.00000  Uiso   1.00
H27    H     0.46653   0.93678   0.99974   0.00000  Uiso   1.00
H28    H     0.72542   0.82634   0.67628   0.00000  Uiso   1.00
H29    H     0.40435   0.05392   0.45941   0.00000  Uiso   1.00
H30    H     0.39230   0.91606   0.21087   0.00000  Uiso   1.00
H31    H     0.37905   0.81727   0.64914   0.00000  Uiso   1.00
H32    H     0.47867   0.76372   0.59498   0.00000  Uiso   1.00
H33    H     0.32641   0.87165   0.49212   0.00000  Uiso   1.00
H34    H     0.32069   0.80627   0.84848   0.00000  Uiso   1.00
H35    H     0.60704   0.72042   0.55350   0.00000  Uiso   1.00
H36    H     0.28598   0.94800   0.33664   0.00000  Uiso   1.00
H37    H     0.27392   0.81013   0.08809   0.00000  Uiso   1.00
O38    O     0.73425   0.74039   0.58182   0.00000  Uiso   1.00
O39    O     0.31302   0.03896   0.29731   0.00000  Uiso   1.00
O40    O     0.29721   0.85810   0.28320   0.00000  Uiso   1.00
N41    N     0.68389   0.80876   0.65484   0.00000  Uiso   1.00
N42    N     0.38372   0.02152   0.45206   0.00000  Uiso   1.00
N43    N     0.37244   0.89265   0.15461   0.00000  Uiso   1.00
N44    N     0.62019   0.75176   0.58877   0.00000  Uiso   1.00
N45    N     0.32002   0.96453   0.38600   0.00000  Uiso   1.00
N46    N     0.30874   0.83565   0.08854   0.00000  Uiso   1.00
C47    C     0.01436   0.08736   0.75969   0.00000  Uiso   1.00
C48    C     0.97529   0.12992   0.71466   0.00000  Uiso   1.00
C49    C     0.90696   0.13396   0.71359   0.00000  Uiso   1.00
C50    C     0.88072   0.17574   0.66877   0.00000  Uiso   1.00
C51    C     0.81386   0.23628   0.60523   0.00000  Uiso   1.00
C52    C     0.05801   0.07128   0.65876   0.00000  Uiso   1.00
C53    C     0.05924   0.02601   0.61070   0.00000  Uiso   1.00
C54    C     0.10264   0.01843   0.51883   0.00000  Uiso   1.00
C55    C     0.16425   0.98792   0.36855   0.00000  Uiso   1.00
C56    C     0.06111   0.10681   0.85238   0.00000  Uiso   1.00
C57    C     0.06496   0.09140   0.96712   0.00000  Uiso   1.00
C58    C     0.11098   0.11372   0.03826   0.00000  Uiso   1.00
C59    C     0.17740   0.13836   0.18861   0.00000  Uiso   1.00
C60    C     0.08927   0.15439   0.68199   0.00000  Uiso   1.00
C61    C     0.01598   0.16633   0.67246   0.00000  Uiso   1.00
C62    C     0.98984   0.20811   0.62764   0.00000  Uiso   1.00
C63    C     0.92148   0.21221   0.62650   0.00000  Uiso   1.00
C64    C     0.09870   0.10769   0.61656   0.00000  Uiso   1.00
C65    C     0.14211   0.10017   0.52474   0.00000  Uiso   1.00
C66    C     0.14340   0.05490   0.47655   0.00000  Uiso   1.00
C67    C     0.10180   0.14321   0.81019   0.00000  Uiso   1.00
C68    C     0.14783   0.16556   0.88116   0.00000  Uiso   1.00
C69    C     0.15174   0.15019   0.99598   0.00000  Uiso   1.00
H70    H     0.98269   0.05902   0.79253   0.00000  Uiso   1.00
H71    H     0.87549   0.10577   0.74625   0.00000  Uiso   1.00
H72    H     0.02775   0.99785   0.64338   0.00000  Uiso   1.00
H73    H     0.03347   0.06322   0.99974   0.00000  Uiso   1.00
H74    H     0.77458   0.17366   0.67628   0.00000  Uiso   1.00
H75    H     0.09565   0.94608   0.45941   0.00000  Uiso   1.00
H76    H     0.10770   0.08394   0.21087   0.00000  Uiso   1.00
H77    H     0.12095   0.18273   0.64914   0.00000  Uiso   1.00
H78    H     0.02133   0.23628   0.59498   0.00000  Uiso   1.00
H79    H     0.17359   0.12835   0.49212   0.00000  Uiso   1.00
H80    H     0.17931   0.19373   0.84848   0.00000  Uiso   1.00
H81    H     0.89296   0.27958   0.55350   0.00000  Uiso   1.00
H82    H     0.21402   0.05200   0.33664   0.00000  Uiso   1.00
H83    H     0.22608   0.18987   0.08809   0.00000  Uiso   1.00
O84    O     0.76575   0.25961   0.58182   0.00000  Uiso   1.00
O85    O     0.18698   0.96104   0.29731   0.00000  Uiso   1.00
O86    O     0.20279   0.14190   0.28320   0.00000  Uiso   1.00
N87    N     0.81611   0.19124   0.65484   0.00000  Uiso   1.00
N88    N     0.11628   0.97848   0.45206   0.00000  Uiso   1.00
N89    N     0.12756   0.10735   0.15461   0.00000  Uiso   1.00
N90    N     0.87981   0.24824   0.58877   0.00000  Uiso   1.00
N91    N     0.17998   0.03547   0.38600   0.00000  Uiso   1.00
N92    N     0.19126   0.16435   0.08854   0.00000  Uiso   1.00
C93    C     0.01436   0.41264   0.74031   0.00000  Uiso   1.00
C94    C     0.97529   0.37008   0.78534   0.00000  Uiso   1.00
C95    C     0.90696   0.36604   0.78641   0.00000  Uiso   1.00
C96    C     0.88072   0.32426   0.83123   0.00000  Uiso   1.00
C97    C     0.81386   0.26372   0.89477   0.00000  Uiso   1.00
C98    C     0.05801   0.42872   0.84124   0.00000  Uiso   1.00
C99    C     0.05924   0.47399   0.88930   0.00000  Uiso   1.00
C100   C     0.10264   0.48157   0.98117   0.00000  Uiso   1.00
C101   C     0.16425   0.51208   0.13145   0.00000  Uiso   1.00
C102   C     0.06111   0.39319   0.64762   0.00000  Uiso   1.00
C103   C     0.06496   0.40860   0.53288   0.00000  Uiso   1.00
C104   C     0.11098   0.38628   0.46174   0.00000  Uiso   1.00
C105   C     0.17740   0.36164   0.31139   0.00000  Uiso   1.00
C106   C     0.08927   0.34561   0.81801   0.00000  Uiso   1.00
C107   C     0.01598   0.33367   0.82754   0.00000  Uiso   1.00
C108   C     0.98984   0.29189   0.87236   0.00000  Uiso   1.00
C109   C     0.92148   0.28779   0.87350   0.00000  Uiso   1.00
C110   C     0.09870   0.39231   0.88344   0.00000  Uiso   1.00
C111   C     0.14211   0.39983   0.97526   0.00000  Uiso   1.00
C112   C     0.14340   0.44510   0.02345   0.00000  Uiso   1.00
C113   C     0.10180   0.35679   0.68981   0.00000  Uiso   1.00
C114   C     0.14783   0.33444   0.61884   0.00000  Uiso   1.00
C115   C     0.15174   0.34981   0.50402   0.00000  Uiso   1.00
H116   H     0.98269   0.44098   0.70747   0.00000  Uiso   1.00
H117   H     0.87549   0.39423   0.75375   0.00000  Uiso   1.00
H118   H     0.02775   0.50215   0.85662   0.00000  Uiso   1.00
H119   H     0.03347   0.43678   0.50026   0.00000  Uiso   1.00
H120   H     0.77458   0.32634   0.82372   0.00000  Uiso   1.00
H121   H     0.09565   0.55392   0.04059   0.00000  Uiso   1.00
H122   H     0.10770   0.41606   0.28913   0.00000  Uiso   1.00
H123   H     0.12095   0.31727   0.85086   0.00000  Uiso   1.00
H124   H     0.02133   0.26372   0.90502   0.00000  Uiso   1.00
H125   H     0.17359   0.37165   0.00788   0.00000  Uiso   1.00
H126   H     0.17931   0.30627   0.65152   0.00000  Uiso   1.00
H127   H     0.89296   0.22042   0.94650   0.00000  Uiso   1.00
H128   H     0.21402   0.44800   0.16336   0.00000  Uiso   1.00
H129   H     0.22608   0.31013   0.41191   0.00000  Uiso   1.00
O130   O     0.76575   0.24039   0.91818   0.00000  Uiso   1.00
O131   O     0.18698   0.53896   0.20269   0.00000  Uiso   1.00
O132   O     0.20279   0.35810   0.21680   0.00000  Uiso   1.00
N133   N     0.81611   0.30876   0.84516   0.00000  Uiso   1.00
N134   N     0.11628   0.52152   0.04794   0.00000  Uiso   1.00
N135   N     0.12756   0.39265   0.34539   0.00000  Uiso   1.00
N136   N     0.87981   0.25176   0.91123   0.00000  Uiso   1.00
N137   N     0.17998   0.46453   0.11400   0.00000  Uiso   1.00
N138   N     0.19126   0.33565   0.41146   0.00000  Uiso   1.00
C139   C     0.48564   0.58736   0.74031   0.00000  Uiso   1.00
C140   C     0.52471   0.62992   0.78534   0.00000  Uiso   1.00
C141   C     0.59304   0.63396   0.78641   0.00000  Uiso   1.00
C142   C     0.61928   0.67574   0.83123   0.00000  Uiso   1.00
C143   C     0.68614   0.73628   0.89477   0.00000  Uiso   1.00
C144   C     0.44199   0.57128   0.84124   0.00000  Uiso   1.00
C145   C     0.44076   0.52601   0.88930   0.00000  Uiso   1.00
C146   C     0.39736   0.51843   0.98117   0.00000  Uiso   1.00
C147   C     0.33575   0.48792   0.13145   0.00000  Uiso   1.00
C148   C     0.43889   0.60681   0.64762   0.00000  Uiso   1.00
C149   C     0.43504   0.59140   0.53288   0.00000  Uiso   1.00
C150   C     0.38902   0.61372   0.46174   0.00000  Uiso   1.00
C151   C     0.32260   0.63836   0.31139   0.00000  Uiso   1.00
C152   C     0.41073   0.65439   0.81801   0.00000  Uiso   1.00
C153   C     0.48402   0.66633   0.82754   0.00000  Uiso   1.00
C154   C     0.51016   0.70811   0.87236   0.00000  Uiso   1.00
C155   C     0.57852   0.71221   0.87350   0.00000  Uiso   1.00
C156   C     0.40130   0.60769   0.88344   0.00000  Uiso   1.00
C157   C     0.35789   0.60017   0.97526   0.00000  Uiso   1.00
C158   C     0.35660   0.55490   0.02345   0.00000  Uiso   1.00
C159   C     0.39820   0.64321   0.68981   0.00000  Uiso   1.00
C160   C     0.35217   0.66556   0.61884   0.00000  Uiso   1.00
C161   C     0.34826   0.65019   0.50402   0.00000  Uiso   1.00
H162   H     0.51731   0.55902   0.70747   0.00000  Uiso   1.00
H163   H     0.62451   0.60577   0.75375   0.00000  Uiso   1.00
H164   H     0.47225   0.49785   0.85662   0.00000  Uiso   1.00
H165   H     0.46653   0.56322   0.50026   0.00000  Uiso   1.00
H166   H     0.72542   0.67366   0.82372   0.00000  Uiso   1.00
H167   H     0.40435   0.44608   0.04059   0.00000  Uiso   1.00
H168   H     0.39230   0.58394   0.28913   0.00000  Uiso   1.00
H169   H     0.37905   0.68273   0.85086   0.00000  Uiso   1.00
H170   H     0.47867   0.73628   0.90502   0.00000  Uiso   1.00
H171   H     0.32641   0.62835   0.00788   0.00000  Uiso   1.00
H172   H     0.32069   0.69373   0.65152   0.00000  Uiso   1.00
H173   H     0.60704   0.77958   0.94650   0.00000  Uiso   1.00
H174   H     0.28598   0.55200   0.16336   0.00000  Uiso   1.00
H175   H     0.27392   0.68987   0.41191   0.00000  Uiso   1.00
O176   O     0.73425   0.75961   0.91818   0.00000  Uiso   1.00
O177   O     0.31302   0.46104   0.20269   0.00000  Uiso   1.00
O178   O     0.29721   0.64190   0.21680   0.00000  Uiso   1.00
N179   N     0.68389   0.69124   0.84516   0.00000  Uiso   1.00
N180   N     0.38372   0.47848   0.04794   0.00000  Uiso   1.00
N181   N     0.37244   0.60735   0.34539   0.00000  Uiso   1.00
N182   N     0.62019   0.74824   0.91123   0.00000  Uiso   1.00
N183   N     0.32002   0.53547   0.11400   0.00000  Uiso   1.00
N184   N     0.30874   0.66435   0.41146   0.00000  Uiso   1.00
C185   C     0.51436   0.08736   0.24031   0.00000  Uiso   1.00
C186   C     0.47529   0.12992   0.28534   0.00000  Uiso   1.00
C187   C     0.40696   0.13396   0.28641   0.00000  Uiso   1.00
C188   C     0.38072   0.17574   0.33123   0.00000  Uiso   1.00
C189   C     0.31386   0.23628   0.39477   0.00000  Uiso   1.00
C190   C     0.55801   0.07128   0.34124   0.00000  Uiso   1.00
C191   C     0.55924   0.02601   0.38930   0.00000  Uiso   1.00
C192   C     0.60264   0.01843   0.48117   0.00000  Uiso   1.00
C193   C     0.66425   0.98792   0.63145   0.00000  Uiso   1.00
C194   C     0.56111   0.10681   0.14762   0.00000  Uiso   1.00
C195   C     0.56496   0.09140   0.03288   0.00000  Uiso   1.00
C196   C     0.61098   0.11372   0.96174   0.00000  Uiso   1.00
C197   C     0.67740   0.13836   0.81139   0.00000  Uiso   1.00
C198   C     0.58927   0.15439   0.31801   0.00000  Uiso   1.00
C199   C     0.51598   0.16633   0.32754   0.00000  Uiso   1.00
C200   C     0.48984   0.20811   0.37236   0.00000  Uiso   1.00
C201   C     0.42148   0.21221   0.37350   0.00000  Uiso   1.00
C202   C     0.59870   0.10769   0.38344   0.00000  Uiso   1.00
C203   C     0.64211   0.10017   0.47526   0.00000  Uiso   1.00
C204   C     0.64340   0.05490   0.52345   0.00000  Uiso   1.00
C205   C     0.60180   0.14321   0.18981   0.00000  Uiso   1.00
C206   C     0.64783   0.16556   0.11884   0.00000  Uiso   1.00
C207   C     0.65174   0.15019   0.00402   0.00000  Uiso   1.00
H208   H     0.48269   0.05902   0.20747   0.00000  Uiso   1.00
H209   H     0.37549   0.10577   0.25375   0.00000  Uiso   1.00
H210   H     0.52775   0.99785   0.35662   0.00000  Uiso   1.00
H211   H     0.53347   0.06322   0.00026   0.00000  Uiso   1.00
H212   H     0.27458   0.17366   0.32372   0.00000  Uiso   1.00
H213   H     0.59565   0.94608   0.54059   0.00000  Uiso   1.00
H214   H     0.60770   0.08394   0.78913   0.00000  Uiso   1.00
H215   H     0.62095   0.18273   0.35086   0.00000  Uiso   1.00
H216   H     0.52133   0.23628   0.40502   0.00000  Uiso   1.00
H217   H     0.67359   0.12835   0.50788   0.00000  Uiso   1.00
H218   H     0.67931   0.19373   0.15152   0.00000  Uiso   1.00
H219   H     0.39296   0.27958   0.44650   0.00000  Uiso   1.00
H220   H     0.71402   0.05200   0.66336   0.00000  Uiso   1.00
H221   H     0.72608   0.18987   0.91191   0.00000  Uiso   1.00
O222   O     0.26575   0.25961   0.41818   0.00000  Uiso   1.00
O223   O     0.68698   0.96104   0.70269   0.00000  Uiso   1.00
O224   O     0.70279   0.14190   0.71680   0.00000  Uiso   1.00
N225   N     0.31611   0.19124   0.34516   0.00000  Uiso   1.00
N226   N     0.61628   0.97848   0.54794   0.00000  Uiso   1.00
N227   N     0.62756   0.10735   0.84539   0.00000  Uiso   1.00
N228   N     0.37981   0.24824   0.41123   0.00000  Uiso   1.00
N229   N     0.67998   0.03547   0.61400   0.00000  Uiso   1.00
N230   N     0.69126   0.16435   0.91146   0.00000  Uiso   1.00
C231   C     0.98564   0.91264   0.24031   0.00000  Uiso   1.00
C232   C     0.02471   0.87008   0.28534   0.00000  Uiso   1.00
C233   C     0.09304   0.86604   0.28641   0.00000  Uiso   1.00
C234   C     0.11928   0.82426   0.33123   0.00000  Uiso   1.00
C235   C     0.18614   0.76372   0.39477   0.00000  Uiso   1.00
C236   C     0.94199   0.92872   0.34124   0.00000  Uiso   1.00
C237   C     0.94076   0.97399   0.38930   0.00000  Uiso   1.00
C238   C     0.89736   0.98157   0.48117   0.00000  Uiso   1.00
C239   C     0.83575   0.01208   0.63145   0.00000  Uiso   1.00
C240   C     0.93889   0.89319   0.14762   0.00000  Uiso   1.00
C241   C     0.93504   0.90860   0.03288   0.00000  Uiso   1.00
C242   C     0.88902   0.88628   0.96174   0.00000  Uiso   1.00
C243   C     0.82260   0.86164   0.81139   0.00000  Uiso   1.00
C244   C     0.91073   0.84561   0.31801   0.00000  Uiso   1.00
C245   C     0.98402   0.83367   0.32754   0.00000  Uiso   1.00
C246   C     0.01016   0.79189   0.37236   0.00000  Uiso   1.00
C247   C     0.07852   0.78779   0.37350   0.00000  Uiso   1.00
C248   C     0.90130   0.89231   0.38344   0.00000  Uiso   1.00
C249   C     0.85789   0.89983   0.47526   0.00000  Uiso   1.00
C250   C     0.85660   0.94510   0.52345   0.00000  Uiso   1.00
C251   C     0.89820   0.85679   0.18981   0.00000  Uiso   1.00
C252   C     0.85217   0.83444   0.11884   0.00000  Uiso   1.00
C253   C     0.84826   0.84981   0.00402   0.00000  Uiso   1.00
H254   H     0.01731   0.94098   0.20747   0.00000  Uiso   1.00
H255   H     0.12451   0.89423   0.25375   0.00000  Uiso   1.00
H256   H     0.97225   0.00215   0.35662   0.00000  Uiso   1.00
H257   H     0.96653   0.93678   0.00026   0.00000  Uiso   1.00
H258   H     0.22542   0.82634   0.32372   0.00000  Uiso   1.00
H259   H     0.90435   0.05392   0.54059   0.00000  Uiso   1.00
H260   H     0.89230   0.91606   0.78913   0.00000  Uiso   1.00
H261   H     0.87905   0.81727   0.35086   0.00000  Uiso   1.00
H262   H     0.97867   0.76372   0.40502   0.00000  Uiso   1.00
H263   H     0.82641   0.87165   0.50788   0.00000  Uiso   1.00
H264   H     0.82069   0.80627   0.15152   0.00000  Uiso   1.00
H265   H     0.10704   0.72042   0.44650   0.00000  Uiso   1.00
H266   H     0.78598   0.94800   0.66336   0.00000  Uiso   1.00
H267   H     0.77392   0.81013   0.91191   0.00000  Uiso   1.00
O268   O     0.23425   0.74039   0.41818   0.00000  Uiso   1.00
O269   O     0.81302   0.03896   0.70269   0.00000  Uiso   1.00
O270   O     0.79721   0.85810   0.71680   0.00000  Uiso   1.00
N271   N     0.18389   0.80876   0.34516   0.00000  Uiso   1.00
N272   N     0.88372   0.02152   0.54794   0.00000  Uiso   1.00
N273   N     0.87244   0.89265   0.84539   0.00000  Uiso   1.00
N274   N     0.12019   0.75176   0.41123   0.00000  Uiso   1.00
N275   N     0.82002   0.96453   0.61400   0.00000  Uiso   1.00
N276   N     0.80874   0.83565   0.91146   0.00000  Uiso   1.00
C277   C     0.98564   0.58736   0.25969   0.00000  Uiso   1.00
C278   C     0.02471   0.62992   0.21466   0.00000  Uiso   1.00
C279   C     0.09304   0.63396   0.21359   0.00000  Uiso   1.00
C280   C     0.11928   0.67574   0.16877   0.00000  Uiso   1.00
C281   C     0.18614   0.73628   0.10523   0.00000  Uiso   1.00
C282   C     0.94199   0.57128   0.15876   0.00000  Uiso   1.00
C283   C     0.94076   0.52601   0.11070   0.00000  Uiso   1.00
C284   C     0.89736   0.51843   0.01883   0.00000  Uiso   1.00
C285   C     0.83575   0.48792   0.86855   0.00000  Uiso   1.00
C286   C     0.93889   0.60681   0.35238   0.00000  Uiso   1.00
C287   C     0.93504   0.59140   0.46712   0.00000  Uiso   1.00
C288   C     0.88902   0.61372   0.53826   0.00000  Uiso   1.00
C289   C     0.82260   0.63836   0.68861   0.00000  Uiso   1.00
C290   C     0.91073   0.65439   0.18199   0.00000  Uiso   1.00
C291   C     0.98402   0.66633   0.17246   0.00000  Uiso   1.00
C292   C     0.01016   0.70811   0.12764   0.00000  Uiso   1.00
C293   C     0.07852   0.71221   0.12650   0.00000  Uiso   1.00
C294   C     0.90130   0.60769   0.11656   0.00000  Uiso   1.00
C295   C     0.85789   0.60017   0.02474   0.00000  Uiso   1.00
C296   C     0.85660   0.55490   0.97655   0.00000  Uiso   1.00
C297   C     0.89820   0.64321   0.31019   0.00000  Uiso   1.00
C298   C     0.85217   0.66556   0.38116   0.00000  Uiso   1.00
C299   C     0.84826   0.65019   0.49598   0.00000  Uiso   1.00
H300   H     0.01731   0.55902   0.29253   0.00000  Uiso   1.00
H301   H     0.12451   0.60577   0.24625   0.00000  Uiso   1.00
H302   H     0.97225   0.49785   0.14338   0.00000  Uiso   1.00
H303   H     0.96653   0.56322   0.49974   0.00000  Uiso   1.00
H304   H     0.22542   0.67366   0.17628   0.00000  Uiso   1.00
H305   H     0.90435   0.44608   0.95941   0.00000  Uiso   1.00
H306   H     0.89230   0.58394   0.71087   0.00000  Uiso   1.00
H307   H     0.87905   0.68273   0.14914   0.00000  Uiso   1.00
H308   H     0.97867   0.73628   0.09498   0.00000  Uiso   1.00
H309   H     0.82641   0.62835   0.99212   0.00000  Uiso   1.00
H310   H     0.82069   0.69373   0.34848   0.00000  Uiso   1.00
H311   H     0.10704   0.77958   0.05350   0.00000  Uiso   1.00
H312   H     0.78598   0.55200   0.83664   0.00000  Uiso   1.00
H313   H     0.77392   0.68987   0.58809   0.00000  Uiso   1.00
O314   O     0.23425   0.75961   0.08182   0.00000  Uiso   1.00
O315   O     0.81302   0.46104   0.79731   0.00000  Uiso   1.00
O316   O     0.79721   0.64190   0.78320   0.00000  Uiso   1.00
N317   N     0.18389   0.69124   0.15484   0.00000  Uiso   1.00
N318   N     0.88372   0.47848   0.95206   0.00000  Uiso   1.00
N319   N     0.87244   0.60735   0.65461   0.00000  Uiso   1.00
N320   N     0.12019   0.74824   0.08877   0.00000  Uiso   1.00
N321   N     0.82002   0.53547   0.88600   0.00000  Uiso   1.00
N322   N     0.80874   0.66435   0.58854   0.00000  Uiso   1.00
C323   C     0.51436   0.41264   0.25969   0.00000  Uiso   1.00
C324   C     0.47529   0.37008   0.21466   0.00000  Uiso   1.00
C325   C     0.40696   0.36604   0.21359   0.00000  Uiso   1.00
C326   C     0.38072   0.32426   0.16877   0.00000  Uiso   1.00
C327   C     0.31386   0.26372   0.10523   0.00000  Uiso   1.00
C328   C     0.55801   0.42872   0.15876   0.00000  Uiso   1.00
C329   C     0.55924   0.47399   0.11070   0.00000  Uiso   1.00
C330   C     0.60264   0.48157   0.01883   0.00000  Uiso   1.00
C331   C     0.66425   0.51208   0.86855   0.00000  Uiso   1.00
C332   C     0.56111   0.39319   0.35238   0.00000  Uiso   1.00
C333   C     0.56496   0.40860   0.46712   0.00000  Uiso   1.00
C334   C     0.61098   0.38628   0.53826   0.00000  Uiso   1.00
C335   C     0.67740   0.36164   0.68861   0.00000  Uiso   1.00
C336   C     0.58927   0.34561   0.18199   0.00000  Uiso   1.00
C337   C     0.51598   0.33367   0.17246   0.00000  Uiso   1.00
C338   C     0.48984   0.29189   0.12764   0.00000  Uiso   1.00
C339   C     0.42148   0.28779   0.12650   0.00000  Uiso   1.00
C340   C     0.59870   0.39231   0.11656   0.00000  Uiso   1.00
C341   C     0.64211   0.39983   0.02474   0.00000  Uiso   1.00
C342   C     0.64340   0.44510   0.97655   0.00000  Uiso   1.00
C343   C     0.60180   0.35679   0.31019   0.00000  Uiso   1.00
C344   C     0.64783   0.33444   0.38116   0.00000  Uiso   1.00
C345   C     0.65174   0.34981   0.49598   0.00000  Uiso   1.00
H346   H     0.48269   0.44098   0.29253   0.00000  Uiso   1.00
H347   H     0.37549   0.39423   0.24625   0.00000  Uiso   1.00
H348   H     0.52775   0.50215   0.14338   0.00000  Uiso   1.00
H349   H     0.53347   0.43678   0.49974   0.00000  Uiso   1.00
H350   H     0.27458   0.32634   0.17628   0.00000  Uiso   1.00
H351   H     0.59565   0.55392   0.95941   0.00000  Uiso   1.00
H352   H     0.60770   0.41606   0.71087   0.00000  Uiso   1.00
H353   H     0.62095   0.31727   0.14914   0.00000  Uiso   1.00
H354   H     0.52133   0.26372   0.09498   0.00000  Uiso   1.00
H355   H     0.67359   0.37165   0.99212   0.00000  Uiso   1.00
H356   H     0.67931   0.30627   0.34848   0.00000  Uiso   1.00
H357   H     0.39296   0.22042   0.05350   0.00000  Uiso   1.00
H358   H     0.71402   0.44800   0.83664   0.00000  Uiso   1.00
H359   H     0.72608   0.31013   0.58809   0.00000  Uiso   1.00
O360   O     0.26575   0.24039   0.08182   0.00000  Uiso   1.00
O361   O     0.68698   0.53896   0.79731   0.00000  Uiso   1.00
O362   O     0.70279   0.35810   0.78320   0.00000  Uiso   1.00
N363   N     0.31611   0.30876   0.15484   0.00000  Uiso   1.00
N364   N     0.61628   0.52152   0.95206   0.00000  Uiso   1.00
N365   N     0.62756   0.39265   0.65461   0.00000  Uiso   1.00
N366   N     0.37981   0.25176   0.08877   0.00000  Uiso   1.00
N367   N     0.67998   0.46453   0.88600   0.00000  Uiso   1.00
N368   N     0.69126   0.33565   0.58854   0.00000  Uiso   1.00
