data_job_02089
_audit_creation_date              2018-12-19
_audit_creation_method            'Materials Studio'
_symmetry_space_group_name_H-M    'P1'
_symmetry_Int_Tables_number       1
_symmetry_cell_setting            triclinic
loop_
_symmetry_equiv_pos_as_xyz
  x,y,z
_cell_length_a                    15.8588
_cell_length_b                    15.3740
_cell_length_c                    20.6690
_cell_angle_alpha                 90.0000
_cell_angle_beta                  90.0000
_cell_angle_gamma                 90.0000
loop_
_atom_site_label
_atom_site_type_symbol
_atom_site_fract_x
_atom_site_fract_y
_atom_site_fract_z
_atom_site_U_iso_or_equiv
_atom_site_adp_type
_atom_site_occupancy
C1     C     0.68200   0.07565   0.90453   0.00000  Uiso   1.00
C2     C     0.77403   0.09115   0.88653   0.00000  Uiso   1.00
C3     C     0.81218   0.06657   0.82894   0.00000  Uiso   1.00
C4     C     0.89702   0.08666   0.82174   0.00000  Uiso   1.00
C5     C     0.03308   0.10414   0.78639   0.00000  Uiso   1.00
C6     C     0.68334   0.02535   0.96812   0.00000  Uiso   1.00
C7     C     0.64524   0.94544   0.97912   0.00000  Uiso   1.00
C8     C     0.65372   0.91015   0.04061   0.00000  Uiso   1.00
C9     C     0.64894   0.82549   0.13194   0.00000  Uiso   1.00
C10    C     0.64538   0.16485   0.92039   0.00000  Uiso   1.00
C11    C     0.57534   0.20223   0.89127   0.00000  Uiso   1.00
C12    C     0.55185   0.28437   0.91259   0.00000  Uiso   1.00
C13    C     0.48813   0.41631   0.92981   0.00000  Uiso   1.00
C14    C     0.76481   0.15506   0.99417   0.00000  Uiso   1.00
C15    C     0.81901   0.13428   0.93522   0.00000  Uiso   1.00
C16    C     0.90381   0.15442   0.92811   0.00000  Uiso   1.00
C17    C     0.94208   0.12987   0.87051   0.00000  Uiso   1.00
C18    C     0.72832   0.06848   0.01680   0.00000  Uiso   1.00
C19    C     0.73686   0.03330   0.07829   0.00000  Uiso   1.00
C20    C     0.69879   0.95336   0.08938   0.00000  Uiso   1.00
C21    C     0.69036   0.20798   0.96907   0.00000  Uiso   1.00
C22    C     0.66697   0.29008   0.99044   0.00000  Uiso   1.00
C23    C     0.59692   0.32758   0.96137   0.00000  Uiso   1.00
H24    H     0.64698   0.04206   0.86663   0.00000  Uiso   1.00
H25    H     0.77735   0.03318   0.79128   0.00000  Uiso   1.00
H26    H     0.61042   0.91208   0.94144   0.00000  Uiso   1.00
H27    H     0.54055   0.16883   0.85360   0.00000  Uiso   1.00
H28    H     0.94174   0.04233   0.72921   0.00000  Uiso   1.00
H29    H     0.58974   0.78700   0.04584   0.00000  Uiso   1.00
H30    H     0.44239   0.32840   0.86062   0.00000  Uiso   1.00
H31    H     0.79984   0.18863   0.03207   0.00000  Uiso   1.00
H32    H     0.93860   0.18780   0.96579   0.00000  Uiso   1.00
H33    H     0.77167   0.06670   0.11595   0.00000  Uiso   1.00
H34    H     0.70180   0.32344   0.02812   0.00000  Uiso   1.00
H35    H     0.07262   0.16781   0.87085   0.00000  Uiso   1.00
H36    H     0.72062   0.91248   0.18748   0.00000  Uiso   1.00
H37    H     0.57327   0.45388   0.00226   0.00000  Uiso   1.00
O38    O     0.09571   0.10185   0.75345   0.00000  Uiso   1.00
O39    O     0.63389   0.76688   0.16886   0.00000  Uiso   1.00
O40    O     0.44057   0.47718   0.92585   0.00000  Uiso   1.00
N41    N     0.95349   0.07199   0.77163   0.00000  Uiso   1.00
N42    N     0.62441   0.83327   0.06766   0.00000  Uiso   1.00
N43    N     0.48663   0.33942   0.89451   0.00000  Uiso   1.00
N44    N     0.02392   0.13952   0.84785   0.00000  Uiso   1.00
N45    N     0.69483   0.90079   0.14388   0.00000  Uiso   1.00
N46    N     0.55706   0.40694   0.97073   0.00000  Uiso   1.00
C47    C     0.81800   0.92435   0.40453   0.00000  Uiso   1.00
C48    C     0.72597   0.90885   0.38653   0.00000  Uiso   1.00
C49    C     0.68782   0.93343   0.32894   0.00000  Uiso   1.00
C50    C     0.60298   0.91334   0.32174   0.00000  Uiso   1.00
C51    C     0.46692   0.89586   0.28639   0.00000  Uiso   1.00
C52    C     0.81666   0.97465   0.46812   0.00000  Uiso   1.00
C53    C     0.85476   0.05456   0.47912   0.00000  Uiso   1.00
C54    C     0.84628   0.08985   0.54061   0.00000  Uiso   1.00
C55    C     0.85106   0.17451   0.63194   0.00000  Uiso   1.00
C56    C     0.85462   0.83515   0.42039   0.00000  Uiso   1.00
C57    C     0.92466   0.79777   0.39127   0.00000  Uiso   1.00
C58    C     0.94815   0.71563   0.41259   0.00000  Uiso   1.00
C59    C     0.01187   0.58369   0.42981   0.00000  Uiso   1.00
C60    C     0.73519   0.84494   0.49417   0.00000  Uiso   1.00
C61    C     0.68099   0.86572   0.43522   0.00000  Uiso   1.00
C62    C     0.59619   0.84558   0.42811   0.00000  Uiso   1.00
C63    C     0.55792   0.87013   0.37051   0.00000  Uiso   1.00
C64    C     0.77168   0.93152   0.51680   0.00000  Uiso   1.00
C65    C     0.76314   0.96670   0.57829   0.00000  Uiso   1.00
C66    C     0.80121   0.04664   0.58938   0.00000  Uiso   1.00
C67    C     0.80964   0.79202   0.46907   0.00000  Uiso   1.00
C68    C     0.83303   0.70992   0.49044   0.00000  Uiso   1.00
C69    C     0.90308   0.67242   0.46137   0.00000  Uiso   1.00
H70    H     0.85302   0.95794   0.36663   0.00000  Uiso   1.00
H71    H     0.72265   0.96682   0.29128   0.00000  Uiso   1.00
H72    H     0.88958   0.08792   0.44144   0.00000  Uiso   1.00
H73    H     0.95945   0.83117   0.35360   0.00000  Uiso   1.00
H74    H     0.55826   0.95767   0.22921   0.00000  Uiso   1.00
H75    H     0.91026   0.21300   0.54584   0.00000  Uiso   1.00
H76    H     0.05761   0.67160   0.36062   0.00000  Uiso   1.00
H77    H     0.70016   0.81137   0.53207   0.00000  Uiso   1.00
H78    H     0.56140   0.81220   0.46579   0.00000  Uiso   1.00
H79    H     0.72833   0.93330   0.61595   0.00000  Uiso   1.00
H80    H     0.79820   0.67656   0.52812   0.00000  Uiso   1.00
H81    H     0.42738   0.83219   0.37085   0.00000  Uiso   1.00
H82    H     0.77938   0.08752   0.68748   0.00000  Uiso   1.00
H83    H     0.92673   0.54612   0.50226   0.00000  Uiso   1.00
O84    O     0.40429   0.89815   0.25345   0.00000  Uiso   1.00
O85    O     0.86611   0.23312   0.66886   0.00000  Uiso   1.00
O86    O     0.05943   0.52282   0.42585   0.00000  Uiso   1.00
N87    N     0.54651   0.92801   0.27163   0.00000  Uiso   1.00
N88    N     0.87559   0.16673   0.56766   0.00000  Uiso   1.00
N89    N     0.01337   0.66058   0.39451   0.00000  Uiso   1.00
N90    N     0.47608   0.86048   0.34785   0.00000  Uiso   1.00
N91    N     0.80517   0.09921   0.64388   0.00000  Uiso   1.00
N92    N     0.94294   0.59306   0.47073   0.00000  Uiso   1.00
C93    C     0.31800   0.57565   0.59547   0.00000  Uiso   1.00
C94    C     0.22597   0.59115   0.61347   0.00000  Uiso   1.00
C95    C     0.18782   0.56657   0.67106   0.00000  Uiso   1.00
C96    C     0.10298   0.58666   0.67826   0.00000  Uiso   1.00
C97    C     0.96692   0.60414   0.71361   0.00000  Uiso   1.00
C98    C     0.31666   0.52535   0.53188   0.00000  Uiso   1.00
C99    C     0.35476   0.44544   0.52088   0.00000  Uiso   1.00
C100   C     0.34628   0.41015   0.45939   0.00000  Uiso   1.00
C101   C     0.35106   0.32549   0.36806   0.00000  Uiso   1.00
C102   C     0.35462   0.66485   0.57961   0.00000  Uiso   1.00
C103   C     0.42466   0.70223   0.60873   0.00000  Uiso   1.00
C104   C     0.44815   0.78437   0.58741   0.00000  Uiso   1.00
C105   C     0.51187   0.91631   0.57019   0.00000  Uiso   1.00
C106   C     0.23519   0.65506   0.50583   0.00000  Uiso   1.00
C107   C     0.18099   0.63428   0.56478   0.00000  Uiso   1.00
C108   C     0.09619   0.65442   0.57189   0.00000  Uiso   1.00
C109   C     0.05792   0.62987   0.62949   0.00000  Uiso   1.00
C110   C     0.27168   0.56848   0.48320   0.00000  Uiso   1.00
C111   C     0.26314   0.53330   0.42171   0.00000  Uiso   1.00
C112   C     0.30121   0.45336   0.41062   0.00000  Uiso   1.00
C113   C     0.30964   0.70798   0.53093   0.00000  Uiso   1.00
C114   C     0.33303   0.79008   0.50956   0.00000  Uiso   1.00
C115   C     0.40308   0.82758   0.53863   0.00000  Uiso   1.00
H116   H     0.35302   0.54206   0.63337   0.00000  Uiso   1.00
H117   H     0.22265   0.53318   0.70872   0.00000  Uiso   1.00
H118   H     0.38958   0.41208   0.55856   0.00000  Uiso   1.00
H119   H     0.45945   0.66883   0.64640   0.00000  Uiso   1.00
H120   H     0.05826   0.54233   0.77079   0.00000  Uiso   1.00
H121   H     0.41026   0.28700   0.45416   0.00000  Uiso   1.00
H122   H     0.55761   0.82840   0.63938   0.00000  Uiso   1.00
H123   H     0.20016   0.68863   0.46793   0.00000  Uiso   1.00
H124   H     0.06140   0.68780   0.53421   0.00000  Uiso   1.00
H125   H     0.22833   0.56670   0.38405   0.00000  Uiso   1.00
H126   H     0.29820   0.82344   0.47188   0.00000  Uiso   1.00
H127   H     0.92738   0.66781   0.62915   0.00000  Uiso   1.00
H128   H     0.27938   0.41248   0.31252   0.00000  Uiso   1.00
H129   H     0.42673   0.95388   0.49774   0.00000  Uiso   1.00
O130   O     0.90429   0.60185   0.74655   0.00000  Uiso   1.00
O131   O     0.36611   0.26688   0.33114   0.00000  Uiso   1.00
O132   O     0.55943   0.97718   0.57415   0.00000  Uiso   1.00
N133   N     0.04651   0.57199   0.72837   0.00000  Uiso   1.00
N134   N     0.37559   0.33327   0.43234   0.00000  Uiso   1.00
N135   N     0.51337   0.83942   0.60549   0.00000  Uiso   1.00
N136   N     0.97608   0.63952   0.65215   0.00000  Uiso   1.00
N137   N     0.30517   0.40079   0.35612   0.00000  Uiso   1.00
N138   N     0.44294   0.90694   0.52927   0.00000  Uiso   1.00
C139   C     0.18200   0.42435   0.09547   0.00000  Uiso   1.00
C140   C     0.27403   0.40885   0.11347   0.00000  Uiso   1.00
C141   C     0.31218   0.43343   0.17106   0.00000  Uiso   1.00
C142   C     0.39702   0.41334   0.17826   0.00000  Uiso   1.00
C143   C     0.53308   0.39586   0.21361   0.00000  Uiso   1.00
C144   C     0.18334   0.47465   0.03188   0.00000  Uiso   1.00
C145   C     0.14524   0.55456   0.02088   0.00000  Uiso   1.00
C146   C     0.15372   0.58985   0.95939   0.00000  Uiso   1.00
C147   C     0.14894   0.67451   0.86806   0.00000  Uiso   1.00
C148   C     0.14538   0.33515   0.07961   0.00000  Uiso   1.00
C149   C     0.07534   0.29777   0.10873   0.00000  Uiso   1.00
C150   C     0.05185   0.21563   0.08741   0.00000  Uiso   1.00
C151   C     0.98813   0.08369   0.07019   0.00000  Uiso   1.00
C152   C     0.26481   0.34494   0.00583   0.00000  Uiso   1.00
C153   C     0.31901   0.36572   0.06478   0.00000  Uiso   1.00
C154   C     0.40381   0.34558   0.07189   0.00000  Uiso   1.00
C155   C     0.44208   0.37013   0.12949   0.00000  Uiso   1.00
C156   C     0.22832   0.43152   0.98320   0.00000  Uiso   1.00
C157   C     0.23686   0.46670   0.92171   0.00000  Uiso   1.00
C158   C     0.19879   0.54664   0.91062   0.00000  Uiso   1.00
C159   C     0.19036   0.29202   0.03093   0.00000  Uiso   1.00
C160   C     0.16697   0.20992   0.00956   0.00000  Uiso   1.00
C161   C     0.09692   0.17242   0.03863   0.00000  Uiso   1.00
H162   H     0.14698   0.45794   0.13337   0.00000  Uiso   1.00
H163   H     0.27735   0.46682   0.20872   0.00000  Uiso   1.00
H164   H     0.11042   0.58792   0.05856   0.00000  Uiso   1.00
H165   H     0.04055   0.33117   0.14640   0.00000  Uiso   1.00
H166   H     0.44174   0.45767   0.27079   0.00000  Uiso   1.00
H167   H     0.08974   0.71300   0.95416   0.00000  Uiso   1.00
H168   H     0.94239   0.17160   0.13938   0.00000  Uiso   1.00
H169   H     0.29984   0.31137   0.96793   0.00000  Uiso   1.00
H170   H     0.43860   0.31220   0.03421   0.00000  Uiso   1.00
H171   H     0.27167   0.43330   0.88405   0.00000  Uiso   1.00
H172   H     0.20180   0.17656   0.97188   0.00000  Uiso   1.00
H173   H     0.57262   0.33219   0.12915   0.00000  Uiso   1.00
H174   H     0.22062   0.58752   0.81252   0.00000  Uiso   1.00
H175   H     0.07327   0.04612   0.99774   0.00000  Uiso   1.00
O176   O     0.59571   0.39815   0.24655   0.00000  Uiso   1.00
O177   O     0.13389   0.73312   0.83114   0.00000  Uiso   1.00
O178   O     0.94057   0.02282   0.07415   0.00000  Uiso   1.00
N179   N     0.45349   0.42801   0.22837   0.00000  Uiso   1.00
N180   N     0.12441   0.66673   0.93234   0.00000  Uiso   1.00
N181   N     0.98663   0.16058   0.10549   0.00000  Uiso   1.00
N182   N     0.52392   0.36048   0.15215   0.00000  Uiso   1.00
N183   N     0.19483   0.59921   0.85612   0.00000  Uiso   1.00
N184   N     0.05706   0.09306   0.02927   0.00000  Uiso   1.00
C185   C     0.31800   0.92435   0.09547   0.00000  Uiso   1.00
C186   C     0.22597   0.90885   0.11347   0.00000  Uiso   1.00
C187   C     0.18782   0.93343   0.17106   0.00000  Uiso   1.00
C188   C     0.10298   0.91334   0.17826   0.00000  Uiso   1.00
C189   C     0.96692   0.89586   0.21361   0.00000  Uiso   1.00
C190   C     0.31666   0.97465   0.03188   0.00000  Uiso   1.00
C191   C     0.35476   0.05456   0.02088   0.00000  Uiso   1.00
C192   C     0.34628   0.08985   0.95939   0.00000  Uiso   1.00
C193   C     0.35106   0.17451   0.86806   0.00000  Uiso   1.00
C194   C     0.35462   0.83515   0.07961   0.00000  Uiso   1.00
C195   C     0.42466   0.79777   0.10873   0.00000  Uiso   1.00
C196   C     0.44815   0.71563   0.08741   0.00000  Uiso   1.00
C197   C     0.51187   0.58369   0.07019   0.00000  Uiso   1.00
C198   C     0.23519   0.84494   0.00583   0.00000  Uiso   1.00
C199   C     0.18099   0.86572   0.06478   0.00000  Uiso   1.00
C200   C     0.09619   0.84558   0.07189   0.00000  Uiso   1.00
C201   C     0.05792   0.87013   0.12949   0.00000  Uiso   1.00
C202   C     0.27168   0.93152   0.98320   0.00000  Uiso   1.00
C203   C     0.26314   0.96670   0.92171   0.00000  Uiso   1.00
C204   C     0.30121   0.04664   0.91062   0.00000  Uiso   1.00
C205   C     0.30964   0.79202   0.03093   0.00000  Uiso   1.00
C206   C     0.33303   0.70992   0.00956   0.00000  Uiso   1.00
C207   C     0.40308   0.67242   0.03863   0.00000  Uiso   1.00
H208   H     0.35302   0.95794   0.13337   0.00000  Uiso   1.00
H209   H     0.22265   0.96682   0.20872   0.00000  Uiso   1.00
H210   H     0.38958   0.08792   0.05856   0.00000  Uiso   1.00
H211   H     0.45945   0.83117   0.14640   0.00000  Uiso   1.00
H212   H     0.05826   0.95767   0.27079   0.00000  Uiso   1.00
H213   H     0.41026   0.21300   0.95416   0.00000  Uiso   1.00
H214   H     0.55761   0.67160   0.13938   0.00000  Uiso   1.00
H215   H     0.20016   0.81137   0.96793   0.00000  Uiso   1.00
H216   H     0.06140   0.81220   0.03421   0.00000  Uiso   1.00
H217   H     0.22833   0.93330   0.88405   0.00000  Uiso   1.00
H218   H     0.29820   0.67656   0.97188   0.00000  Uiso   1.00
H219   H     0.92738   0.83219   0.12915   0.00000  Uiso   1.00
H220   H     0.27938   0.08752   0.81252   0.00000  Uiso   1.00
H221   H     0.42673   0.54612   0.99774   0.00000  Uiso   1.00
O222   O     0.90429   0.89815   0.24655   0.00000  Uiso   1.00
O223   O     0.36611   0.23312   0.83114   0.00000  Uiso   1.00
O224   O     0.55943   0.52282   0.07415   0.00000  Uiso   1.00
N225   N     0.04651   0.92801   0.22837   0.00000  Uiso   1.00
N226   N     0.37559   0.16673   0.93234   0.00000  Uiso   1.00
N227   N     0.51337   0.66058   0.10549   0.00000  Uiso   1.00
N228   N     0.97608   0.86048   0.15215   0.00000  Uiso   1.00
N229   N     0.30517   0.09921   0.85612   0.00000  Uiso   1.00
N230   N     0.44294   0.59306   0.02927   0.00000  Uiso   1.00
C231   C     0.18200   0.07565   0.59547   0.00000  Uiso   1.00
C232   C     0.27403   0.09115   0.61347   0.00000  Uiso   1.00
C233   C     0.31218   0.06657   0.67106   0.00000  Uiso   1.00
C234   C     0.39702   0.08666   0.67826   0.00000  Uiso   1.00
C235   C     0.53308   0.10414   0.71361   0.00000  Uiso   1.00
C236   C     0.18334   0.02535   0.53188   0.00000  Uiso   1.00
C237   C     0.14524   0.94544   0.52088   0.00000  Uiso   1.00
C238   C     0.15372   0.91015   0.45939   0.00000  Uiso   1.00
C239   C     0.14894   0.82549   0.36806   0.00000  Uiso   1.00
C240   C     0.14538   0.16485   0.57961   0.00000  Uiso   1.00
C241   C     0.07534   0.20223   0.60873   0.00000  Uiso   1.00
C242   C     0.05185   0.28437   0.58741   0.00000  Uiso   1.00
C243   C     0.98813   0.41631   0.57019   0.00000  Uiso   1.00
C244   C     0.26481   0.15506   0.50583   0.00000  Uiso   1.00
C245   C     0.31901   0.13428   0.56478   0.00000  Uiso   1.00
C246   C     0.40381   0.15442   0.57189   0.00000  Uiso   1.00
C247   C     0.44208   0.12987   0.62949   0.00000  Uiso   1.00
C248   C     0.22832   0.06848   0.48320   0.00000  Uiso   1.00
C249   C     0.23686   0.03330   0.42171   0.00000  Uiso   1.00
C250   C     0.19879   0.95336   0.41062   0.00000  Uiso   1.00
C251   C     0.19036   0.20798   0.53093   0.00000  Uiso   1.00
C252   C     0.16697   0.29008   0.50956   0.00000  Uiso   1.00
C253   C     0.09692   0.32758   0.53863   0.00000  Uiso   1.00
H254   H     0.14698   0.04206   0.63337   0.00000  Uiso   1.00
H255   H     0.27735   0.03318   0.70872   0.00000  Uiso   1.00
H256   H     0.11042   0.91208   0.55856   0.00000  Uiso   1.00
H257   H     0.04055   0.16883   0.64640   0.00000  Uiso   1.00
H258   H     0.44174   0.04233   0.77079   0.00000  Uiso   1.00
H259   H     0.08974   0.78700   0.45416   0.00000  Uiso   1.00
H260   H     0.94239   0.32840   0.63938   0.00000  Uiso   1.00
H261   H     0.29984   0.18863   0.46793   0.00000  Uiso   1.00
H262   H     0.43860   0.18780   0.53421   0.00000  Uiso   1.00
H263   H     0.27167   0.06670   0.38405   0.00000  Uiso   1.00
H264   H     0.20180   0.32344   0.47188   0.00000  Uiso   1.00
H265   H     0.57262   0.16781   0.62915   0.00000  Uiso   1.00
H266   H     0.22062   0.91248   0.31252   0.00000  Uiso   1.00
H267   H     0.07327   0.45388   0.49774   0.00000  Uiso   1.00
O268   O     0.59571   0.10185   0.74655   0.00000  Uiso   1.00
O269   O     0.13389   0.76688   0.33114   0.00000  Uiso   1.00
O270   O     0.94057   0.47718   0.57415   0.00000  Uiso   1.00
N271   N     0.45349   0.07199   0.72837   0.00000  Uiso   1.00
N272   N     0.12441   0.83327   0.43234   0.00000  Uiso   1.00
N273   N     0.98663   0.33942   0.60549   0.00000  Uiso   1.00
N274   N     0.52392   0.13952   0.65215   0.00000  Uiso   1.00
N275   N     0.19483   0.90079   0.35612   0.00000  Uiso   1.00
N276   N     0.05706   0.40694   0.52927   0.00000  Uiso   1.00
C277   C     0.68200   0.42435   0.40453   0.00000  Uiso   1.00
C278   C     0.77403   0.40885   0.38653   0.00000  Uiso   1.00
C279   C     0.81218   0.43343   0.32894   0.00000  Uiso   1.00
C280   C     0.89702   0.41334   0.32174   0.00000  Uiso   1.00
C281   C     0.03308   0.39586   0.28639   0.00000  Uiso   1.00
C282   C     0.68334   0.47465   0.46812   0.00000  Uiso   1.00
C283   C     0.64524   0.55456   0.47912   0.00000  Uiso   1.00
C284   C     0.65372   0.58985   0.54061   0.00000  Uiso   1.00
C285   C     0.64894   0.67451   0.63194   0.00000  Uiso   1.00
C286   C     0.64538   0.33515   0.42039   0.00000  Uiso   1.00
C287   C     0.57534   0.29777   0.39127   0.00000  Uiso   1.00
C288   C     0.55185   0.21563   0.41259   0.00000  Uiso   1.00
C289   C     0.48813   0.08369   0.42981   0.00000  Uiso   1.00
C290   C     0.76481   0.34494   0.49417   0.00000  Uiso   1.00
C291   C     0.81901   0.36572   0.43522   0.00000  Uiso   1.00
C292   C     0.90381   0.34558   0.42811   0.00000  Uiso   1.00
C293   C     0.94208   0.37013   0.37051   0.00000  Uiso   1.00
C294   C     0.72832   0.43152   0.51680   0.00000  Uiso   1.00
C295   C     0.73686   0.46670   0.57829   0.00000  Uiso   1.00
C296   C     0.69879   0.54664   0.58938   0.00000  Uiso   1.00
C297   C     0.69036   0.29202   0.46907   0.00000  Uiso   1.00
C298   C     0.66697   0.20992   0.49044   0.00000  Uiso   1.00
C299   C     0.59692   0.17242   0.46137   0.00000  Uiso   1.00
H300   H     0.64698   0.45794   0.36663   0.00000  Uiso   1.00
H301   H     0.77735   0.46682   0.29128   0.00000  Uiso   1.00
H302   H     0.61042   0.58792   0.44144   0.00000  Uiso   1.00
H303   H     0.54055   0.33117   0.35360   0.00000  Uiso   1.00
H304   H     0.94174   0.45767   0.22921   0.00000  Uiso   1.00
H305   H     0.58974   0.71300   0.54584   0.00000  Uiso   1.00
H306   H     0.44239   0.17160   0.36062   0.00000  Uiso   1.00
H307   H     0.79984   0.31137   0.53207   0.00000  Uiso   1.00
H308   H     0.93860   0.31220   0.46579   0.00000  Uiso   1.00
H309   H     0.77167   0.43330   0.61595   0.00000  Uiso   1.00
H310   H     0.70180   0.17656   0.52812   0.00000  Uiso   1.00
H311   H     0.07262   0.33219   0.37085   0.00000  Uiso   1.00
H312   H     0.72062   0.58752   0.68748   0.00000  Uiso   1.00
H313   H     0.57327   0.04612   0.50226   0.00000  Uiso   1.00
O314   O     0.09571   0.39815   0.25345   0.00000  Uiso   1.00
O315   O     0.63389   0.73312   0.66886   0.00000  Uiso   1.00
O316   O     0.44057   0.02282   0.42585   0.00000  Uiso   1.00
N317   N     0.95349   0.42801   0.27163   0.00000  Uiso   1.00
N318   N     0.62441   0.66673   0.56766   0.00000  Uiso   1.00
N319   N     0.48663   0.16058   0.39451   0.00000  Uiso   1.00
N320   N     0.02392   0.36048   0.34785   0.00000  Uiso   1.00
N321   N     0.69483   0.59921   0.64388   0.00000  Uiso   1.00
N322   N     0.55706   0.09306   0.47073   0.00000  Uiso   1.00
C323   C     0.81800   0.57565   0.90453   0.00000  Uiso   1.00
C324   C     0.72597   0.59115   0.88653   0.00000  Uiso   1.00
C325   C     0.68782   0.56657   0.82894   0.00000  Uiso   1.00
C326   C     0.60298   0.58666   0.82174   0.00000  Uiso   1.00
C327   C     0.46692   0.60414   0.78639   0.00000  Uiso   1.00
C328   C     0.81666   0.52535   0.96812   0.00000  Uiso   1.00
C329   C     0.85476   0.44544   0.97912   0.00000  Uiso   1.00
C330   C     0.84628   0.41015   0.04061   0.00000  Uiso   1.00
C331   C     0.85106   0.32549   0.13194   0.00000  Uiso   1.00
C332   C     0.85462   0.66485   0.92039   0.00000  Uiso   1.00
C333   C     0.92466   0.70223   0.89127   0.00000  Uiso   1.00
C334   C     0.94815   0.78437   0.91259   0.00000  Uiso   1.00
C335   C     0.01187   0.91631   0.92981   0.00000  Uiso   1.00
C336   C     0.73519   0.65506   0.99417   0.00000  Uiso   1.00
C337   C     0.68099   0.63428   0.93522   0.00000  Uiso   1.00
C338   C     0.59619   0.65442   0.92811   0.00000  Uiso   1.00
C339   C     0.55792   0.62987   0.87051   0.00000  Uiso   1.00
C340   C     0.77168   0.56848   0.01680   0.00000  Uiso   1.00
C341   C     0.76314   0.53330   0.07829   0.00000  Uiso   1.00
C342   C     0.80121   0.45336   0.08938   0.00000  Uiso   1.00
C343   C     0.80964   0.70798   0.96907   0.00000  Uiso   1.00
C344   C     0.83303   0.79008   0.99044   0.00000  Uiso   1.00
C345   C     0.90308   0.82758   0.96137   0.00000  Uiso   1.00
H346   H     0.85302   0.54206   0.86663   0.00000  Uiso   1.00
H347   H     0.72265   0.53318   0.79128   0.00000  Uiso   1.00
H348   H     0.88958   0.41208   0.94144   0.00000  Uiso   1.00
H349   H     0.95945   0.66883   0.85360   0.00000  Uiso   1.00
H350   H     0.55826   0.54233   0.72921   0.00000  Uiso   1.00
H351   H     0.91026   0.28700   0.04584   0.00000  Uiso   1.00
H352   H     0.05761   0.82840   0.86062   0.00000  Uiso   1.00
H353   H     0.70016   0.68863   0.03207   0.00000  Uiso   1.00
H354   H     0.56140   0.68780   0.96579   0.00000  Uiso   1.00
H355   H     0.72833   0.56670   0.11595   0.00000  Uiso   1.00
H356   H     0.79820   0.82344   0.02812   0.00000  Uiso   1.00
H357   H     0.42738   0.66781   0.87085   0.00000  Uiso   1.00
H358   H     0.77938   0.41248   0.18748   0.00000  Uiso   1.00
H359   H     0.92673   0.95388   0.00226   0.00000  Uiso   1.00
O360   O     0.40429   0.60185   0.75345   0.00000  Uiso   1.00
O361   O     0.86611   0.26688   0.16886   0.00000  Uiso   1.00
O362   O     0.05943   0.97718   0.92585   0.00000  Uiso   1.00
N363   N     0.54651   0.57199   0.77163   0.00000  Uiso   1.00
N364   N     0.87559   0.33327   0.06766   0.00000  Uiso   1.00
N365   N     0.01337   0.83942   0.89451   0.00000  Uiso   1.00
N366   N     0.47608   0.63952   0.84785   0.00000  Uiso   1.00
N367   N     0.80517   0.40079   0.14388   0.00000  Uiso   1.00
N368   N     0.94294   0.90694   0.97073   0.00000  Uiso   1.00
