data_job_05954
_audit_creation_date              2018-12-19
_audit_creation_method            'Materials Studio'
_symmetry_space_group_name_H-M    'P1'
_symmetry_Int_Tables_number       1
_symmetry_cell_setting            triclinic
loop_
_symmetry_equiv_pos_as_xyz
  x,y,z
_cell_length_a                    12.3598
_cell_length_b                    22.1532
_cell_length_c                    22.1988
_cell_angle_alpha                 62.9490
_cell_angle_beta                  102.1648
_cell_angle_gamma                 82.0932
loop_
_atom_site_label
_atom_site_type_symbol
_atom_site_fract_x
_atom_site_fract_y
_atom_site_fract_z
_atom_site_U_iso_or_equiv
_atom_site_adp_type
_atom_site_occupancy
C1     C     0.95785   0.86548   0.59090   0.00000  Uiso   1.00
C2     C     0.94766   0.79339   0.60262   0.00000  Uiso   1.00
C3     C     0.93128   0.77376   0.55095   0.00000  Uiso   1.00
C4     C     0.92415   0.70539   0.57234   0.00000  Uiso   1.00
C5     C     0.90691   0.60061   0.57980   0.00000  Uiso   1.00
C6     C     0.86491   0.89144   0.61569   0.00000  Uiso   1.00
C7     C     0.77898   0.95426   0.57501   0.00000  Uiso   1.00
C8     C     0.70220   0.96842   0.60742   0.00000  Uiso   1.00
C9     C     0.55654   0.01589   0.63519   0.00000  Uiso   1.00
C10    C     0.07224   0.85233   0.64340   0.00000  Uiso   1.00
C11    C     0.16061   0.88228   0.62602   0.00000  Uiso   1.00
C12    C     0.25837   0.86353   0.68176   0.00000  Uiso   1.00
C13    C     0.43462   0.85027   0.75255   0.00000  Uiso   1.00
C14    C     0.97430   0.77897   0.72079   0.00000  Uiso   1.00
C15    C     0.95659   0.74640   0.67317   0.00000  Uiso   1.00
C16    C     0.94949   0.67804   0.69465   0.00000  Uiso   1.00
C17    C     0.93310   0.65831   0.64302   0.00000  Uiso   1.00
C18    C     0.87385   0.84445   0.68624   0.00000  Uiso   1.00
C19    C     0.79718   0.85853   0.71872   0.00000  Uiso   1.00
C20    C     0.71115   0.92135   0.67810   0.00000  Uiso   1.00
C21    C     0.08118   0.80534   0.71395   0.00000  Uiso   1.00
C22    C     0.17881   0.78655   0.76973   0.00000  Uiso   1.00
C23    C     0.26732   0.81645   0.75244   0.00000  Uiso   1.00
H24    H     0.95088   0.90207   0.53598   0.00000  Uiso   1.00
H25    H     0.92436   0.81015   0.49636   0.00000  Uiso   1.00
H26    H     0.77209   0.99061   0.52042   0.00000  Uiso   1.00
H27    H     0.15366   0.91864   0.57142   0.00000  Uiso   1.00
H28    H     0.89885   0.68751   0.48353   0.00000  Uiso   1.00
H29    H     0.57780   0.06805   0.53429   0.00000  Uiso   1.00
H30    H     0.38242   0.91628   0.64183   0.00000  Uiso   1.00
H31    H     0.98126   0.74238   0.77572   0.00000  Uiso   1.00
H32    H     0.95641   0.64168   0.74925   0.00000  Uiso   1.00
H33    H     0.80413   0.82215   0.77332   0.00000  Uiso   1.00
H34    H     0.18570   0.75018   0.82432   0.00000  Uiso   1.00
H35    H     0.92485   0.55078   0.68879   0.00000  Uiso   1.00
H36    H     0.60381   0.93132   0.73954   0.00000  Uiso   1.00
H37    H     0.40843   0.77955   0.84709   0.00000  Uiso   1.00
O38    O     0.89491   0.55580   0.56442   0.00000  Uiso   1.00
O39    O     0.47373   0.05505   0.63101   0.00000  Uiso   1.00
O40    O     0.52937   0.85593   0.77211   0.00000  Uiso   1.00
N41    N     0.90840   0.66915   0.53548   0.00000  Uiso   1.00
N42    N     0.60823   0.02492   0.58292   0.00000  Uiso   1.00
N43    N     0.36047   0.88304   0.68347   0.00000  Uiso   1.00
N44    N     0.92240   0.59558   0.64593   0.00000  Uiso   1.00
N45    N     0.62223   0.95135   0.69337   0.00000  Uiso   1.00
N46    N     0.37447   0.80947   0.79392   0.00000  Uiso   1.00
C47    C     0.83866   0.53581   0.87010   0.00000  Uiso   1.00
C48    C     0.75994   0.59519   0.79772   0.00000  Uiso   1.00
C49    C     0.72818   0.66578   0.77794   0.00000  Uiso   1.00
C50    C     0.65543   0.71190   0.70931   0.00000  Uiso   1.00
C51    C     0.53916   0.80771   0.60410   0.00000  Uiso   1.00
C52    C     0.77016   0.48244   0.89774   0.00000  Uiso   1.00
C53    C     0.74701   0.45822   0.96206   0.00000  Uiso   1.00
C54    C     0.68288   0.40942   0.97763   0.00000  Uiso   1.00
C55    C     0.58255   0.33015   0.02773   0.00000  Uiso   1.00
C56    C     0.93604   0.49990   0.85542   0.00000  Uiso   1.00
C57    C     0.05237   0.49035   0.88417   0.00000  Uiso   1.00
C58    C     0.12791   0.45623   0.86412   0.00000  Uiso   1.00
C59    C     0.28513   0.40406   0.84850   0.00000  Uiso   1.00
C60    C     0.76594   0.49220   0.78338   0.00000  Uiso   1.00
C61    C     0.72044   0.57151   0.75062   0.00000  Uiso   1.00
C62    C     0.64773   0.61753   0.68200   0.00000  Uiso   1.00
C63    C     0.61587   0.68817   0.66212   0.00000  Uiso   1.00
C64    C     0.73066   0.45876   0.85064   0.00000  Uiso   1.00
C65    C     0.66656   0.40998   0.86612   0.00000  Uiso   1.00
C66    C     0.64331   0.38569   0.93045   0.00000  Uiso   1.00
C67    C     0.89655   0.47622   0.80832   0.00000  Uiso   1.00
C68    C     0.97191   0.44211   0.78822   0.00000  Uiso   1.00
C69    C     0.08834   0.43250   0.81693   0.00000  Uiso   1.00
H70    H     0.86941   0.55424   0.90678   0.00000  Uiso   1.00
H71    H     0.75876   0.68408   0.81441   0.00000  Uiso   1.00
H72    H     0.77760   0.47655   0.99851   0.00000  Uiso   1.00
H73    H     0.08291   0.50868   0.92062   0.00000  Uiso   1.00
H74    H     0.61863   0.81759   0.69125   0.00000  Uiso   1.00
H75    H     0.65839   0.37999   0.07943   0.00000  Uiso   1.00
H76    H     0.30219   0.44772   0.91519   0.00000  Uiso   1.00
H77    H     0.73519   0.47376   0.74671   0.00000  Uiso   1.00
H78    H     0.61717   0.59919   0.64556   0.00000  Uiso   1.00
H79    H     0.63601   0.39166   0.82966   0.00000  Uiso   1.00
H80    H     0.94132   0.42378   0.75177   0.00000  Uiso   1.00
H81    H     0.50371   0.74868   0.55420   0.00000  Uiso   1.00
H82    H     0.54347   0.31108   0.94239   0.00000  Uiso   1.00
H83    H     0.18728   0.37882   0.77815   0.00000  Uiso   1.00
O84    O     0.48592   0.86710   0.55908   0.00000  Uiso   1.00
O85    O     0.53811   0.29297   0.06837   0.00000  Uiso   1.00
O86    O     0.38276   0.38184   0.85289   0.00000  Uiso   1.00
N87    N     0.60780   0.78416   0.67287   0.00000  Uiso   1.00
N88    N     0.64495   0.37504   0.03579   0.00000  Uiso   1.00
N89    N     0.24686   0.43835   0.88226   0.00000  Uiso   1.00
N90    N     0.54596   0.74708   0.59913   0.00000  Uiso   1.00
N91    N     0.58312   0.33796   0.96205   0.00000  Uiso   1.00
N92    N     0.18502   0.40127   0.80852   0.00000  Uiso   1.00
C93    C     0.37767   0.59033   0.53857   0.00000  Uiso   1.00
C94    C     0.36018   0.60142   0.59918   0.00000  Uiso   1.00
C95    C     0.39659   0.55028   0.67062   0.00000  Uiso   1.00
C96    C     0.37227   0.57094   0.71780   0.00000  Uiso   1.00
C97    C     0.35398   0.57760   0.81548   0.00000  Uiso   1.00
C98    C     0.25825   0.61345   0.48599   0.00000  Uiso   1.00
C99    C     0.20897   0.57244   0.46226   0.00000  Uiso   1.00
C100   C     0.09884   0.60324   0.41416   0.00000  Uiso   1.00
C101   C     0.92233   0.62860   0.33607   0.00000  Uiso   1.00
C102   C     0.44060   0.64359   0.50090   0.00000  Uiso   1.00
C103   C     0.54462   0.62792   0.48969   0.00000  Uiso   1.00
C104   C     0.58801   0.68409   0.45412   0.00000  Uiso   1.00
C105   C     0.69463   0.75623   0.39918   0.00000  Uiso   1.00
C106   C     0.26973   0.71795   0.49531   0.00000  Uiso   1.00
C107   C     0.30155   0.67073   0.57568   0.00000  Uiso   1.00
C108   C     0.27717   0.69148   0.62276   0.00000  Uiso   1.00
C109   C     0.31354   0.64038   0.69427   0.00000  Uiso   1.00
C110   C     0.19962   0.68277   0.46250   0.00000  Uiso   1.00
C111   C     0.08955   0.71363   0.41441   0.00000  Uiso   1.00
C112   C     0.04010   0.67268   0.39062   0.00000  Uiso   1.00
C113   C     0.38197   0.71290   0.47740   0.00000  Uiso   1.00
C114   C     0.42520   0.76911   0.44184   0.00000  Uiso   1.00
C115   C     0.52927   0.75353   0.43058   0.00000  Uiso   1.00
H116   H     0.42331   0.53637   0.55686   0.00000  Uiso   1.00
H117   H     0.44195   0.49664   0.68878   0.00000  Uiso   1.00
H118   H     0.25436   0.51880   0.48045   0.00000  Uiso   1.00
H119   H     0.58997   0.57427   0.50788   0.00000  Uiso   1.00
H120   H     0.43673   0.48316   0.82468   0.00000  Uiso   1.00
H121   H     0.04120   0.52990   0.38539   0.00000  Uiso   1.00
H122   H     0.74889   0.64686   0.44321   0.00000  Uiso   1.00
H123   H     0.22409   0.77192   0.47702   0.00000  Uiso   1.00
H124   H     0.23180   0.74512   0.60457   0.00000  Uiso   1.00
H125   H     0.04420   0.76728   0.39623   0.00000  Uiso   1.00
H126   H     0.37981   0.82274   0.42366   0.00000  Uiso   1.00
H127   H     0.26615   0.68484   0.75633   0.00000  Uiso   1.00
H128   H     0.87062   0.73157   0.31703   0.00000  Uiso   1.00
H129   H     0.57832   0.84853   0.37486   0.00000  Uiso   1.00
O130   O     0.36007   0.56211   0.87584   0.00000  Uiso   1.00
O131   O     0.84117   0.62343   0.29950   0.00000  Uiso   1.00
O132   O     0.76964   0.77688   0.37537   0.00000  Uiso   1.00
N133   N     0.39555   0.53431   0.79109   0.00000  Uiso   1.00
N134   N     0.02574   0.57800   0.38038   0.00000  Uiso   1.00
N135   N     0.68736   0.68735   0.43443   0.00000  Uiso   1.00
N136   N     0.30376   0.64283   0.75431   0.00000  Uiso   1.00
N137   N     0.93396   0.68651   0.34361   0.00000  Uiso   1.00
N138   N     0.59558   0.79587   0.39765   0.00000  Uiso   1.00
C139   C     0.04215   0.13452   0.40910   0.00000  Uiso   1.00
C140   C     0.05234   0.20661   0.39738   0.00000  Uiso   1.00
C141   C     0.06872   0.22624   0.44905   0.00000  Uiso   1.00
C142   C     0.07586   0.29461   0.42766   0.00000  Uiso   1.00
C143   C     0.09309   0.39939   0.42020   0.00000  Uiso   1.00
C144   C     0.13509   0.10856   0.38431   0.00000  Uiso   1.00
C145   C     0.22102   0.04574   0.42499   0.00000  Uiso   1.00
C146   C     0.29780   0.03158   0.39258   0.00000  Uiso   1.00
C147   C     0.44346   0.98411   0.36481   0.00000  Uiso   1.00
C148   C     0.92777   0.14767   0.35660   0.00000  Uiso   1.00
C149   C     0.83939   0.11772   0.37398   0.00000  Uiso   1.00
C150   C     0.74163   0.13647   0.31824   0.00000  Uiso   1.00
C151   C     0.56538   0.14973   0.24745   0.00000  Uiso   1.00
C152   C     0.02570   0.22103   0.27921   0.00000  Uiso   1.00
C153   C     0.04341   0.25360   0.32683   0.00000  Uiso   1.00
C154   C     0.05051   0.32196   0.30535   0.00000  Uiso   1.00
C155   C     0.06690   0.34169   0.35698   0.00000  Uiso   1.00
C156   C     0.12615   0.15555   0.31376   0.00000  Uiso   1.00
C157   C     0.20282   0.14147   0.28128   0.00000  Uiso   1.00
C158   C     0.28885   0.07865   0.32190   0.00000  Uiso   1.00
C159   C     0.91882   0.19466   0.28605   0.00000  Uiso   1.00
C160   C     0.82119   0.21345   0.23027   0.00000  Uiso   1.00
C161   C     0.73268   0.18355   0.24756   0.00000  Uiso   1.00
H162   H     0.04912   0.09793   0.46402   0.00000  Uiso   1.00
H163   H     0.07564   0.18985   0.50365   0.00000  Uiso   1.00
H164   H     0.22791   0.00939   0.47958   0.00000  Uiso   1.00
H165   H     0.84634   0.08136   0.42858   0.00000  Uiso   1.00
H166   H     0.10115   0.31249   0.51647   0.00000  Uiso   1.00
H167   H     0.42220   0.93195   0.46571   0.00000  Uiso   1.00
H168   H     0.61758   0.08372   0.35817   0.00000  Uiso   1.00
H169   H     0.01874   0.25762   0.22428   0.00000  Uiso   1.00
H170   H     0.04359   0.35832   0.25075   0.00000  Uiso   1.00
H171   H     0.19587   0.17785   0.22669   0.00000  Uiso   1.00
H172   H     0.81430   0.24982   0.17568   0.00000  Uiso   1.00
H173   H     0.07515   0.44922   0.31121   0.00000  Uiso   1.00
H174   H     0.39619   0.06868   0.26046   0.00000  Uiso   1.00
H175   H     0.59157   0.22045   0.15291   0.00000  Uiso   1.00
O176   O     0.10509   0.44420   0.43558   0.00000  Uiso   1.00
O177   O     0.52627   0.94495   0.36899   0.00000  Uiso   1.00
O178   O     0.47063   0.14407   0.22789   0.00000  Uiso   1.00
N179   N     0.09160   0.33085   0.46452   0.00000  Uiso   1.00
N180   N     0.39177   0.97508   0.41708   0.00000  Uiso   1.00
N181   N     0.63953   0.11696   0.31653   0.00000  Uiso   1.00
N182   N     0.07760   0.40442   0.35407   0.00000  Uiso   1.00
N183   N     0.37777   0.04865   0.30663   0.00000  Uiso   1.00
N184   N     0.62553   0.19053   0.20608   0.00000  Uiso   1.00
C185   C     0.16134   0.46419   0.12990   0.00000  Uiso   1.00
C186   C     0.24006   0.40481   0.20228   0.00000  Uiso   1.00
C187   C     0.27182   0.33422   0.22206   0.00000  Uiso   1.00
C188   C     0.34457   0.28810   0.29069   0.00000  Uiso   1.00
C189   C     0.46084   0.19229   0.39590   0.00000  Uiso   1.00
C190   C     0.22984   0.51756   0.10226   0.00000  Uiso   1.00
C191   C     0.25299   0.54178   0.03794   0.00000  Uiso   1.00
C192   C     0.31712   0.59058   0.02237   0.00000  Uiso   1.00
C193   C     0.41745   0.66985   0.97227   0.00000  Uiso   1.00
C194   C     0.06396   0.50010   0.14458   0.00000  Uiso   1.00
C195   C     0.94763   0.50965   0.11583   0.00000  Uiso   1.00
C196   C     0.87209   0.54377   0.13588   0.00000  Uiso   1.00
C197   C     0.71487   0.59594   0.15150   0.00000  Uiso   1.00
C198   C     0.23406   0.50780   0.21662   0.00000  Uiso   1.00
C199   C     0.27956   0.42849   0.24938   0.00000  Uiso   1.00
C200   C     0.35227   0.38247   0.31800   0.00000  Uiso   1.00
C201   C     0.38413   0.31183   0.33788   0.00000  Uiso   1.00
C202   C     0.26934   0.54124   0.14936   0.00000  Uiso   1.00
C203   C     0.33344   0.59002   0.13388   0.00000  Uiso   1.00
C204   C     0.35669   0.61431   0.06955   0.00000  Uiso   1.00
C205   C     0.10345   0.52378   0.19168   0.00000  Uiso   1.00
C206   C     0.02809   0.55789   0.21178   0.00000  Uiso   1.00
C207   C     0.91166   0.56750   0.18307   0.00000  Uiso   1.00
H208   H     0.13059   0.44576   0.09323   0.00000  Uiso   1.00
H209   H     0.24124   0.31592   0.18559   0.00000  Uiso   1.00
H210   H     0.22240   0.52345   0.00150   0.00000  Uiso   1.00
H211   H     0.91709   0.49132   0.07938   0.00000  Uiso   1.00
H212   H     0.38137   0.18241   0.30875   0.00000  Uiso   1.00
H213   H     0.34161   0.62001   0.92057   0.00000  Uiso   1.00
H214   H     0.69781   0.55228   0.08481   0.00000  Uiso   1.00
H215   H     0.26481   0.52624   0.25329   0.00000  Uiso   1.00
H216   H     0.38283   0.40081   0.35444   0.00000  Uiso   1.00
H217   H     0.36399   0.60834   0.17034   0.00000  Uiso   1.00
H218   H     0.05868   0.57622   0.24823   0.00000  Uiso   1.00
H219   H     0.49629   0.25132   0.44580   0.00000  Uiso   1.00
H220   H     0.45653   0.68892   0.05761   0.00000  Uiso   1.00
H221   H     0.81272   0.62118   0.22185   0.00000  Uiso   1.00
O222   O     0.51408   0.13290   0.44092   0.00000  Uiso   1.00
O223   O     0.46189   0.70703   0.93163   0.00000  Uiso   1.00
O224   O     0.61724   0.61816   0.14711   0.00000  Uiso   1.00
N225   N     0.39220   0.21584   0.32713   0.00000  Uiso   1.00
N226   N     0.35505   0.62496   0.96421   0.00000  Uiso   1.00
N227   N     0.75314   0.56165   0.11774   0.00000  Uiso   1.00
N228   N     0.45404   0.25292   0.40087   0.00000  Uiso   1.00
N229   N     0.41688   0.66204   0.03795   0.00000  Uiso   1.00
N230   N     0.81498   0.59873   0.19148   0.00000  Uiso   1.00
C231   C     0.62233   0.40967   0.46143   0.00000  Uiso   1.00
C232   C     0.63982   0.39858   0.40082   0.00000  Uiso   1.00
C233   C     0.60341   0.44972   0.32938   0.00000  Uiso   1.00
C234   C     0.62773   0.42906   0.28220   0.00000  Uiso   1.00
C235   C     0.64602   0.42240   0.18452   0.00000  Uiso   1.00
C236   C     0.74175   0.38655   0.51401   0.00000  Uiso   1.00
C237   C     0.79103   0.42756   0.53774   0.00000  Uiso   1.00
C238   C     0.90116   0.39676   0.58584   0.00000  Uiso   1.00
C239   C     0.07767   0.37140   0.66393   0.00000  Uiso   1.00
C240   C     0.55940   0.35641   0.49910   0.00000  Uiso   1.00
C241   C     0.45538   0.37208   0.51031   0.00000  Uiso   1.00
C242   C     0.41199   0.31591   0.54588   0.00000  Uiso   1.00
C243   C     0.30537   0.24377   0.60082   0.00000  Uiso   1.00
C244   C     0.73027   0.28205   0.50469   0.00000  Uiso   1.00
C245   C     0.69845   0.32927   0.42432   0.00000  Uiso   1.00
C246   C     0.72283   0.30852   0.37724   0.00000  Uiso   1.00
C247   C     0.68646   0.35962   0.30573   0.00000  Uiso   1.00
C248   C     0.80038   0.31723   0.53750   0.00000  Uiso   1.00
C249   C     0.91045   0.28637   0.58559   0.00000  Uiso   1.00
C250   C     0.95990   0.32732   0.60938   0.00000  Uiso   1.00
C251   C     0.61803   0.28710   0.52260   0.00000  Uiso   1.00
C252   C     0.57480   0.23089   0.55816   0.00000  Uiso   1.00
C253   C     0.47073   0.24647   0.56942   0.00000  Uiso   1.00
H254   H     0.57669   0.46363   0.44314   0.00000  Uiso   1.00
H255   H     0.55805   0.50336   0.31122   0.00000  Uiso   1.00
H256   H     0.74564   0.48120   0.51955   0.00000  Uiso   1.00
H257   H     0.41003   0.42573   0.49212   0.00000  Uiso   1.00
H258   H     0.56327   0.51684   0.17532   0.00000  Uiso   1.00
H259   H     0.95880   0.47010   0.61461   0.00000  Uiso   1.00
H260   H     0.25111   0.35314   0.55679   0.00000  Uiso   1.00
H261   H     0.77591   0.22808   0.52298   0.00000  Uiso   1.00
H262   H     0.76820   0.25488   0.39543   0.00000  Uiso   1.00
H263   H     0.95580   0.23272   0.60377   0.00000  Uiso   1.00
H264   H     0.62019   0.17726   0.57634   0.00000  Uiso   1.00
H265   H     0.73385   0.31516   0.24367   0.00000  Uiso   1.00
H266   H     0.12938   0.26843   0.68297   0.00000  Uiso   1.00
H267   H     0.42168   0.15147   0.62514   0.00000  Uiso   1.00
O268   O     0.63993   0.43789   0.12416   0.00000  Uiso   1.00
O269   O     0.15883   0.37657   0.70050   0.00000  Uiso   1.00
O270   O     0.23036   0.22312   0.62463   0.00000  Uiso   1.00
N271   N     0.60446   0.46569   0.20891   0.00000  Uiso   1.00
N272   N     0.97426   0.42200   0.61962   0.00000  Uiso   1.00
N273   N     0.31264   0.31265   0.56557   0.00000  Uiso   1.00
N274   N     0.69624   0.35717   0.24569   0.00000  Uiso   1.00
N275   N     0.06604   0.31349   0.65639   0.00000  Uiso   1.00
N276   N     0.40442   0.20413   0.60235   0.00000  Uiso   1.00
