data_job_01049
_audit_creation_date              2018-12-19
_audit_creation_method            'Materials Studio'
_symmetry_space_group_name_H-M    'P1'
_symmetry_Int_Tables_number       1
_symmetry_cell_setting            triclinic
loop_
_symmetry_equiv_pos_as_xyz
  x,y,z
_cell_length_a                    14.9626
_cell_length_b                    38.0657
_cell_length_c                    9.7899
_cell_angle_alpha                 90.0000
_cell_angle_beta                  88.7329
_cell_angle_gamma                 90.0000
loop_
_atom_site_label
_atom_site_type_symbol
_atom_site_fract_x
_atom_site_fract_y
_atom_site_fract_z
_atom_site_U_iso_or_equiv
_atom_site_adp_type
_atom_site_occupancy
C1     C     0.64965   0.12643   0.22751   0.00000  Uiso   1.00
C2     C     0.68872   0.15208   0.12247   0.00000  Uiso   1.00
C3     C     0.68157   0.14932   0.98179   0.00000  Uiso   1.00
C4     C     0.72197   0.17547   0.90317   0.00000  Uiso   1.00
C5     C     0.77569   0.21103   0.73094   0.00000  Uiso   1.00
C6     C     0.72796   0.11415   0.31243   0.00000  Uiso   1.00
C7     C     0.75378   0.07951   0.33148   0.00000  Uiso   1.00
C8     C     0.82720   0.07373   0.41279   0.00000  Uiso   1.00
C9     C     0.94179   0.05042   0.53555   0.00000  Uiso   1.00
C10    C     0.59019   0.14824   0.32339   0.00000  Uiso   1.00
C11    C     0.50017   0.14226   0.35169   0.00000  Uiso   1.00
C12    C     0.45761   0.16518   0.44225   0.00000  Uiso   1.00
C13    C     0.35829   0.19480   0.58203   0.00000  Uiso   1.00
C14    C     0.73413   0.17776   0.33807   0.00000  Uiso   1.00
C15    C     0.73461   0.17996   0.18253   0.00000  Uiso   1.00
C16    C     0.77503   0.20611   0.10411   0.00000  Uiso   1.00
C17    C     0.76793   0.20340   0.96333   0.00000  Uiso   1.00
C18    C     0.77384   0.14203   0.37248   0.00000  Uiso   1.00
C19    C     0.84724   0.13630   0.45380   0.00000  Uiso   1.00
C20    C     0.87317   0.10166   0.47295   0.00000  Uiso   1.00
C21    C     0.63607   0.17613   0.38344   0.00000  Uiso   1.00
C22    C     0.59364   0.19906   0.47400   0.00000  Uiso   1.00
C23    C     0.50358   0.19311   0.50242   0.00000  Uiso   1.00
H24    H     0.61394   0.10473   0.18076   0.00000  Uiso   1.00
H25    H     0.64606   0.12774   0.93535   0.00000  Uiso   1.00
H26    H     0.71825   0.05794   0.28500   0.00000  Uiso   1.00
H27    H     0.46469   0.12068   0.30519   0.00000  Uiso   1.00
H28    H     0.70194   0.16554   0.68975   0.00000  Uiso   1.00
H29    H     0.85414   0.01837   0.42704   0.00000  Uiso   1.00
H30    H     0.31945   0.15067   0.46963   0.00000  Uiso   1.00
H31    H     0.76986   0.19947   0.38483   0.00000  Uiso   1.00
H32    H     0.81054   0.22769   0.15061   0.00000  Uiso   1.00
H33    H     0.88273   0.15788   0.50026   0.00000  Uiso   1.00
H34    H     0.62917   0.22063   0.52045   0.00000  Uiso   1.00
H35    H     0.83544   0.24666   0.86446   0.00000  Uiso   1.00
H36    H     0.98763   0.09948   0.60176   0.00000  Uiso   1.00
H37    H     0.45295   0.23179   0.64434   0.00000  Uiso   1.00
O38    O     0.79266   0.22295   0.61934   0.00000  Uiso   1.00
O39    O     0.99232   0.02986   0.58666   0.00000  Uiso   1.00
O40    O     0.29083   0.20344   0.64253   0.00000  Uiso   1.00
N41    N     0.72776   0.18077   0.76301   0.00000  Uiso   1.00
N42    N     0.87006   0.04316   0.45232   0.00000  Uiso   1.00
N43    N     0.37018   0.16685   0.49216   0.00000  Uiso   1.00
N44    N     0.79959   0.22442   0.85702   0.00000  Uiso   1.00
N45    N     0.94190   0.08681   0.54633   0.00000  Uiso   1.00
N46    N     0.44202   0.21050   0.58617   0.00000  Uiso   1.00
C47    C     0.37902   0.36027   0.87827   0.00000  Uiso   1.00
C48    C     0.33494   0.33562   0.77709   0.00000  Uiso   1.00
C49    C     0.34328   0.33755   0.63583   0.00000  Uiso   1.00
C50    C     0.29764   0.31255   0.56119   0.00000  Uiso   1.00
C51    C     0.23708   0.27824   0.39429   0.00000  Uiso   1.00
C52    C     0.30332   0.37550   0.96671   0.00000  Uiso   1.00
C53    C     0.28509   0.41096   0.98488   0.00000  Uiso   1.00
C54    C     0.21284   0.41953   0.06987   0.00000  Uiso   1.00
C55    C     0.10323   0.44714   0.19743   0.00000  Uiso   1.00
C56    C     0.43309   0.33691   0.97230   0.00000  Uiso   1.00
C57    C     0.52397   0.33994   0.99522   0.00000  Uiso   1.00
C58    C     0.56098   0.31603   0.08496   0.00000  Uiso   1.00
C59    C     0.65286   0.28373   0.22120   0.00000  Uiso   1.00
C60    C     0.28314   0.31244   0.99691   0.00000  Uiso   1.00
C61    C     0.28286   0.30964   0.84154   0.00000  Uiso   1.00
C62    C     0.23720   0.28463   0.76709   0.00000  Uiso   1.00
C63    C     0.24547   0.28653   0.62574   0.00000  Uiso   1.00
C64    C     0.25124   0.34952   0.03115   0.00000  Uiso   1.00
C65    C     0.17901   0.35805   0.11614   0.00000  Uiso   1.00
C66    C     0.16066   0.39351   0.13443   0.00000  Uiso   1.00
C67    C     0.38101   0.31094   0.03675   0.00000  Uiso   1.00
C68    C     0.41789   0.28703   0.12648   0.00000  Uiso   1.00
C69    C     0.50880   0.29001   0.14952   0.00000  Uiso   1.00
H70    H     0.41956   0.38049   0.82810   0.00000  Uiso   1.00
H71    H     0.38358   0.35766   0.58600   0.00000  Uiso   1.00
H72    H     0.32540   0.43105   0.93501   0.00000  Uiso   1.00
H73    H     0.56425   0.36004   0.94533   0.00000  Uiso   1.00
H74    H     0.32070   0.32089   0.34600   0.00000  Uiso   1.00
H75    H     0.19804   0.47566   0.08194   0.00000  Uiso   1.00
H76    H     0.70170   0.32592   0.10372   0.00000  Uiso   1.00
H77    H     0.24259   0.29222   0.04709   0.00000  Uiso   1.00
H78    H     0.19690   0.26454   0.81699   0.00000  Uiso   1.00
H79    H     0.13872   0.33794   0.16600   0.00000  Uiso   1.00
H80    H     0.37757   0.26693   0.17633   0.00000  Uiso   1.00
H81    H     0.16918   0.24531   0.53348   0.00000  Uiso   1.00
H82    H     0.04653   0.40008   0.26943   0.00000  Uiso   1.00
H83    H     0.55018   0.25034   0.29121   0.00000  Uiso   1.00
O84    O     0.21805   0.26649   0.28442   0.00000  Uiso   1.00
O85    O     0.05715   0.46954   0.24997   0.00000  Uiso   1.00
O86    O     0.71792   0.27309   0.27854   0.00000  Uiso   1.00
N87    N     0.29132   0.30690   0.42170   0.00000  Uiso   1.00
N88    N     0.17664   0.45160   0.10974   0.00000  Uiso   1.00
N89    N     0.64751   0.31161   0.13014   0.00000  Uiso   1.00
N90    N     0.20979   0.26623   0.52258   0.00000  Uiso   1.00
N91    N     0.09511   0.41093   0.21063   0.00000  Uiso   1.00
N92    N     0.56598   0.27094   0.23102   0.00000  Uiso   1.00
C93    C     0.87609   0.37923   0.92333   0.00000  Uiso   1.00
C94    C     0.91485   0.35397   0.02742   0.00000  Uiso   1.00
C95    C     0.90470   0.35658   0.16830   0.00000  Uiso   1.00
C96    C     0.94536   0.33085   0.24593   0.00000  Uiso   1.00
C97    C     0.99812   0.29580   0.41686   0.00000  Uiso   1.00
C98    C     0.95521   0.39238   0.83681   0.00000  Uiso   1.00
C99    C     0.97900   0.42730   0.81742   0.00000  Uiso   1.00
C100   C     0.05363   0.43390   0.73457   0.00000  Uiso   1.00
C101   C     0.16902   0.45849   0.60950   0.00000  Uiso   1.00
C102   C     0.82005   0.35683   0.82856   0.00000  Uiso   1.00
C103   C     0.73020   0.36186   0.80219   0.00000  Uiso   1.00
C104   C     0.69104   0.33853   0.71237   0.00000  Uiso   1.00
C105   C     0.59658   0.30792   0.57449   0.00000  Uiso   1.00
C106   C     0.96632   0.32887   0.81067   0.00000  Uiso   1.00
C107   C     0.96386   0.32662   0.96622   0.00000  Uiso   1.00
C108   C     0.00453   0.30087   0.04365   0.00000  Uiso   1.00
C109   C     0.99445   0.30345   0.18463   0.00000  Uiso   1.00
C110   C     0.00422   0.36503   0.77562   0.00000  Uiso   1.00
C111   C     0.07883   0.37159   0.69277   0.00000  Uiso   1.00
C112   C     0.10273   0.40650   0.67327   0.00000  Uiso   1.00
C113   C     0.86906   0.32948   0.76737   0.00000  Uiso   1.00
C114   C     0.83003   0.30614   0.67756   0.00000  Uiso   1.00
C115   C     0.74014   0.31113   0.65107   0.00000  Uiso   1.00
H116   H     0.83794   0.40053   0.97097   0.00000  Uiso   1.00
H117   H     0.86678   0.37776   0.21562   0.00000  Uiso   1.00
H118   H     0.94105   0.44846   0.86478   0.00000  Uiso   1.00
H119   H     0.69230   0.38303   0.84957   0.00000  Uiso   1.00
H120   H     0.92039   0.34046   0.45988   0.00000  Uiso   1.00
H121   H     0.07699   0.48954   0.72007   0.00000  Uiso   1.00
H122   H     0.55244   0.35156   0.68799   0.00000  Uiso   1.00
H123   H     0.00448   0.30758   0.76302   0.00000  Uiso   1.00
H124   H     0.04246   0.27971   0.99627   0.00000  Uiso   1.00
H125   H     0.11674   0.35041   0.64543   0.00000  Uiso   1.00
H126   H     0.86798   0.28498   0.63022   0.00000  Uiso   1.00
H127   H     0.06298   0.26088   0.28184   0.00000  Uiso   1.00
H128   H     0.21958   0.40996   0.54203   0.00000  Uiso   1.00
H129   H     0.69503   0.27198   0.50996   0.00000  Uiso   1.00
O130   O     0.01369   0.28402   0.52805   0.00000  Uiso   1.00
O131   O     0.21913   0.47961   0.55743   0.00000  Uiso   1.00
O132   O     0.53093   0.29858   0.51535   0.00000  Uiso   1.00
N133   N     0.94872   0.32555   0.38596   0.00000  Uiso   1.00
N134   N     0.09514   0.46493   0.69431   0.00000  Uiso   1.00
N135   N     0.60474   0.33594   0.66429   0.00000  Uiso   1.00
N136   N     0.02545   0.28273   0.29017   0.00000  Uiso   1.00
N137   N     0.17187   0.42211   0.59851   0.00000  Uiso   1.00
N138   N     0.68146   0.29312   0.56849   0.00000  Uiso   1.00
C139   C     0.15893   0.12435   0.28582   0.00000  Uiso   1.00
C140   C     0.11722   0.14821   0.39491   0.00000  Uiso   1.00
C141   C     0.12590   0.14441   0.53497   0.00000  Uiso   1.00
C142   C     0.08256   0.16896   0.61775   0.00000  Uiso   1.00
C143   C     0.02538   0.20183   0.79557   0.00000  Uiso   1.00
C144   C     0.08174   0.11116   0.20056   0.00000  Uiso   1.00
C145   C     0.06061   0.07620   0.17721   0.00000  Uiso   1.00
C146   C     0.98741   0.06957   0.09637   0.00000  Uiso   1.00
C147   C     0.87520   0.04492   0.97238   0.00000  Uiso   1.00
C148   C     0.21452   0.14821   0.19205   0.00000  Uiso   1.00
C149   C     0.30502   0.14440   0.16150   0.00000  Uiso   1.00
C150   C     0.34361   0.16895   0.07346   0.00000  Uiso   1.00
C151   C     0.43755   0.20182   0.93626   0.00000  Uiso   1.00
C152   C     0.06655   0.17473   0.18376   0.00000  Uiso   1.00
C153   C     0.06703   0.17557   0.33947   0.00000  Uiso   1.00
C154   C     0.02368   0.20014   0.42206   0.00000  Uiso   1.00
C155   C     0.03229   0.19637   0.56222   0.00000  Uiso   1.00
C156   C     0.03156   0.13852   0.14513   0.00000  Uiso   1.00
C157   C     0.95839   0.13194   0.06430   0.00000  Uiso   1.00
C158   C     0.93714   0.09698   0.04083   0.00000  Uiso   1.00
C159   C     0.16434   0.17557   0.13661   0.00000  Uiso   1.00
C160   C     0.20279   0.20013   0.04860   0.00000  Uiso   1.00
C161   C     0.29333   0.19636   0.01793   0.00000  Uiso   1.00
H162   H     0.19800   0.10305   0.32897   0.00000  Uiso   1.00
H163   H     0.16473   0.12322   0.57783   0.00000  Uiso   1.00
H164   H     0.09946   0.05504   0.22011   0.00000  Uiso   1.00
H165   H     0.34383   0.12322   0.20442   0.00000  Uiso   1.00
H166   H     0.10569   0.15765   0.82929   0.00000  Uiso   1.00
H167   H     0.96807   0.01387   0.07498   0.00000  Uiso   1.00
H168   H     0.48338   0.15765   0.04188   0.00000  Uiso   1.00
H169   H     0.02747   0.19603   0.14060   0.00000  Uiso   1.00
H170   H     0.98485   0.22131   0.37913   0.00000  Uiso   1.00
H171   H     0.91957   0.15312   0.02141   0.00000  Uiso   1.00
H172   H     0.16394   0.22131   0.00572   0.00000  Uiso   1.00
H173   H     0.95968   0.23726   0.66802   0.00000  Uiso   1.00
H174   H     0.82207   0.09348   0.91370   0.00000  Uiso   1.00
H175   H     0.33737   0.23726   0.88061   0.00000  Uiso   1.00
O176   O     0.00770   0.21240   0.90897   0.00000  Uiso   1.00
O177   O     0.82717   0.02377   0.91932   0.00000  Uiso   1.00
O178   O     0.50323   0.21240   0.87591   0.00000  Uiso   1.00
N179   N     0.07719   0.17292   0.75860   0.00000  Uiso   1.00
N180   N     0.94852   0.03850   0.05338   0.00000  Uiso   1.00
N181   N     0.43028   0.17291   0.02241   0.00000  Uiso   1.00
N182   N     0.99863   0.21576   0.67182   0.00000  Uiso   1.00
N183   N     0.86996   0.08134   0.96661   0.00000  Uiso   1.00
N184   N     0.35172   0.21575   0.93563   0.00000  Uiso   1.00
C185   C     0.64965   0.87357   0.72751   0.00000  Uiso   1.00
C186   C     0.68872   0.84792   0.62247   0.00000  Uiso   1.00
C187   C     0.68157   0.85068   0.48179   0.00000  Uiso   1.00
C188   C     0.72197   0.82453   0.40317   0.00000  Uiso   1.00
C189   C     0.77569   0.78897   0.23094   0.00000  Uiso   1.00
C190   C     0.72796   0.88585   0.81243   0.00000  Uiso   1.00
C191   C     0.75378   0.92049   0.83148   0.00000  Uiso   1.00
C192   C     0.82720   0.92627   0.91279   0.00000  Uiso   1.00
C193   C     0.94179   0.94958   0.03555   0.00000  Uiso   1.00
C194   C     0.59019   0.85176   0.82339   0.00000  Uiso   1.00
C195   C     0.50017   0.85774   0.85169   0.00000  Uiso   1.00
C196   C     0.45761   0.83482   0.94225   0.00000  Uiso   1.00
C197   C     0.35829   0.80520   0.08203   0.00000  Uiso   1.00
C198   C     0.73413   0.82224   0.83807   0.00000  Uiso   1.00
C199   C     0.73461   0.82004   0.68253   0.00000  Uiso   1.00
C200   C     0.77503   0.79389   0.60411   0.00000  Uiso   1.00
C201   C     0.76793   0.79660   0.46333   0.00000  Uiso   1.00
C202   C     0.77384   0.85797   0.87248   0.00000  Uiso   1.00
C203   C     0.84724   0.86370   0.95380   0.00000  Uiso   1.00
C204   C     0.87317   0.89834   0.97295   0.00000  Uiso   1.00
C205   C     0.63607   0.82387   0.88344   0.00000  Uiso   1.00
C206   C     0.59364   0.80094   0.97400   0.00000  Uiso   1.00
C207   C     0.50358   0.80689   0.00242   0.00000  Uiso   1.00
H208   H     0.61394   0.89527   0.68076   0.00000  Uiso   1.00
H209   H     0.64606   0.87226   0.43535   0.00000  Uiso   1.00
H210   H     0.71825   0.94206   0.78500   0.00000  Uiso   1.00
H211   H     0.46469   0.87932   0.80519   0.00000  Uiso   1.00
H212   H     0.70194   0.83446   0.18975   0.00000  Uiso   1.00
H213   H     0.85414   0.98163   0.92704   0.00000  Uiso   1.00
H214   H     0.31945   0.84933   0.96963   0.00000  Uiso   1.00
H215   H     0.76986   0.80053   0.88483   0.00000  Uiso   1.00
H216   H     0.81054   0.77231   0.65061   0.00000  Uiso   1.00
H217   H     0.88273   0.84212   0.00026   0.00000  Uiso   1.00
H218   H     0.62917   0.77937   0.02045   0.00000  Uiso   1.00
H219   H     0.83544   0.75334   0.36446   0.00000  Uiso   1.00
H220   H     0.98763   0.90052   0.10176   0.00000  Uiso   1.00
H221   H     0.45295   0.76821   0.14434   0.00000  Uiso   1.00
O222   O     0.79266   0.77705   0.11934   0.00000  Uiso   1.00
O223   O     0.99232   0.97014   0.08666   0.00000  Uiso   1.00
O224   O     0.29083   0.79656   0.14253   0.00000  Uiso   1.00
N225   N     0.72776   0.81923   0.26301   0.00000  Uiso   1.00
N226   N     0.87006   0.95684   0.95232   0.00000  Uiso   1.00
N227   N     0.37018   0.83315   0.99216   0.00000  Uiso   1.00
N228   N     0.79959   0.77558   0.35702   0.00000  Uiso   1.00
N229   N     0.94190   0.91319   0.04633   0.00000  Uiso   1.00
N230   N     0.44202   0.78950   0.08617   0.00000  Uiso   1.00
C231   C     0.37902   0.63973   0.37827   0.00000  Uiso   1.00
C232   C     0.33494   0.66438   0.27709   0.00000  Uiso   1.00
C233   C     0.34328   0.66245   0.13583   0.00000  Uiso   1.00
C234   C     0.29764   0.68745   0.06119   0.00000  Uiso   1.00
C235   C     0.23708   0.72176   0.89429   0.00000  Uiso   1.00
C236   C     0.30332   0.62450   0.46671   0.00000  Uiso   1.00
C237   C     0.28509   0.58904   0.48488   0.00000  Uiso   1.00
C238   C     0.21284   0.58047   0.56987   0.00000  Uiso   1.00
C239   C     0.10323   0.55286   0.69743   0.00000  Uiso   1.00
C240   C     0.43309   0.66309   0.47230   0.00000  Uiso   1.00
C241   C     0.52397   0.66006   0.49522   0.00000  Uiso   1.00
C242   C     0.56098   0.68397   0.58496   0.00000  Uiso   1.00
C243   C     0.65286   0.71627   0.72120   0.00000  Uiso   1.00
C244   C     0.28314   0.68756   0.49691   0.00000  Uiso   1.00
C245   C     0.28286   0.69036   0.34154   0.00000  Uiso   1.00
C246   C     0.23720   0.71537   0.26709   0.00000  Uiso   1.00
C247   C     0.24547   0.71347   0.12574   0.00000  Uiso   1.00
C248   C     0.25124   0.65048   0.53115   0.00000  Uiso   1.00
C249   C     0.17901   0.64195   0.61614   0.00000  Uiso   1.00
C250   C     0.16066   0.60649   0.63443   0.00000  Uiso   1.00
C251   C     0.38101   0.68906   0.53675   0.00000  Uiso   1.00
C252   C     0.41789   0.71297   0.62648   0.00000  Uiso   1.00
C253   C     0.50880   0.70999   0.64952   0.00000  Uiso   1.00
H254   H     0.41956   0.61951   0.32810   0.00000  Uiso   1.00
H255   H     0.38358   0.64234   0.08600   0.00000  Uiso   1.00
H256   H     0.32540   0.56895   0.43501   0.00000  Uiso   1.00
H257   H     0.56425   0.63996   0.44533   0.00000  Uiso   1.00
H258   H     0.32070   0.67911   0.84600   0.00000  Uiso   1.00
H259   H     0.19804   0.52434   0.58194   0.00000  Uiso   1.00
H260   H     0.70170   0.67408   0.60372   0.00000  Uiso   1.00
H261   H     0.24259   0.70778   0.54709   0.00000  Uiso   1.00
H262   H     0.19690   0.73546   0.31699   0.00000  Uiso   1.00
H263   H     0.13872   0.66206   0.66600   0.00000  Uiso   1.00
H264   H     0.37757   0.73307   0.67633   0.00000  Uiso   1.00
H265   H     0.16918   0.75469   0.03348   0.00000  Uiso   1.00
H266   H     0.04653   0.59992   0.76943   0.00000  Uiso   1.00
H267   H     0.55018   0.74966   0.79121   0.00000  Uiso   1.00
O268   O     0.21805   0.73351   0.78442   0.00000  Uiso   1.00
O269   O     0.05715   0.53046   0.74997   0.00000  Uiso   1.00
O270   O     0.71792   0.72691   0.77854   0.00000  Uiso   1.00
N271   N     0.29132   0.69310   0.92170   0.00000  Uiso   1.00
N272   N     0.17664   0.54840   0.60974   0.00000  Uiso   1.00
N273   N     0.64751   0.68839   0.63014   0.00000  Uiso   1.00
N274   N     0.20979   0.73377   0.02258   0.00000  Uiso   1.00
N275   N     0.09511   0.58907   0.71063   0.00000  Uiso   1.00
N276   N     0.56598   0.72906   0.73102   0.00000  Uiso   1.00
C277   C     0.87609   0.62077   0.42333   0.00000  Uiso   1.00
C278   C     0.91485   0.64603   0.52742   0.00000  Uiso   1.00
C279   C     0.90470   0.64342   0.66830   0.00000  Uiso   1.00
C280   C     0.94536   0.66915   0.74593   0.00000  Uiso   1.00
C281   C     0.99812   0.70420   0.91686   0.00000  Uiso   1.00
C282   C     0.95521   0.60762   0.33681   0.00000  Uiso   1.00
C283   C     0.97900   0.57270   0.31742   0.00000  Uiso   1.00
C284   C     0.05363   0.56610   0.23457   0.00000  Uiso   1.00
C285   C     0.16902   0.54151   0.10950   0.00000  Uiso   1.00
C286   C     0.82005   0.64317   0.32856   0.00000  Uiso   1.00
C287   C     0.73020   0.63814   0.30219   0.00000  Uiso   1.00
C288   C     0.69104   0.66147   0.21237   0.00000  Uiso   1.00
C289   C     0.59658   0.69208   0.07449   0.00000  Uiso   1.00
C290   C     0.96632   0.67113   0.31067   0.00000  Uiso   1.00
C291   C     0.96386   0.67338   0.46622   0.00000  Uiso   1.00
C292   C     0.00453   0.69913   0.54365   0.00000  Uiso   1.00
C293   C     0.99445   0.69655   0.68463   0.00000  Uiso   1.00
C294   C     0.00422   0.63497   0.27562   0.00000  Uiso   1.00
C295   C     0.07883   0.62841   0.19277   0.00000  Uiso   1.00
C296   C     0.10273   0.59350   0.17327   0.00000  Uiso   1.00
C297   C     0.86906   0.67052   0.26737   0.00000  Uiso   1.00
C298   C     0.83003   0.69386   0.17756   0.00000  Uiso   1.00
C299   C     0.74014   0.68887   0.15107   0.00000  Uiso   1.00
H300   H     0.83794   0.59947   0.47097   0.00000  Uiso   1.00
H301   H     0.86678   0.62224   0.71562   0.00000  Uiso   1.00
H302   H     0.94105   0.55154   0.36478   0.00000  Uiso   1.00
H303   H     0.69230   0.61697   0.34957   0.00000  Uiso   1.00
H304   H     0.92039   0.65954   0.95988   0.00000  Uiso   1.00
H305   H     0.07699   0.51046   0.22007   0.00000  Uiso   1.00
H306   H     0.55244   0.64844   0.18799   0.00000  Uiso   1.00
H307   H     0.00448   0.69242   0.26302   0.00000  Uiso   1.00
H308   H     0.04246   0.72029   0.49627   0.00000  Uiso   1.00
H309   H     0.11674   0.64959   0.14543   0.00000  Uiso   1.00
H310   H     0.86798   0.71502   0.13022   0.00000  Uiso   1.00
H311   H     0.06298   0.73912   0.78184   0.00000  Uiso   1.00
H312   H     0.21958   0.59004   0.04203   0.00000  Uiso   1.00
H313   H     0.69503   0.72802   0.00996   0.00000  Uiso   1.00
O314   O     0.01369   0.71598   0.02805   0.00000  Uiso   1.00
O315   O     0.21913   0.52039   0.05743   0.00000  Uiso   1.00
O316   O     0.53093   0.70142   0.01535   0.00000  Uiso   1.00
N317   N     0.94872   0.67445   0.88596   0.00000  Uiso   1.00
N318   N     0.09514   0.53507   0.19431   0.00000  Uiso   1.00
N319   N     0.60474   0.66406   0.16429   0.00000  Uiso   1.00
N320   N     0.02545   0.71727   0.79017   0.00000  Uiso   1.00
N321   N     0.17187   0.57789   0.09851   0.00000  Uiso   1.00
N322   N     0.68146   0.70688   0.06849   0.00000  Uiso   1.00
C323   C     0.15893   0.87565   0.78582   0.00000  Uiso   1.00
C324   C     0.11722   0.85179   0.89491   0.00000  Uiso   1.00
C325   C     0.12590   0.85559   0.03497   0.00000  Uiso   1.00
C326   C     0.08256   0.83104   0.11775   0.00000  Uiso   1.00
C327   C     0.02538   0.79817   0.29557   0.00000  Uiso   1.00
C328   C     0.08174   0.88884   0.70056   0.00000  Uiso   1.00
C329   C     0.06061   0.92380   0.67721   0.00000  Uiso   1.00
C330   C     0.98741   0.93043   0.59637   0.00000  Uiso   1.00
C331   C     0.87520   0.95508   0.47238   0.00000  Uiso   1.00
C332   C     0.21452   0.85179   0.69205   0.00000  Uiso   1.00
C333   C     0.30502   0.85560   0.66150   0.00000  Uiso   1.00
C334   C     0.34361   0.83105   0.57346   0.00000  Uiso   1.00
C335   C     0.43755   0.79818   0.43626   0.00000  Uiso   1.00
C336   C     0.06655   0.82527   0.68376   0.00000  Uiso   1.00
C337   C     0.06703   0.82443   0.83947   0.00000  Uiso   1.00
C338   C     0.02368   0.79986   0.92206   0.00000  Uiso   1.00
C339   C     0.03229   0.80363   0.06222   0.00000  Uiso   1.00
C340   C     0.03156   0.86148   0.64513   0.00000  Uiso   1.00
C341   C     0.95839   0.86806   0.56430   0.00000  Uiso   1.00
C342   C     0.93714   0.90302   0.54083   0.00000  Uiso   1.00
C343   C     0.16434   0.82443   0.63661   0.00000  Uiso   1.00
C344   C     0.20279   0.79987   0.54860   0.00000  Uiso   1.00
C345   C     0.29333   0.80364   0.51793   0.00000  Uiso   1.00
H346   H     0.19800   0.89695   0.82897   0.00000  Uiso   1.00
H347   H     0.16473   0.87678   0.07783   0.00000  Uiso   1.00
H348   H     0.09946   0.94496   0.72011   0.00000  Uiso   1.00
H349   H     0.34383   0.87678   0.70442   0.00000  Uiso   1.00
H350   H     0.10569   0.84235   0.32929   0.00000  Uiso   1.00
H351   H     0.96807   0.98613   0.57498   0.00000  Uiso   1.00
H352   H     0.48338   0.84235   0.54188   0.00000  Uiso   1.00
H353   H     0.02747   0.80397   0.64060   0.00000  Uiso   1.00
H354   H     0.98485   0.77869   0.87913   0.00000  Uiso   1.00
H355   H     0.91957   0.84688   0.52141   0.00000  Uiso   1.00
H356   H     0.16394   0.77869   0.50572   0.00000  Uiso   1.00
H357   H     0.95968   0.76274   0.16802   0.00000  Uiso   1.00
H358   H     0.82207   0.90652   0.41370   0.00000  Uiso   1.00
H359   H     0.33737   0.76274   0.38061   0.00000  Uiso   1.00
O360   O     0.00770   0.78760   0.40897   0.00000  Uiso   1.00
O361   O     0.82717   0.97623   0.41932   0.00000  Uiso   1.00
O362   O     0.50323   0.78760   0.37591   0.00000  Uiso   1.00
N363   N     0.07719   0.82708   0.25860   0.00000  Uiso   1.00
N364   N     0.94852   0.96150   0.55338   0.00000  Uiso   1.00
N365   N     0.43028   0.82709   0.52241   0.00000  Uiso   1.00
N366   N     0.99863   0.78424   0.17182   0.00000  Uiso   1.00
N367   N     0.86996   0.91866   0.46661   0.00000  Uiso   1.00
N368   N     0.35172   0.78425   0.43563   0.00000  Uiso   1.00
