data_job_05266
_audit_creation_date              2018-12-19
_audit_creation_method            'Materials Studio'
_symmetry_space_group_name_H-M    'P1'
_symmetry_Int_Tables_number       1
_symmetry_cell_setting            triclinic
loop_
_symmetry_equiv_pos_as_xyz
  x,y,z
_cell_length_a                    7.2035
_cell_length_b                    47.3456
_cell_length_c                    24.9320
_cell_angle_alpha                 90.0000
_cell_angle_beta                  106.8103
_cell_angle_gamma                 90.0000
loop_
_atom_site_label
_atom_site_type_symbol
_atom_site_fract_x
_atom_site_fract_y
_atom_site_fract_z
_atom_site_U_iso_or_equiv
_atom_site_adp_type
_atom_site_occupancy
C1     C     0.82025   0.39171   0.74998   0.00000  Uiso   1.00
C2     C     0.85113   0.40655   0.69895   0.00000  Uiso   1.00
C3     C     0.70755   0.41906   0.65602   0.00000  Uiso   1.00
C4     C     0.76533   0.43154   0.61305   0.00000  Uiso   1.00
C5     C     0.78369   0.45457   0.53379   0.00000  Uiso   1.00
C6     C     0.90171   0.36198   0.74998   0.00000  Uiso   1.00
C7     C     0.80064   0.33703   0.74998   0.00000  Uiso   1.00
C8     C     0.90101   0.31199   0.74998   0.00000  Uiso   1.00
C9     C     0.99793   0.26583   0.75000   0.00000  Uiso   1.00
C10    C     0.95321   0.40654   0.80103   0.00000  Uiso   1.00
C11    C     0.89546   0.41905   0.84395   0.00000  Uiso   1.00
C12    C     0.03920   0.43152   0.88694   0.00000  Uiso   1.00
C13    C     0.21608   0.45455   0.96621   0.00000  Uiso   1.00
C14    C     0.17821   0.39163   0.75001   0.00000  Uiso   1.00
C15    C     0.04556   0.40650   0.69897   0.00000  Uiso   1.00
C16    C     0.10358   0.41896   0.65606   0.00000  Uiso   1.00
C17    C     0.96010   0.43149   0.61307   0.00000  Uiso   1.00
C18    C     0.09613   0.36194   0.75000   0.00000  Uiso   1.00
C19    C     0.19668   0.33693   0.75001   0.00000  Uiso   1.00
C20    C     0.09579   0.31194   0.75000   0.00000  Uiso   1.00
C21    C     0.14764   0.40650   0.80105   0.00000  Uiso   1.00
C22    C     0.29149   0.41895   0.84398   0.00000  Uiso   1.00
C23    C     0.23398   0.43148   0.88696   0.00000  Uiso   1.00
H24    H     0.66888   0.39175   0.74997   0.00000  Uiso   1.00
H25    H     0.55709   0.41909   0.65602   0.00000  Uiso   1.00
H26    H     0.65019   0.33707   0.74997   0.00000  Uiso   1.00
H27    H     0.74499   0.41908   0.84392   0.00000  Uiso   1.00
H28    H     0.51889   0.44937   0.55185   0.00000  Uiso   1.00
H29    H     0.71520   0.27643   0.74997   0.00000  Uiso   1.00
H30    H     0.91510   0.44936   0.94809   0.00000  Uiso   1.00
H31    H     0.32958   0.39159   0.75003   0.00000  Uiso   1.00
H32    H     0.25405   0.41892   0.65608   0.00000  Uiso   1.00
H33    H     0.34714   0.33690   0.75003   0.00000  Uiso   1.00
H34    H     0.44194   0.41891   0.84398   0.00000  Uiso   1.00
H35    H     0.08456   0.44923   0.55191   0.00000  Uiso   1.00
H36    H     0.28087   0.27629   0.75003   0.00000  Uiso   1.00
H37    H     0.48078   0.44923   0.94814   0.00000  Uiso   1.00
O38    O     0.74011   0.46728   0.49007   0.00000  Uiso   1.00
O39    O     0.99767   0.24039   0.75000   0.00000  Uiso   1.00
O40    O     0.25993   0.46727   0.00993   0.00000  Uiso   1.00
N41    N     0.66239   0.44559   0.56477   0.00000  Uiso   1.00
N42    N     0.84592   0.28390   0.74998   0.00000  Uiso   1.00
N43    N     0.03282   0.44558   0.93522   0.00000  Uiso   1.00
N44    N     0.96678   0.44552   0.56479   0.00000  Uiso   1.00
N45    N     0.15031   0.28383   0.75001   0.00000  Uiso   1.00
N46    N     0.33721   0.44550   0.93525   0.00000  Uiso   1.00
C47    C     0.32025   0.89171   0.74998   0.00000  Uiso   1.00
C48    C     0.35113   0.90655   0.69895   0.00000  Uiso   1.00
C49    C     0.20755   0.91906   0.65602   0.00000  Uiso   1.00
C50    C     0.26533   0.93154   0.61305   0.00000  Uiso   1.00
C51    C     0.28369   0.95457   0.53379   0.00000  Uiso   1.00
C52    C     0.40171   0.86198   0.74998   0.00000  Uiso   1.00
C53    C     0.30064   0.83703   0.74998   0.00000  Uiso   1.00
C54    C     0.40101   0.81199   0.74998   0.00000  Uiso   1.00
C55    C     0.49793   0.76583   0.75000   0.00000  Uiso   1.00
C56    C     0.45321   0.90654   0.80103   0.00000  Uiso   1.00
C57    C     0.39546   0.91905   0.84395   0.00000  Uiso   1.00
C58    C     0.53920   0.93152   0.88694   0.00000  Uiso   1.00
C59    C     0.71608   0.95455   0.96621   0.00000  Uiso   1.00
C60    C     0.67821   0.89163   0.75001   0.00000  Uiso   1.00
C61    C     0.54556   0.90650   0.69897   0.00000  Uiso   1.00
C62    C     0.60358   0.91896   0.65606   0.00000  Uiso   1.00
C63    C     0.46010   0.93149   0.61307   0.00000  Uiso   1.00
C64    C     0.59613   0.86194   0.75000   0.00000  Uiso   1.00
C65    C     0.69668   0.83693   0.75001   0.00000  Uiso   1.00
C66    C     0.59579   0.81194   0.75000   0.00000  Uiso   1.00
C67    C     0.64764   0.90650   0.80105   0.00000  Uiso   1.00
C68    C     0.79149   0.91895   0.84398   0.00000  Uiso   1.00
C69    C     0.73398   0.93148   0.88696   0.00000  Uiso   1.00
H70    H     0.16888   0.89175   0.74997   0.00000  Uiso   1.00
H71    H     0.05709   0.91909   0.65602   0.00000  Uiso   1.00
H72    H     0.15019   0.83707   0.74997   0.00000  Uiso   1.00
H73    H     0.24499   0.91908   0.84392   0.00000  Uiso   1.00
H74    H     0.01889   0.94937   0.55185   0.00000  Uiso   1.00
H75    H     0.21520   0.77643   0.74997   0.00000  Uiso   1.00
H76    H     0.41510   0.94936   0.94809   0.00000  Uiso   1.00
H77    H     0.82958   0.89159   0.75003   0.00000  Uiso   1.00
H78    H     0.75405   0.91892   0.65608   0.00000  Uiso   1.00
H79    H     0.84714   0.83690   0.75003   0.00000  Uiso   1.00
H80    H     0.94194   0.91891   0.84398   0.00000  Uiso   1.00
H81    H     0.58456   0.94923   0.55191   0.00000  Uiso   1.00
H82    H     0.78087   0.77629   0.75003   0.00000  Uiso   1.00
H83    H     0.98078   0.94923   0.94814   0.00000  Uiso   1.00
O84    O     0.24011   0.96728   0.49007   0.00000  Uiso   1.00
O85    O     0.49767   0.74039   0.75000   0.00000  Uiso   1.00
O86    O     0.75993   0.96727   0.00993   0.00000  Uiso   1.00
N87    N     0.16239   0.94559   0.56477   0.00000  Uiso   1.00
N88    N     0.34592   0.78390   0.74998   0.00000  Uiso   1.00
N89    N     0.53282   0.94558   0.93522   0.00000  Uiso   1.00
N90    N     0.46678   0.94552   0.56479   0.00000  Uiso   1.00
N91    N     0.65031   0.78383   0.75001   0.00000  Uiso   1.00
N92    N     0.83721   0.94550   0.93525   0.00000  Uiso   1.00
C93    C     0.17975   0.39171   0.25002   0.00000  Uiso   1.00
C94    C     0.14887   0.40655   0.30105   0.00000  Uiso   1.00
C95    C     0.29245   0.41906   0.34398   0.00000  Uiso   1.00
C96    C     0.23467   0.43154   0.38695   0.00000  Uiso   1.00
C97    C     0.21631   0.45457   0.46621   0.00000  Uiso   1.00
C98    C     0.09829   0.36198   0.25002   0.00000  Uiso   1.00
C99    C     0.19936   0.33703   0.25002   0.00000  Uiso   1.00
C100   C     0.09899   0.31199   0.25002   0.00000  Uiso   1.00
C101   C     0.00207   0.26583   0.25000   0.00000  Uiso   1.00
C102   C     0.04679   0.40654   0.19897   0.00000  Uiso   1.00
C103   C     0.10454   0.41905   0.15605   0.00000  Uiso   1.00
C104   C     0.96080   0.43152   0.11306   0.00000  Uiso   1.00
C105   C     0.78392   0.45455   0.03379   0.00000  Uiso   1.00
C106   C     0.82179   0.39163   0.24999   0.00000  Uiso   1.00
C107   C     0.95444   0.40650   0.30103   0.00000  Uiso   1.00
C108   C     0.89642   0.41896   0.34394   0.00000  Uiso   1.00
C109   C     0.03990   0.43149   0.38693   0.00000  Uiso   1.00
C110   C     0.90387   0.36194   0.25000   0.00000  Uiso   1.00
C111   C     0.80332   0.33693   0.24999   0.00000  Uiso   1.00
C112   C     0.90421   0.31194   0.25000   0.00000  Uiso   1.00
C113   C     0.85236   0.40650   0.19895   0.00000  Uiso   1.00
C114   C     0.70851   0.41895   0.15602   0.00000  Uiso   1.00
C115   C     0.76602   0.43148   0.11304   0.00000  Uiso   1.00
H116   H     0.33112   0.39175   0.25003   0.00000  Uiso   1.00
H117   H     0.44291   0.41909   0.34398   0.00000  Uiso   1.00
H118   H     0.34981   0.33707   0.25003   0.00000  Uiso   1.00
H119   H     0.25501   0.41908   0.15608   0.00000  Uiso   1.00
H120   H     0.48111   0.44937   0.44815   0.00000  Uiso   1.00
H121   H     0.28480   0.27643   0.25003   0.00000  Uiso   1.00
H122   H     0.08490   0.44936   0.05191   0.00000  Uiso   1.00
H123   H     0.67042   0.39159   0.24997   0.00000  Uiso   1.00
H124   H     0.74595   0.41892   0.34392   0.00000  Uiso   1.00
H125   H     0.65286   0.33690   0.24997   0.00000  Uiso   1.00
H126   H     0.55806   0.41891   0.15602   0.00000  Uiso   1.00
H127   H     0.91544   0.44923   0.44809   0.00000  Uiso   1.00
H128   H     0.71913   0.27629   0.24997   0.00000  Uiso   1.00
H129   H     0.51922   0.44923   0.05186   0.00000  Uiso   1.00
O130   O     0.25989   0.46728   0.50993   0.00000  Uiso   1.00
O131   O     0.00233   0.24039   0.25000   0.00000  Uiso   1.00
O132   O     0.74007   0.46727   0.99007   0.00000  Uiso   1.00
N133   N     0.33761   0.44559   0.43523   0.00000  Uiso   1.00
N134   N     0.15408   0.28390   0.25002   0.00000  Uiso   1.00
N135   N     0.96718   0.44558   0.06478   0.00000  Uiso   1.00
N136   N     0.03322   0.44552   0.43521   0.00000  Uiso   1.00
N137   N     0.84969   0.28383   0.24999   0.00000  Uiso   1.00
N138   N     0.66279   0.44550   0.06475   0.00000  Uiso   1.00
C139   C     0.67975   0.89171   0.25002   0.00000  Uiso   1.00
C140   C     0.64887   0.90655   0.30105   0.00000  Uiso   1.00
C141   C     0.79245   0.91906   0.34398   0.00000  Uiso   1.00
C142   C     0.73467   0.93154   0.38695   0.00000  Uiso   1.00
C143   C     0.71631   0.95457   0.46621   0.00000  Uiso   1.00
C144   C     0.59829   0.86198   0.25002   0.00000  Uiso   1.00
C145   C     0.69936   0.83703   0.25002   0.00000  Uiso   1.00
C146   C     0.59899   0.81199   0.25002   0.00000  Uiso   1.00
C147   C     0.50207   0.76583   0.25000   0.00000  Uiso   1.00
C148   C     0.54679   0.90654   0.19897   0.00000  Uiso   1.00
C149   C     0.60454   0.91905   0.15605   0.00000  Uiso   1.00
C150   C     0.46080   0.93152   0.11306   0.00000  Uiso   1.00
C151   C     0.28392   0.95455   0.03379   0.00000  Uiso   1.00
C152   C     0.32179   0.89163   0.24999   0.00000  Uiso   1.00
C153   C     0.45444   0.90650   0.30103   0.00000  Uiso   1.00
C154   C     0.39642   0.91896   0.34394   0.00000  Uiso   1.00
C155   C     0.53990   0.93149   0.38693   0.00000  Uiso   1.00
C156   C     0.40387   0.86194   0.25000   0.00000  Uiso   1.00
C157   C     0.30332   0.83693   0.24999   0.00000  Uiso   1.00
C158   C     0.40421   0.81194   0.25000   0.00000  Uiso   1.00
C159   C     0.35236   0.90650   0.19895   0.00000  Uiso   1.00
C160   C     0.20851   0.91895   0.15602   0.00000  Uiso   1.00
C161   C     0.26602   0.93148   0.11304   0.00000  Uiso   1.00
H162   H     0.83112   0.89175   0.25003   0.00000  Uiso   1.00
H163   H     0.94291   0.91909   0.34398   0.00000  Uiso   1.00
H164   H     0.84981   0.83707   0.25003   0.00000  Uiso   1.00
H165   H     0.75501   0.91908   0.15608   0.00000  Uiso   1.00
H166   H     0.98111   0.94937   0.44815   0.00000  Uiso   1.00
H167   H     0.78480   0.77643   0.25003   0.00000  Uiso   1.00
H168   H     0.58490   0.94936   0.05191   0.00000  Uiso   1.00
H169   H     0.17042   0.89159   0.24997   0.00000  Uiso   1.00
H170   H     0.24595   0.91892   0.34392   0.00000  Uiso   1.00
H171   H     0.15286   0.83690   0.24997   0.00000  Uiso   1.00
H172   H     0.05806   0.91891   0.15602   0.00000  Uiso   1.00
H173   H     0.41544   0.94923   0.44809   0.00000  Uiso   1.00
H174   H     0.21913   0.77629   0.24997   0.00000  Uiso   1.00
H175   H     0.01922   0.94923   0.05186   0.00000  Uiso   1.00
O176   O     0.75989   0.96728   0.50993   0.00000  Uiso   1.00
O177   O     0.50233   0.74039   0.25000   0.00000  Uiso   1.00
O178   O     0.24007   0.96727   0.99007   0.00000  Uiso   1.00
N179   N     0.83761   0.94559   0.43523   0.00000  Uiso   1.00
N180   N     0.65408   0.78390   0.25002   0.00000  Uiso   1.00
N181   N     0.46718   0.94558   0.06478   0.00000  Uiso   1.00
N182   N     0.53322   0.94552   0.43521   0.00000  Uiso   1.00
N183   N     0.34969   0.78383   0.24999   0.00000  Uiso   1.00
N184   N     0.16279   0.94550   0.06475   0.00000  Uiso   1.00
C185   C     0.17975   0.60829   0.25002   0.00000  Uiso   1.00
C186   C     0.14887   0.59345   0.30105   0.00000  Uiso   1.00
C187   C     0.29245   0.58094   0.34398   0.00000  Uiso   1.00
C188   C     0.23467   0.56846   0.38695   0.00000  Uiso   1.00
C189   C     0.21631   0.54543   0.46621   0.00000  Uiso   1.00
C190   C     0.09829   0.63802   0.25002   0.00000  Uiso   1.00
C191   C     0.19936   0.66297   0.25002   0.00000  Uiso   1.00
C192   C     0.09899   0.68801   0.25002   0.00000  Uiso   1.00
C193   C     0.00207   0.73417   0.25000   0.00000  Uiso   1.00
C194   C     0.04679   0.59346   0.19897   0.00000  Uiso   1.00
C195   C     0.10454   0.58095   0.15605   0.00000  Uiso   1.00
C196   C     0.96080   0.56848   0.11306   0.00000  Uiso   1.00
C197   C     0.78392   0.54545   0.03379   0.00000  Uiso   1.00
C198   C     0.82179   0.60837   0.24999   0.00000  Uiso   1.00
C199   C     0.95444   0.59350   0.30103   0.00000  Uiso   1.00
C200   C     0.89642   0.58104   0.34394   0.00000  Uiso   1.00
C201   C     0.03990   0.56851   0.38693   0.00000  Uiso   1.00
C202   C     0.90387   0.63806   0.25000   0.00000  Uiso   1.00
C203   C     0.80332   0.66307   0.24999   0.00000  Uiso   1.00
C204   C     0.90421   0.68806   0.25000   0.00000  Uiso   1.00
C205   C     0.85236   0.59350   0.19895   0.00000  Uiso   1.00
C206   C     0.70851   0.58105   0.15602   0.00000  Uiso   1.00
C207   C     0.76602   0.56852   0.11304   0.00000  Uiso   1.00
H208   H     0.33112   0.60825   0.25003   0.00000  Uiso   1.00
H209   H     0.44291   0.58091   0.34398   0.00000  Uiso   1.00
H210   H     0.34981   0.66293   0.25003   0.00000  Uiso   1.00
H211   H     0.25501   0.58092   0.15608   0.00000  Uiso   1.00
H212   H     0.48111   0.55063   0.44815   0.00000  Uiso   1.00
H213   H     0.28480   0.72357   0.25003   0.00000  Uiso   1.00
H214   H     0.08490   0.55064   0.05191   0.00000  Uiso   1.00
H215   H     0.67042   0.60841   0.24997   0.00000  Uiso   1.00
H216   H     0.74595   0.58108   0.34392   0.00000  Uiso   1.00
H217   H     0.65286   0.66310   0.24997   0.00000  Uiso   1.00
H218   H     0.55806   0.58109   0.15602   0.00000  Uiso   1.00
H219   H     0.91544   0.55077   0.44809   0.00000  Uiso   1.00
H220   H     0.71913   0.72371   0.24997   0.00000  Uiso   1.00
H221   H     0.51922   0.55077   0.05186   0.00000  Uiso   1.00
O222   O     0.25989   0.53272   0.50993   0.00000  Uiso   1.00
O223   O     0.00233   0.75961   0.25000   0.00000  Uiso   1.00
O224   O     0.74007   0.53273   0.99007   0.00000  Uiso   1.00
N225   N     0.33761   0.55441   0.43523   0.00000  Uiso   1.00
N226   N     0.15408   0.71610   0.25002   0.00000  Uiso   1.00
N227   N     0.96718   0.55442   0.06478   0.00000  Uiso   1.00
N228   N     0.03322   0.55448   0.43521   0.00000  Uiso   1.00
N229   N     0.84969   0.71617   0.24999   0.00000  Uiso   1.00
N230   N     0.66279   0.55450   0.06475   0.00000  Uiso   1.00
C231   C     0.67975   0.10829   0.25002   0.00000  Uiso   1.00
C232   C     0.64887   0.09345   0.30105   0.00000  Uiso   1.00
C233   C     0.79245   0.08094   0.34398   0.00000  Uiso   1.00
C234   C     0.73467   0.06846   0.38695   0.00000  Uiso   1.00
C235   C     0.71631   0.04543   0.46621   0.00000  Uiso   1.00
C236   C     0.59829   0.13802   0.25002   0.00000  Uiso   1.00
C237   C     0.69936   0.16297   0.25002   0.00000  Uiso   1.00
C238   C     0.59899   0.18801   0.25002   0.00000  Uiso   1.00
C239   C     0.50207   0.23417   0.25000   0.00000  Uiso   1.00
C240   C     0.54679   0.09346   0.19897   0.00000  Uiso   1.00
C241   C     0.60454   0.08095   0.15605   0.00000  Uiso   1.00
C242   C     0.46080   0.06848   0.11306   0.00000  Uiso   1.00
C243   C     0.28392   0.04545   0.03379   0.00000  Uiso   1.00
C244   C     0.32179   0.10837   0.24999   0.00000  Uiso   1.00
C245   C     0.45444   0.09350   0.30103   0.00000  Uiso   1.00
C246   C     0.39642   0.08104   0.34394   0.00000  Uiso   1.00
C247   C     0.53990   0.06851   0.38693   0.00000  Uiso   1.00
C248   C     0.40387   0.13806   0.25000   0.00000  Uiso   1.00
C249   C     0.30332   0.16307   0.24999   0.00000  Uiso   1.00
C250   C     0.40421   0.18806   0.25000   0.00000  Uiso   1.00
C251   C     0.35236   0.09350   0.19895   0.00000  Uiso   1.00
C252   C     0.20851   0.08105   0.15602   0.00000  Uiso   1.00
C253   C     0.26602   0.06852   0.11304   0.00000  Uiso   1.00
H254   H     0.83112   0.10825   0.25003   0.00000  Uiso   1.00
H255   H     0.94291   0.08091   0.34398   0.00000  Uiso   1.00
H256   H     0.84981   0.16293   0.25003   0.00000  Uiso   1.00
H257   H     0.75501   0.08092   0.15608   0.00000  Uiso   1.00
H258   H     0.98111   0.05063   0.44815   0.00000  Uiso   1.00
H259   H     0.78480   0.22357   0.25003   0.00000  Uiso   1.00
H260   H     0.58490   0.05064   0.05191   0.00000  Uiso   1.00
H261   H     0.17042   0.10841   0.24997   0.00000  Uiso   1.00
H262   H     0.24595   0.08108   0.34392   0.00000  Uiso   1.00
H263   H     0.15286   0.16310   0.24997   0.00000  Uiso   1.00
H264   H     0.05806   0.08109   0.15602   0.00000  Uiso   1.00
H265   H     0.41544   0.05077   0.44809   0.00000  Uiso   1.00
H266   H     0.21913   0.22371   0.24997   0.00000  Uiso   1.00
H267   H     0.01922   0.05077   0.05186   0.00000  Uiso   1.00
O268   O     0.75989   0.03272   0.50993   0.00000  Uiso   1.00
O269   O     0.50233   0.25961   0.25000   0.00000  Uiso   1.00
O270   O     0.24007   0.03273   0.99007   0.00000  Uiso   1.00
N271   N     0.83761   0.05441   0.43523   0.00000  Uiso   1.00
N272   N     0.65408   0.21610   0.25002   0.00000  Uiso   1.00
N273   N     0.46718   0.05442   0.06478   0.00000  Uiso   1.00
N274   N     0.53322   0.05448   0.43521   0.00000  Uiso   1.00
N275   N     0.34969   0.21617   0.24999   0.00000  Uiso   1.00
N276   N     0.16279   0.05450   0.06475   0.00000  Uiso   1.00
C277   C     0.82025   0.60829   0.74998   0.00000  Uiso   1.00
C278   C     0.85113   0.59345   0.69895   0.00000  Uiso   1.00
C279   C     0.70755   0.58094   0.65602   0.00000  Uiso   1.00
C280   C     0.76533   0.56846   0.61305   0.00000  Uiso   1.00
C281   C     0.78369   0.54543   0.53379   0.00000  Uiso   1.00
C282   C     0.90171   0.63802   0.74998   0.00000  Uiso   1.00
C283   C     0.80064   0.66297   0.74998   0.00000  Uiso   1.00
C284   C     0.90101   0.68801   0.74998   0.00000  Uiso   1.00
C285   C     0.99793   0.73417   0.75000   0.00000  Uiso   1.00
C286   C     0.95321   0.59346   0.80103   0.00000  Uiso   1.00
C287   C     0.89546   0.58095   0.84395   0.00000  Uiso   1.00
C288   C     0.03920   0.56848   0.88694   0.00000  Uiso   1.00
C289   C     0.21608   0.54545   0.96621   0.00000  Uiso   1.00
C290   C     0.17821   0.60837   0.75001   0.00000  Uiso   1.00
C291   C     0.04556   0.59350   0.69897   0.00000  Uiso   1.00
C292   C     0.10358   0.58104   0.65606   0.00000  Uiso   1.00
C293   C     0.96010   0.56851   0.61307   0.00000  Uiso   1.00
C294   C     0.09613   0.63806   0.75000   0.00000  Uiso   1.00
C295   C     0.19668   0.66307   0.75001   0.00000  Uiso   1.00
C296   C     0.09579   0.68806   0.75000   0.00000  Uiso   1.00
C297   C     0.14764   0.59350   0.80105   0.00000  Uiso   1.00
C298   C     0.29149   0.58105   0.84398   0.00000  Uiso   1.00
C299   C     0.23398   0.56852   0.88696   0.00000  Uiso   1.00
H300   H     0.66888   0.60825   0.74997   0.00000  Uiso   1.00
H301   H     0.55709   0.58091   0.65602   0.00000  Uiso   1.00
H302   H     0.65019   0.66293   0.74997   0.00000  Uiso   1.00
H303   H     0.74499   0.58092   0.84392   0.00000  Uiso   1.00
H304   H     0.51889   0.55063   0.55185   0.00000  Uiso   1.00
H305   H     0.71520   0.72357   0.74997   0.00000  Uiso   1.00
H306   H     0.91510   0.55064   0.94809   0.00000  Uiso   1.00
H307   H     0.32958   0.60841   0.75003   0.00000  Uiso   1.00
H308   H     0.25405   0.58108   0.65608   0.00000  Uiso   1.00
H309   H     0.34714   0.66310   0.75003   0.00000  Uiso   1.00
H310   H     0.44194   0.58109   0.84398   0.00000  Uiso   1.00
H311   H     0.08456   0.55077   0.55191   0.00000  Uiso   1.00
H312   H     0.28087   0.72371   0.75003   0.00000  Uiso   1.00
H313   H     0.48078   0.55077   0.94814   0.00000  Uiso   1.00
O314   O     0.74011   0.53272   0.49007   0.00000  Uiso   1.00
O315   O     0.99767   0.75961   0.75000   0.00000  Uiso   1.00
O316   O     0.25993   0.53273   0.00993   0.00000  Uiso   1.00
N317   N     0.66239   0.55441   0.56477   0.00000  Uiso   1.00
N318   N     0.84592   0.71610   0.74998   0.00000  Uiso   1.00
N319   N     0.03282   0.55442   0.93522   0.00000  Uiso   1.00
N320   N     0.96678   0.55448   0.56479   0.00000  Uiso   1.00
N321   N     0.15031   0.71617   0.75001   0.00000  Uiso   1.00
N322   N     0.33721   0.55450   0.93525   0.00000  Uiso   1.00
C323   C     0.32025   0.10829   0.74998   0.00000  Uiso   1.00
C324   C     0.35113   0.09345   0.69895   0.00000  Uiso   1.00
C325   C     0.20755   0.08094   0.65602   0.00000  Uiso   1.00
C326   C     0.26533   0.06846   0.61305   0.00000  Uiso   1.00
C327   C     0.28369   0.04543   0.53379   0.00000  Uiso   1.00
C328   C     0.40171   0.13802   0.74998   0.00000  Uiso   1.00
C329   C     0.30064   0.16297   0.74998   0.00000  Uiso   1.00
C330   C     0.40101   0.18801   0.74998   0.00000  Uiso   1.00
C331   C     0.49793   0.23417   0.75000   0.00000  Uiso   1.00
C332   C     0.45321   0.09346   0.80103   0.00000  Uiso   1.00
C333   C     0.39546   0.08095   0.84395   0.00000  Uiso   1.00
C334   C     0.53920   0.06848   0.88694   0.00000  Uiso   1.00
C335   C     0.71608   0.04545   0.96621   0.00000  Uiso   1.00
C336   C     0.67821   0.10837   0.75001   0.00000  Uiso   1.00
C337   C     0.54556   0.09350   0.69897   0.00000  Uiso   1.00
C338   C     0.60358   0.08104   0.65606   0.00000  Uiso   1.00
C339   C     0.46010   0.06851   0.61307   0.00000  Uiso   1.00
C340   C     0.59613   0.13806   0.75000   0.00000  Uiso   1.00
C341   C     0.69668   0.16307   0.75001   0.00000  Uiso   1.00
C342   C     0.59579   0.18806   0.75000   0.00000  Uiso   1.00
C343   C     0.64764   0.09350   0.80105   0.00000  Uiso   1.00
C344   C     0.79149   0.08105   0.84398   0.00000  Uiso   1.00
C345   C     0.73398   0.06852   0.88696   0.00000  Uiso   1.00
H346   H     0.16888   0.10825   0.74997   0.00000  Uiso   1.00
H347   H     0.05709   0.08091   0.65602   0.00000  Uiso   1.00
H348   H     0.15019   0.16293   0.74997   0.00000  Uiso   1.00
H349   H     0.24499   0.08092   0.84392   0.00000  Uiso   1.00
H350   H     0.01889   0.05063   0.55185   0.00000  Uiso   1.00
H351   H     0.21520   0.22357   0.74997   0.00000  Uiso   1.00
H352   H     0.41510   0.05064   0.94809   0.00000  Uiso   1.00
H353   H     0.82958   0.10841   0.75003   0.00000  Uiso   1.00
H354   H     0.75405   0.08108   0.65608   0.00000  Uiso   1.00
H355   H     0.84714   0.16310   0.75003   0.00000  Uiso   1.00
H356   H     0.94194   0.08109   0.84398   0.00000  Uiso   1.00
H357   H     0.58456   0.05077   0.55191   0.00000  Uiso   1.00
H358   H     0.78087   0.22371   0.75003   0.00000  Uiso   1.00
H359   H     0.98078   0.05077   0.94814   0.00000  Uiso   1.00
O360   O     0.24011   0.03272   0.49007   0.00000  Uiso   1.00
O361   O     0.49767   0.25961   0.75000   0.00000  Uiso   1.00
O362   O     0.75993   0.03273   0.00993   0.00000  Uiso   1.00
N363   N     0.16239   0.05441   0.56477   0.00000  Uiso   1.00
N364   N     0.34592   0.21610   0.74998   0.00000  Uiso   1.00
N365   N     0.53282   0.05442   0.93522   0.00000  Uiso   1.00
N366   N     0.46678   0.05448   0.56479   0.00000  Uiso   1.00
N367   N     0.65031   0.21617   0.75001   0.00000  Uiso   1.00
N368   N     0.83721   0.05450   0.93525   0.00000  Uiso   1.00
