data_job_00218
_audit_creation_date              2018-12-19
_audit_creation_method            'Materials Studio'
_symmetry_space_group_name_H-M    'P1'
_symmetry_Int_Tables_number       1
_symmetry_cell_setting            triclinic
loop_
_symmetry_equiv_pos_as_xyz
  x,y,z
_cell_length_a                    44.6428
_cell_length_b                    7.4081
_cell_length_c                    25.9812
_cell_angle_alpha                 90.0000
_cell_angle_beta                  149.3285
_cell_angle_gamma                 90.0000
loop_
_atom_site_label
_atom_site_type_symbol
_atom_site_fract_x
_atom_site_fract_y
_atom_site_fract_z
_atom_site_U_iso_or_equiv
_atom_site_adp_type
_atom_site_occupancy
C1     C     0.06756   0.57265   0.96332   0.00000  Uiso   1.00
C2     C     0.12045   0.61081   0.00718   0.00000  Uiso   1.00
C3     C     0.14509   0.49125   0.00861   0.00000  Uiso   1.00
C4     C     0.19335   0.55179   0.05220   0.00000  Uiso   1.00
C5     C     0.27203   0.58456   0.11416   0.00000  Uiso   1.00
C6     C     0.08805   0.60630   0.04865   0.00000  Uiso   1.00
C7     C     0.08544   0.48295   0.08494   0.00000  Uiso   1.00
C8     C     0.10642   0.53971   0.16343   0.00000  Uiso   1.00
C9     C     0.13476   0.56552   0.28973   0.00000  Uiso   1.00
C10    C     0.02287   0.72022   0.88544   0.00000  Uiso   1.00
C11    C     0.96545   0.69266   0.78450   0.00000  Uiso   1.00
C12    C     0.93155   0.84534   0.72558   0.00000  Uiso   1.00
C13    C     0.85869   0.04802   0.59847   0.00000  Uiso   1.00
C14    C     0.10943   0.89279   0.03819   0.00000  Uiso   1.00
C15    C     0.14320   0.78470   0.04785   0.00000  Uiso   1.00
C16    C     0.19142   0.84544   0.09144   0.00000  Uiso   1.00
C17    C     0.21613   0.72599   0.09293   0.00000  Uiso   1.00
C18    C     0.11080   0.78018   0.08932   0.00000  Uiso   1.00
C19    C     0.13177   0.83714   0.16777   0.00000  Uiso   1.00
C20    C     0.12920   0.71391   0.20417   0.00000  Uiso   1.00
C21    C     0.04562   0.89411   0.92611   0.00000  Uiso   1.00
C22    C     0.01179   0.04685   0.86734   0.00000  Uiso   1.00
C23    C     0.95433   0.01953   0.76632   0.00000  Uiso   1.00
H24    H     0.04985   0.43727   0.93166   0.00000  Uiso   1.00
H25    H     0.12748   0.35668   0.97714   0.00000  Uiso   1.00
H26    H     0.06783   0.34840   0.05345   0.00000  Uiso   1.00
H27    H     0.94787   0.55808   0.75306   0.00000  Uiso   1.00
H28    H     0.22359   0.34400   0.04552   0.00000  Uiso   1.00
H29    H     0.09781   0.32655   0.20640   0.00000  Uiso   1.00
H30    H     0.84483   0.76870   0.57297   0.00000  Uiso   1.00
H31    H     0.12714   0.02817   0.06985   0.00000  Uiso   1.00
H32    H     0.20901   0.98001   0.12291   0.00000  Uiso   1.00
H33    H     0.14937   0.97172   0.19922   0.00000  Uiso   1.00
H34    H     0.02940   0.18139   0.89883   0.00000  Uiso   1.00
H35    H     0.28977   0.84991   0.16384   0.00000  Uiso   1.00
H36    H     0.16398   0.83246   0.32472   0.00000  Uiso   1.00
H37    H     0.91101   0.27460   0.69129   0.00000  Uiso   1.00
O38    O     0.30916   0.55459   0.13712   0.00000  Uiso   1.00
O39    O     0.14412   0.53171   0.34817   0.00000  Uiso   1.00
O40    O     0.81223   0.11179   0.51713   0.00000  Uiso   1.00
N41    N     0.22792   0.46969   0.06607   0.00000  Uiso   1.00
N42    N     0.11033   0.45337   0.21649   0.00000  Uiso   1.00
N43    N     0.87382   0.86673   0.62429   0.00000  Uiso   1.00
N44    N     0.26353   0.74191   0.12973   0.00000  Uiso   1.00
N45    N     0.14594   0.72559   0.28016   0.00000  Uiso   1.00
N46    N     0.90943   0.13896   0.68796   0.00000  Uiso   1.00
C47    C     0.56756   0.07265   0.96332   0.00000  Uiso   1.00
C48    C     0.62045   0.11081   0.00718   0.00000  Uiso   1.00
C49    C     0.64509   0.99125   0.00861   0.00000  Uiso   1.00
C50    C     0.69335   0.05179   0.05220   0.00000  Uiso   1.00
C51    C     0.77203   0.08456   0.11416   0.00000  Uiso   1.00
C52    C     0.58805   0.10630   0.04865   0.00000  Uiso   1.00
C53    C     0.58544   0.98295   0.08494   0.00000  Uiso   1.00
C54    C     0.60642   0.03971   0.16343   0.00000  Uiso   1.00
C55    C     0.63476   0.06552   0.28973   0.00000  Uiso   1.00
C56    C     0.52287   0.22022   0.88544   0.00000  Uiso   1.00
C57    C     0.46545   0.19266   0.78450   0.00000  Uiso   1.00
C58    C     0.43155   0.34534   0.72558   0.00000  Uiso   1.00
C59    C     0.35869   0.54802   0.59847   0.00000  Uiso   1.00
C60    C     0.60943   0.39279   0.03819   0.00000  Uiso   1.00
C61    C     0.64320   0.28470   0.04785   0.00000  Uiso   1.00
C62    C     0.69142   0.34544   0.09144   0.00000  Uiso   1.00
C63    C     0.71613   0.22599   0.09293   0.00000  Uiso   1.00
C64    C     0.61080   0.28018   0.08932   0.00000  Uiso   1.00
C65    C     0.63177   0.33714   0.16777   0.00000  Uiso   1.00
C66    C     0.62920   0.21391   0.20417   0.00000  Uiso   1.00
C67    C     0.54562   0.39411   0.92611   0.00000  Uiso   1.00
C68    C     0.51179   0.54685   0.86734   0.00000  Uiso   1.00
C69    C     0.45433   0.51953   0.76632   0.00000  Uiso   1.00
H70    H     0.54985   0.93727   0.93166   0.00000  Uiso   1.00
H71    H     0.62748   0.85668   0.97714   0.00000  Uiso   1.00
H72    H     0.56783   0.84840   0.05345   0.00000  Uiso   1.00
H73    H     0.44787   0.05808   0.75306   0.00000  Uiso   1.00
H74    H     0.72359   0.84400   0.04552   0.00000  Uiso   1.00
H75    H     0.59781   0.82655   0.20640   0.00000  Uiso   1.00
H76    H     0.34483   0.26870   0.57297   0.00000  Uiso   1.00
H77    H     0.62714   0.52817   0.06985   0.00000  Uiso   1.00
H78    H     0.70901   0.48001   0.12291   0.00000  Uiso   1.00
H79    H     0.64937   0.47172   0.19922   0.00000  Uiso   1.00
H80    H     0.52940   0.68139   0.89883   0.00000  Uiso   1.00
H81    H     0.78977   0.34991   0.16384   0.00000  Uiso   1.00
H82    H     0.66398   0.33246   0.32472   0.00000  Uiso   1.00
H83    H     0.41101   0.77460   0.69129   0.00000  Uiso   1.00
O84    O     0.80916   0.05459   0.13712   0.00000  Uiso   1.00
O85    O     0.64412   0.03171   0.34817   0.00000  Uiso   1.00
O86    O     0.31223   0.61179   0.51713   0.00000  Uiso   1.00
N87    N     0.72792   0.96969   0.06607   0.00000  Uiso   1.00
N88    N     0.61033   0.95337   0.21649   0.00000  Uiso   1.00
N89    N     0.37382   0.36673   0.62429   0.00000  Uiso   1.00
N90    N     0.76353   0.24191   0.12973   0.00000  Uiso   1.00
N91    N     0.64594   0.22559   0.28016   0.00000  Uiso   1.00
N92    N     0.40943   0.63896   0.68796   0.00000  Uiso   1.00
C93    C     0.93244   0.57265   0.53668   0.00000  Uiso   1.00
C94    C     0.87955   0.61081   0.49282   0.00000  Uiso   1.00
C95    C     0.85491   0.49125   0.49139   0.00000  Uiso   1.00
C96    C     0.80665   0.55179   0.44780   0.00000  Uiso   1.00
C97    C     0.72797   0.58456   0.38584   0.00000  Uiso   1.00
C98    C     0.91195   0.60630   0.45135   0.00000  Uiso   1.00
C99    C     0.91456   0.48295   0.41506   0.00000  Uiso   1.00
C100   C     0.89358   0.53971   0.33657   0.00000  Uiso   1.00
C101   C     0.86524   0.56552   0.21027   0.00000  Uiso   1.00
C102   C     0.97713   0.72022   0.61456   0.00000  Uiso   1.00
C103   C     0.03455   0.69266   0.71550   0.00000  Uiso   1.00
C104   C     0.06845   0.84534   0.77442   0.00000  Uiso   1.00
C105   C     0.14131   0.04802   0.90153   0.00000  Uiso   1.00
C106   C     0.89057   0.89279   0.46181   0.00000  Uiso   1.00
C107   C     0.85680   0.78470   0.45215   0.00000  Uiso   1.00
C108   C     0.80858   0.84544   0.40856   0.00000  Uiso   1.00
C109   C     0.78387   0.72599   0.40707   0.00000  Uiso   1.00
C110   C     0.88920   0.78018   0.41068   0.00000  Uiso   1.00
C111   C     0.86823   0.83714   0.33223   0.00000  Uiso   1.00
C112   C     0.87080   0.71391   0.29583   0.00000  Uiso   1.00
C113   C     0.95438   0.89411   0.57389   0.00000  Uiso   1.00
C114   C     0.98821   0.04685   0.63266   0.00000  Uiso   1.00
C115   C     0.04567   0.01953   0.73368   0.00000  Uiso   1.00
H116   H     0.95015   0.43727   0.56834   0.00000  Uiso   1.00
H117   H     0.87252   0.35668   0.52286   0.00000  Uiso   1.00
H118   H     0.93217   0.34840   0.44655   0.00000  Uiso   1.00
H119   H     0.05213   0.55808   0.74694   0.00000  Uiso   1.00
H120   H     0.77641   0.34400   0.45448   0.00000  Uiso   1.00
H121   H     0.90219   0.32655   0.29360   0.00000  Uiso   1.00
H122   H     0.15517   0.76870   0.92703   0.00000  Uiso   1.00
H123   H     0.87286   0.02817   0.43015   0.00000  Uiso   1.00
H124   H     0.79099   0.98001   0.37709   0.00000  Uiso   1.00
H125   H     0.85063   0.97172   0.30078   0.00000  Uiso   1.00
H126   H     0.97060   0.18139   0.60117   0.00000  Uiso   1.00
H127   H     0.71023   0.84991   0.33616   0.00000  Uiso   1.00
H128   H     0.83602   0.83246   0.17528   0.00000  Uiso   1.00
H129   H     0.08899   0.27460   0.80871   0.00000  Uiso   1.00
O130   O     0.69084   0.55459   0.36288   0.00000  Uiso   1.00
O131   O     0.85588   0.53171   0.15183   0.00000  Uiso   1.00
O132   O     0.18777   0.11179   0.98287   0.00000  Uiso   1.00
N133   N     0.77208   0.46969   0.43393   0.00000  Uiso   1.00
N134   N     0.88967   0.45337   0.28351   0.00000  Uiso   1.00
N135   N     0.12618   0.86673   0.87571   0.00000  Uiso   1.00
N136   N     0.73647   0.74191   0.37027   0.00000  Uiso   1.00
N137   N     0.85406   0.72559   0.21984   0.00000  Uiso   1.00
N138   N     0.09057   0.13896   0.81204   0.00000  Uiso   1.00
C139   C     0.43244   0.07265   0.53668   0.00000  Uiso   1.00
C140   C     0.37955   0.11081   0.49282   0.00000  Uiso   1.00
C141   C     0.35491   0.99125   0.49139   0.00000  Uiso   1.00
C142   C     0.30665   0.05179   0.44780   0.00000  Uiso   1.00
C143   C     0.22797   0.08456   0.38584   0.00000  Uiso   1.00
C144   C     0.41195   0.10630   0.45135   0.00000  Uiso   1.00
C145   C     0.41456   0.98295   0.41506   0.00000  Uiso   1.00
C146   C     0.39358   0.03971   0.33657   0.00000  Uiso   1.00
C147   C     0.36524   0.06552   0.21027   0.00000  Uiso   1.00
C148   C     0.47713   0.22022   0.61456   0.00000  Uiso   1.00
C149   C     0.53455   0.19266   0.71550   0.00000  Uiso   1.00
C150   C     0.56845   0.34534   0.77442   0.00000  Uiso   1.00
C151   C     0.64131   0.54802   0.90153   0.00000  Uiso   1.00
C152   C     0.39057   0.39279   0.46181   0.00000  Uiso   1.00
C153   C     0.35680   0.28470   0.45215   0.00000  Uiso   1.00
C154   C     0.30858   0.34544   0.40856   0.00000  Uiso   1.00
C155   C     0.28387   0.22599   0.40707   0.00000  Uiso   1.00
C156   C     0.38920   0.28018   0.41068   0.00000  Uiso   1.00
C157   C     0.36823   0.33714   0.33223   0.00000  Uiso   1.00
C158   C     0.37080   0.21391   0.29583   0.00000  Uiso   1.00
C159   C     0.45438   0.39411   0.57389   0.00000  Uiso   1.00
C160   C     0.48821   0.54685   0.63266   0.00000  Uiso   1.00
C161   C     0.54567   0.51953   0.73368   0.00000  Uiso   1.00
H162   H     0.45015   0.93727   0.56834   0.00000  Uiso   1.00
H163   H     0.37252   0.85668   0.52286   0.00000  Uiso   1.00
H164   H     0.43217   0.84840   0.44655   0.00000  Uiso   1.00
H165   H     0.55213   0.05808   0.74694   0.00000  Uiso   1.00
H166   H     0.27641   0.84400   0.45448   0.00000  Uiso   1.00
H167   H     0.40219   0.82655   0.29360   0.00000  Uiso   1.00
H168   H     0.65517   0.26870   0.92703   0.00000  Uiso   1.00
H169   H     0.37286   0.52817   0.43015   0.00000  Uiso   1.00
H170   H     0.29099   0.48001   0.37709   0.00000  Uiso   1.00
H171   H     0.35063   0.47172   0.30078   0.00000  Uiso   1.00
H172   H     0.47060   0.68139   0.60117   0.00000  Uiso   1.00
H173   H     0.21023   0.34991   0.33616   0.00000  Uiso   1.00
H174   H     0.33602   0.33246   0.17528   0.00000  Uiso   1.00
H175   H     0.58899   0.77460   0.80871   0.00000  Uiso   1.00
O176   O     0.19084   0.05459   0.36288   0.00000  Uiso   1.00
O177   O     0.35588   0.03171   0.15183   0.00000  Uiso   1.00
O178   O     0.68777   0.61179   0.98287   0.00000  Uiso   1.00
N179   N     0.27208   0.96969   0.43393   0.00000  Uiso   1.00
N180   N     0.38967   0.95337   0.28351   0.00000  Uiso   1.00
N181   N     0.62618   0.36673   0.87571   0.00000  Uiso   1.00
N182   N     0.23647   0.24191   0.37027   0.00000  Uiso   1.00
N183   N     0.35406   0.22559   0.21984   0.00000  Uiso   1.00
N184   N     0.59057   0.63896   0.81204   0.00000  Uiso   1.00
C185   C     0.93244   0.42735   0.03668   0.00000  Uiso   1.00
C186   C     0.87955   0.38919   0.99282   0.00000  Uiso   1.00
C187   C     0.85491   0.50875   0.99139   0.00000  Uiso   1.00
C188   C     0.80665   0.44821   0.94780   0.00000  Uiso   1.00
C189   C     0.72797   0.41544   0.88584   0.00000  Uiso   1.00
C190   C     0.91195   0.39370   0.95135   0.00000  Uiso   1.00
C191   C     0.91456   0.51705   0.91506   0.00000  Uiso   1.00
C192   C     0.89358   0.46029   0.83657   0.00000  Uiso   1.00
C193   C     0.86524   0.43448   0.71027   0.00000  Uiso   1.00
C194   C     0.97713   0.27978   0.11456   0.00000  Uiso   1.00
C195   C     0.03455   0.30734   0.21550   0.00000  Uiso   1.00
C196   C     0.06845   0.15466   0.27442   0.00000  Uiso   1.00
C197   C     0.14131   0.95198   0.40153   0.00000  Uiso   1.00
C198   C     0.89057   0.10721   0.96181   0.00000  Uiso   1.00
C199   C     0.85680   0.21530   0.95215   0.00000  Uiso   1.00
C200   C     0.80858   0.15456   0.90856   0.00000  Uiso   1.00
C201   C     0.78387   0.27401   0.90707   0.00000  Uiso   1.00
C202   C     0.88920   0.21982   0.91068   0.00000  Uiso   1.00
C203   C     0.86823   0.16286   0.83223   0.00000  Uiso   1.00
C204   C     0.87080   0.28609   0.79583   0.00000  Uiso   1.00
C205   C     0.95438   0.10589   0.07389   0.00000  Uiso   1.00
C206   C     0.98821   0.95315   0.13266   0.00000  Uiso   1.00
C207   C     0.04567   0.98047   0.23368   0.00000  Uiso   1.00
H208   H     0.95015   0.56273   0.06834   0.00000  Uiso   1.00
H209   H     0.87252   0.64332   0.02286   0.00000  Uiso   1.00
H210   H     0.93217   0.65160   0.94655   0.00000  Uiso   1.00
H211   H     0.05213   0.44192   0.24694   0.00000  Uiso   1.00
H212   H     0.77641   0.65600   0.95448   0.00000  Uiso   1.00
H213   H     0.90219   0.67345   0.79360   0.00000  Uiso   1.00
H214   H     0.15517   0.23130   0.42703   0.00000  Uiso   1.00
H215   H     0.87286   0.97183   0.93015   0.00000  Uiso   1.00
H216   H     0.79099   0.01999   0.87709   0.00000  Uiso   1.00
H217   H     0.85063   0.02828   0.80078   0.00000  Uiso   1.00
H218   H     0.97060   0.81861   0.10117   0.00000  Uiso   1.00
H219   H     0.71023   0.15009   0.83616   0.00000  Uiso   1.00
H220   H     0.83602   0.16754   0.67528   0.00000  Uiso   1.00
H221   H     0.08899   0.72540   0.30871   0.00000  Uiso   1.00
O222   O     0.69084   0.44541   0.86288   0.00000  Uiso   1.00
O223   O     0.85588   0.46829   0.65183   0.00000  Uiso   1.00
O224   O     0.18777   0.88821   0.48287   0.00000  Uiso   1.00
N225   N     0.77208   0.53031   0.93393   0.00000  Uiso   1.00
N226   N     0.88967   0.54663   0.78351   0.00000  Uiso   1.00
N227   N     0.12618   0.13327   0.37571   0.00000  Uiso   1.00
N228   N     0.73647   0.25809   0.87027   0.00000  Uiso   1.00
N229   N     0.85406   0.27441   0.71984   0.00000  Uiso   1.00
N230   N     0.09057   0.86104   0.31204   0.00000  Uiso   1.00
C231   C     0.43244   0.92735   0.03668   0.00000  Uiso   1.00
C232   C     0.37955   0.88919   0.99282   0.00000  Uiso   1.00
C233   C     0.35491   0.00875   0.99139   0.00000  Uiso   1.00
C234   C     0.30665   0.94821   0.94780   0.00000  Uiso   1.00
C235   C     0.22797   0.91544   0.88584   0.00000  Uiso   1.00
C236   C     0.41195   0.89370   0.95135   0.00000  Uiso   1.00
C237   C     0.41456   0.01705   0.91506   0.00000  Uiso   1.00
C238   C     0.39358   0.96029   0.83657   0.00000  Uiso   1.00
C239   C     0.36524   0.93448   0.71027   0.00000  Uiso   1.00
C240   C     0.47713   0.77978   0.11456   0.00000  Uiso   1.00
C241   C     0.53455   0.80734   0.21550   0.00000  Uiso   1.00
C242   C     0.56845   0.65466   0.27442   0.00000  Uiso   1.00
C243   C     0.64131   0.45198   0.40153   0.00000  Uiso   1.00
C244   C     0.39057   0.60721   0.96181   0.00000  Uiso   1.00
C245   C     0.35680   0.71530   0.95215   0.00000  Uiso   1.00
C246   C     0.30858   0.65456   0.90856   0.00000  Uiso   1.00
C247   C     0.28387   0.77401   0.90707   0.00000  Uiso   1.00
C248   C     0.38920   0.71982   0.91068   0.00000  Uiso   1.00
C249   C     0.36823   0.66286   0.83223   0.00000  Uiso   1.00
C250   C     0.37080   0.78609   0.79583   0.00000  Uiso   1.00
C251   C     0.45438   0.60589   0.07389   0.00000  Uiso   1.00
C252   C     0.48821   0.45315   0.13266   0.00000  Uiso   1.00
C253   C     0.54567   0.48047   0.23368   0.00000  Uiso   1.00
H254   H     0.45015   0.06273   0.06834   0.00000  Uiso   1.00
H255   H     0.37252   0.14332   0.02286   0.00000  Uiso   1.00
H256   H     0.43217   0.15160   0.94655   0.00000  Uiso   1.00
H257   H     0.55213   0.94192   0.24694   0.00000  Uiso   1.00
H258   H     0.27641   0.15600   0.95448   0.00000  Uiso   1.00
H259   H     0.40219   0.17345   0.79360   0.00000  Uiso   1.00
H260   H     0.65517   0.73130   0.42703   0.00000  Uiso   1.00
H261   H     0.37286   0.47183   0.93015   0.00000  Uiso   1.00
H262   H     0.29099   0.51999   0.87709   0.00000  Uiso   1.00
H263   H     0.35063   0.52828   0.80078   0.00000  Uiso   1.00
H264   H     0.47060   0.31861   0.10117   0.00000  Uiso   1.00
H265   H     0.21023   0.65009   0.83616   0.00000  Uiso   1.00
H266   H     0.33602   0.66754   0.67528   0.00000  Uiso   1.00
H267   H     0.58899   0.22540   0.30871   0.00000  Uiso   1.00
O268   O     0.19084   0.94541   0.86288   0.00000  Uiso   1.00
O269   O     0.35588   0.96829   0.65183   0.00000  Uiso   1.00
O270   O     0.68777   0.38821   0.48287   0.00000  Uiso   1.00
N271   N     0.27208   0.03031   0.93393   0.00000  Uiso   1.00
N272   N     0.38967   0.04663   0.78351   0.00000  Uiso   1.00
N273   N     0.62618   0.63327   0.37571   0.00000  Uiso   1.00
N274   N     0.23647   0.75809   0.87027   0.00000  Uiso   1.00
N275   N     0.35406   0.77441   0.71984   0.00000  Uiso   1.00
N276   N     0.59057   0.36104   0.31204   0.00000  Uiso   1.00
C277   C     0.06756   0.42735   0.46332   0.00000  Uiso   1.00
C278   C     0.12045   0.38919   0.50718   0.00000  Uiso   1.00
C279   C     0.14509   0.50875   0.50861   0.00000  Uiso   1.00
C280   C     0.19335   0.44821   0.55220   0.00000  Uiso   1.00
C281   C     0.27203   0.41544   0.61416   0.00000  Uiso   1.00
C282   C     0.08805   0.39370   0.54865   0.00000  Uiso   1.00
C283   C     0.08544   0.51705   0.58494   0.00000  Uiso   1.00
C284   C     0.10642   0.46029   0.66343   0.00000  Uiso   1.00
C285   C     0.13476   0.43448   0.78973   0.00000  Uiso   1.00
C286   C     0.02287   0.27978   0.38544   0.00000  Uiso   1.00
C287   C     0.96545   0.30734   0.28450   0.00000  Uiso   1.00
C288   C     0.93155   0.15466   0.22558   0.00000  Uiso   1.00
C289   C     0.85869   0.95198   0.09847   0.00000  Uiso   1.00
C290   C     0.10943   0.10721   0.53819   0.00000  Uiso   1.00
C291   C     0.14320   0.21530   0.54785   0.00000  Uiso   1.00
C292   C     0.19142   0.15456   0.59144   0.00000  Uiso   1.00
C293   C     0.21613   0.27401   0.59293   0.00000  Uiso   1.00
C294   C     0.11080   0.21982   0.58932   0.00000  Uiso   1.00
C295   C     0.13177   0.16286   0.66777   0.00000  Uiso   1.00
C296   C     0.12920   0.28609   0.70417   0.00000  Uiso   1.00
C297   C     0.04562   0.10589   0.42611   0.00000  Uiso   1.00
C298   C     0.01179   0.95315   0.36734   0.00000  Uiso   1.00
C299   C     0.95433   0.98047   0.26632   0.00000  Uiso   1.00
H300   H     0.04985   0.56273   0.43166   0.00000  Uiso   1.00
H301   H     0.12748   0.64332   0.47714   0.00000  Uiso   1.00
H302   H     0.06783   0.65160   0.55345   0.00000  Uiso   1.00
H303   H     0.94787   0.44192   0.25306   0.00000  Uiso   1.00
H304   H     0.22359   0.65600   0.54552   0.00000  Uiso   1.00
H305   H     0.09781   0.67345   0.70640   0.00000  Uiso   1.00
H306   H     0.84483   0.23130   0.07297   0.00000  Uiso   1.00
H307   H     0.12714   0.97183   0.56985   0.00000  Uiso   1.00
H308   H     0.20901   0.01999   0.62291   0.00000  Uiso   1.00
H309   H     0.14937   0.02828   0.69922   0.00000  Uiso   1.00
H310   H     0.02940   0.81861   0.39883   0.00000  Uiso   1.00
H311   H     0.28977   0.15009   0.66384   0.00000  Uiso   1.00
H312   H     0.16398   0.16754   0.82472   0.00000  Uiso   1.00
H313   H     0.91101   0.72540   0.19129   0.00000  Uiso   1.00
O314   O     0.30916   0.44541   0.63712   0.00000  Uiso   1.00
O315   O     0.14412   0.46829   0.84817   0.00000  Uiso   1.00
O316   O     0.81223   0.88821   0.01713   0.00000  Uiso   1.00
N317   N     0.22792   0.53031   0.56607   0.00000  Uiso   1.00
N318   N     0.11033   0.54663   0.71649   0.00000  Uiso   1.00
N319   N     0.87382   0.13327   0.12429   0.00000  Uiso   1.00
N320   N     0.26353   0.25809   0.62973   0.00000  Uiso   1.00
N321   N     0.14594   0.27441   0.78016   0.00000  Uiso   1.00
N322   N     0.90943   0.86104   0.18796   0.00000  Uiso   1.00
C323   C     0.56756   0.92735   0.46332   0.00000  Uiso   1.00
C324   C     0.62045   0.88919   0.50718   0.00000  Uiso   1.00
C325   C     0.64509   0.00875   0.50861   0.00000  Uiso   1.00
C326   C     0.69335   0.94821   0.55220   0.00000  Uiso   1.00
C327   C     0.77203   0.91544   0.61416   0.00000  Uiso   1.00
C328   C     0.58805   0.89370   0.54865   0.00000  Uiso   1.00
C329   C     0.58544   0.01705   0.58494   0.00000  Uiso   1.00
C330   C     0.60642   0.96029   0.66343   0.00000  Uiso   1.00
C331   C     0.63476   0.93448   0.78973   0.00000  Uiso   1.00
C332   C     0.52287   0.77978   0.38544   0.00000  Uiso   1.00
C333   C     0.46545   0.80734   0.28450   0.00000  Uiso   1.00
C334   C     0.43155   0.65466   0.22558   0.00000  Uiso   1.00
C335   C     0.35869   0.45198   0.09847   0.00000  Uiso   1.00
C336   C     0.60943   0.60721   0.53819   0.00000  Uiso   1.00
C337   C     0.64320   0.71530   0.54785   0.00000  Uiso   1.00
C338   C     0.69142   0.65456   0.59144   0.00000  Uiso   1.00
C339   C     0.71613   0.77401   0.59293   0.00000  Uiso   1.00
C340   C     0.61080   0.71982   0.58932   0.00000  Uiso   1.00
C341   C     0.63177   0.66286   0.66777   0.00000  Uiso   1.00
C342   C     0.62920   0.78609   0.70417   0.00000  Uiso   1.00
C343   C     0.54562   0.60589   0.42611   0.00000  Uiso   1.00
C344   C     0.51179   0.45315   0.36734   0.00000  Uiso   1.00
C345   C     0.45433   0.48047   0.26632   0.00000  Uiso   1.00
H346   H     0.54985   0.06273   0.43166   0.00000  Uiso   1.00
H347   H     0.62748   0.14332   0.47714   0.00000  Uiso   1.00
H348   H     0.56783   0.15160   0.55345   0.00000  Uiso   1.00
H349   H     0.44787   0.94192   0.25306   0.00000  Uiso   1.00
H350   H     0.72359   0.15600   0.54552   0.00000  Uiso   1.00
H351   H     0.59781   0.17345   0.70640   0.00000  Uiso   1.00
H352   H     0.34483   0.73130   0.07297   0.00000  Uiso   1.00
H353   H     0.62714   0.47183   0.56985   0.00000  Uiso   1.00
H354   H     0.70901   0.51999   0.62291   0.00000  Uiso   1.00
H355   H     0.64937   0.52828   0.69922   0.00000  Uiso   1.00
H356   H     0.52940   0.31861   0.39883   0.00000  Uiso   1.00
H357   H     0.78977   0.65009   0.66384   0.00000  Uiso   1.00
H358   H     0.66398   0.66754   0.82472   0.00000  Uiso   1.00
H359   H     0.41101   0.22540   0.19129   0.00000  Uiso   1.00
O360   O     0.80916   0.94541   0.63712   0.00000  Uiso   1.00
O361   O     0.64412   0.96829   0.84817   0.00000  Uiso   1.00
O362   O     0.31223   0.38821   0.01713   0.00000  Uiso   1.00
N363   N     0.72792   0.03031   0.56607   0.00000  Uiso   1.00
N364   N     0.61033   0.04663   0.71649   0.00000  Uiso   1.00
N365   N     0.37382   0.63327   0.12429   0.00000  Uiso   1.00
N366   N     0.76353   0.75809   0.62973   0.00000  Uiso   1.00
N367   N     0.64594   0.77441   0.78016   0.00000  Uiso   1.00
N368   N     0.40943   0.36104   0.18796   0.00000  Uiso   1.00
