data_job_05801
_audit_creation_date              2018-12-19
_audit_creation_method            'Materials Studio'
_symmetry_space_group_name_H-M    'P1'
_symmetry_Int_Tables_number       1
_symmetry_cell_setting            triclinic
loop_
_symmetry_equiv_pos_as_xyz
  x,y,z
_cell_length_a                    9.3718
_cell_length_b                    9.2606
_cell_length_c                    31.5823
_cell_angle_alpha                 90.0000
_cell_angle_beta                  105.0166
_cell_angle_gamma                 90.0000
loop_
_atom_site_label
_atom_site_type_symbol
_atom_site_fract_x
_atom_site_fract_y
_atom_site_fract_z
_atom_site_U_iso_or_equiv
_atom_site_adp_type
_atom_site_occupancy
C1     C     0.38256   0.56572   0.65610   0.00000  Uiso   1.00
C2     C     0.50616   0.49450   0.69091   0.00000  Uiso   1.00
C3     C     0.55928   0.54098   0.73389   0.00000  Uiso   1.00
C4     C     0.67288   0.46110   0.76062   0.00000  Uiso   1.00
C5     C     0.85599   0.36911   0.81706   0.00000  Uiso   1.00
C6     C     0.44795   0.60025   0.61780   0.00000  Uiso   1.00
C7     C     0.45211   0.73563   0.59931   0.00000  Uiso   1.00
C8     C     0.51669   0.74476   0.56449   0.00000  Uiso   1.00
C9     C     0.60933   0.81692   0.50740   0.00000  Uiso   1.00
C10    C     0.26710   0.44857   0.63974   0.00000  Uiso   1.00
C11    C     0.11917   0.45643   0.63969   0.00000  Uiso   1.00
C12    C     0.03148   0.33786   0.62334   0.00000  Uiso   1.00
C13    C     0.84331   0.17451   0.60032   0.00000  Uiso   1.00
C14    C     0.48984   0.34120   0.62713   0.00000  Uiso   1.00
C15    C     0.56443   0.37256   0.67517   0.00000  Uiso   1.00
C16    C     0.67798   0.29258   0.70184   0.00000  Uiso   1.00
C17    C     0.73126   0.33893   0.74486   0.00000  Uiso   1.00
C18    C     0.50622   0.47830   0.60206   0.00000  Uiso   1.00
C19    C     0.57081   0.48723   0.56726   0.00000  Uiso   1.00
C20    C     0.57507   0.62259   0.54873   0.00000  Uiso   1.00
C21    C     0.32537   0.32661   0.62401   0.00000  Uiso   1.00
C22    C     0.23788   0.20802   0.60765   0.00000  Uiso   1.00
C23    C     0.08986   0.21569   0.60758   0.00000  Uiso   1.00
H24    H     0.33719   0.66067   0.66835   0.00000  Uiso   1.00
H25    H     0.51416   0.63537   0.74606   0.00000  Uiso   1.00
H26    H     0.40699   0.82998   0.61149   0.00000  Uiso   1.00
H27    H     0.07412   0.55081   0.65187   0.00000  Uiso   1.00
H28    H     0.73611   0.55358   0.82527   0.00000  Uiso   1.00
H29    H     0.51008   0.96392   0.54152   0.00000  Uiso   1.00
H30    H     0.80815   0.37524   0.62667   0.00000  Uiso   1.00
H31    H     0.53521   0.24626   0.61488   0.00000  Uiso   1.00
H32    H     0.72305   0.19821   0.68966   0.00000  Uiso   1.00
H33    H     0.61588   0.39283   0.55509   0.00000  Uiso   1.00
H34    H     0.28301   0.11366   0.59548   0.00000  Uiso   1.00
H35    H     0.90565   0.19876   0.77949   0.00000  Uiso   1.00
H36    H     0.67962   0.60911   0.49574   0.00000  Uiso   1.00
H37    H     0.97769   0.02043   0.58090   0.00000  Uiso   1.00
O38    O     0.94091   0.35207   0.85253   0.00000  Uiso   1.00
O39    O     0.64434   0.89042   0.48026   0.00000  Uiso   1.00
O40    O     0.72343   0.11809   0.59198   0.00000  Uiso   1.00
N41    N     0.75021   0.47665   0.80423   0.00000  Uiso   1.00
N42    N     0.53891   0.86030   0.53895   0.00000  Uiso   1.00
N43    N     0.88265   0.30995   0.61855   0.00000  Uiso   1.00
N44    N     0.84144   0.28572   0.77960   0.00000  Uiso   1.00
N45    N     0.63014   0.66938   0.51432   0.00000  Uiso   1.00
N46    N     0.97388   0.11903   0.59392   0.00000  Uiso   1.00
C47    C     0.61744   0.06572   0.84390   0.00000  Uiso   1.00
C48    C     0.49384   0.99450   0.80909   0.00000  Uiso   1.00
C49    C     0.44072   0.04098   0.76611   0.00000  Uiso   1.00
C50    C     0.32712   0.96110   0.73938   0.00000  Uiso   1.00
C51    C     0.14401   0.86911   0.68294   0.00000  Uiso   1.00
C52    C     0.55205   0.10025   0.88220   0.00000  Uiso   1.00
C53    C     0.54789   0.23563   0.90069   0.00000  Uiso   1.00
C54    C     0.48331   0.24476   0.93551   0.00000  Uiso   1.00
C55    C     0.39067   0.31692   0.99260   0.00000  Uiso   1.00
C56    C     0.73290   0.94857   0.86026   0.00000  Uiso   1.00
C57    C     0.88083   0.95643   0.86031   0.00000  Uiso   1.00
C58    C     0.96852   0.83786   0.87666   0.00000  Uiso   1.00
C59    C     0.15669   0.67451   0.89968   0.00000  Uiso   1.00
C60    C     0.51016   0.84120   0.87287   0.00000  Uiso   1.00
C61    C     0.43557   0.87256   0.82483   0.00000  Uiso   1.00
C62    C     0.32202   0.79258   0.79816   0.00000  Uiso   1.00
C63    C     0.26874   0.83893   0.75514   0.00000  Uiso   1.00
C64    C     0.49378   0.97830   0.89794   0.00000  Uiso   1.00
C65    C     0.42919   0.98723   0.93274   0.00000  Uiso   1.00
C66    C     0.42493   0.12259   0.95127   0.00000  Uiso   1.00
C67    C     0.67463   0.82661   0.87599   0.00000  Uiso   1.00
C68    C     0.76212   0.70802   0.89235   0.00000  Uiso   1.00
C69    C     0.91014   0.71569   0.89242   0.00000  Uiso   1.00
H70    H     0.66281   0.16067   0.83165   0.00000  Uiso   1.00
H71    H     0.48584   0.13537   0.75394   0.00000  Uiso   1.00
H72    H     0.59301   0.32998   0.88851   0.00000  Uiso   1.00
H73    H     0.92588   0.05081   0.84813   0.00000  Uiso   1.00
H74    H     0.26389   0.05358   0.67473   0.00000  Uiso   1.00
H75    H     0.48992   0.46392   0.95848   0.00000  Uiso   1.00
H76    H     0.19185   0.87524   0.87333   0.00000  Uiso   1.00
H77    H     0.46479   0.74626   0.88512   0.00000  Uiso   1.00
H78    H     0.27695   0.69821   0.81034   0.00000  Uiso   1.00
H79    H     0.38412   0.89283   0.94491   0.00000  Uiso   1.00
H80    H     0.71699   0.61366   0.90452   0.00000  Uiso   1.00
H81    H     0.09435   0.69876   0.72051   0.00000  Uiso   1.00
H82    H     0.32038   0.10911   0.00426   0.00000  Uiso   1.00
H83    H     0.02231   0.52043   0.91910   0.00000  Uiso   1.00
O84    O     0.05909   0.85207   0.64747   0.00000  Uiso   1.00
O85    O     0.35566   0.39042   0.01974   0.00000  Uiso   1.00
O86    O     0.27657   0.61809   0.90802   0.00000  Uiso   1.00
N87    N     0.24979   0.97665   0.69577   0.00000  Uiso   1.00
N88    N     0.46109   0.36030   0.96105   0.00000  Uiso   1.00
N89    N     0.11735   0.80995   0.88145   0.00000  Uiso   1.00
N90    N     0.15856   0.78572   0.72040   0.00000  Uiso   1.00
N91    N     0.36986   0.16938   0.98568   0.00000  Uiso   1.00
N92    N     0.02612   0.61903   0.90608   0.00000  Uiso   1.00
C93    C     0.61744   0.43428   0.34390   0.00000  Uiso   1.00
C94    C     0.49384   0.50550   0.30909   0.00000  Uiso   1.00
C95    C     0.44072   0.45902   0.26611   0.00000  Uiso   1.00
C96    C     0.32712   0.53890   0.23938   0.00000  Uiso   1.00
C97    C     0.14401   0.63089   0.18294   0.00000  Uiso   1.00
C98    C     0.55205   0.39975   0.38220   0.00000  Uiso   1.00
C99    C     0.54789   0.26437   0.40069   0.00000  Uiso   1.00
C100   C     0.48331   0.25524   0.43551   0.00000  Uiso   1.00
C101   C     0.39067   0.18308   0.49260   0.00000  Uiso   1.00
C102   C     0.73290   0.55143   0.36026   0.00000  Uiso   1.00
C103   C     0.88083   0.54357   0.36031   0.00000  Uiso   1.00
C104   C     0.96852   0.66214   0.37666   0.00000  Uiso   1.00
C105   C     0.15669   0.82549   0.39968   0.00000  Uiso   1.00
C106   C     0.51016   0.65880   0.37287   0.00000  Uiso   1.00
C107   C     0.43557   0.62744   0.32483   0.00000  Uiso   1.00
C108   C     0.32202   0.70742   0.29816   0.00000  Uiso   1.00
C109   C     0.26874   0.66107   0.25514   0.00000  Uiso   1.00
C110   C     0.49378   0.52170   0.39794   0.00000  Uiso   1.00
C111   C     0.42919   0.51277   0.43274   0.00000  Uiso   1.00
C112   C     0.42493   0.37741   0.45127   0.00000  Uiso   1.00
C113   C     0.67463   0.67339   0.37599   0.00000  Uiso   1.00
C114   C     0.76212   0.79198   0.39235   0.00000  Uiso   1.00
C115   C     0.91014   0.78431   0.39242   0.00000  Uiso   1.00
H116   H     0.66281   0.33933   0.33165   0.00000  Uiso   1.00
H117   H     0.48584   0.36463   0.25394   0.00000  Uiso   1.00
H118   H     0.59301   0.17002   0.38851   0.00000  Uiso   1.00
H119   H     0.92588   0.44919   0.34813   0.00000  Uiso   1.00
H120   H     0.26389   0.44642   0.17473   0.00000  Uiso   1.00
H121   H     0.48992   0.03608   0.45848   0.00000  Uiso   1.00
H122   H     0.19185   0.62476   0.37333   0.00000  Uiso   1.00
H123   H     0.46479   0.75374   0.38512   0.00000  Uiso   1.00
H124   H     0.27695   0.80179   0.31034   0.00000  Uiso   1.00
H125   H     0.38412   0.60717   0.44491   0.00000  Uiso   1.00
H126   H     0.71699   0.88634   0.40452   0.00000  Uiso   1.00
H127   H     0.09435   0.80124   0.22051   0.00000  Uiso   1.00
H128   H     0.32038   0.39089   0.50426   0.00000  Uiso   1.00
H129   H     0.02231   0.97957   0.41910   0.00000  Uiso   1.00
O130   O     0.05909   0.64793   0.14747   0.00000  Uiso   1.00
O131   O     0.35566   0.10958   0.51974   0.00000  Uiso   1.00
O132   O     0.27657   0.88191   0.40802   0.00000  Uiso   1.00
N133   N     0.24979   0.52335   0.19577   0.00000  Uiso   1.00
N134   N     0.46109   0.13970   0.46105   0.00000  Uiso   1.00
N135   N     0.11735   0.69005   0.38145   0.00000  Uiso   1.00
N136   N     0.15856   0.71428   0.22040   0.00000  Uiso   1.00
N137   N     0.36986   0.33062   0.48568   0.00000  Uiso   1.00
N138   N     0.02612   0.88097   0.40608   0.00000  Uiso   1.00
C139   C     0.38256   0.93428   0.15610   0.00000  Uiso   1.00
C140   C     0.50616   0.00550   0.19091   0.00000  Uiso   1.00
C141   C     0.55928   0.95902   0.23389   0.00000  Uiso   1.00
C142   C     0.67288   0.03890   0.26062   0.00000  Uiso   1.00
C143   C     0.85599   0.13089   0.31706   0.00000  Uiso   1.00
C144   C     0.44795   0.89975   0.11780   0.00000  Uiso   1.00
C145   C     0.45211   0.76437   0.09931   0.00000  Uiso   1.00
C146   C     0.51669   0.75524   0.06449   0.00000  Uiso   1.00
C147   C     0.60933   0.68308   0.00740   0.00000  Uiso   1.00
C148   C     0.26710   0.05143   0.13974   0.00000  Uiso   1.00
C149   C     0.11917   0.04357   0.13969   0.00000  Uiso   1.00
C150   C     0.03148   0.16214   0.12334   0.00000  Uiso   1.00
C151   C     0.84331   0.32549   0.10032   0.00000  Uiso   1.00
C152   C     0.48984   0.15880   0.12713   0.00000  Uiso   1.00
C153   C     0.56443   0.12744   0.17517   0.00000  Uiso   1.00
C154   C     0.67798   0.20742   0.20184   0.00000  Uiso   1.00
C155   C     0.73126   0.16107   0.24486   0.00000  Uiso   1.00
C156   C     0.50622   0.02170   0.10206   0.00000  Uiso   1.00
C157   C     0.57081   0.01277   0.06726   0.00000  Uiso   1.00
C158   C     0.57507   0.87741   0.04873   0.00000  Uiso   1.00
C159   C     0.32537   0.17339   0.12401   0.00000  Uiso   1.00
C160   C     0.23788   0.29198   0.10765   0.00000  Uiso   1.00
C161   C     0.08986   0.28431   0.10758   0.00000  Uiso   1.00
H162   H     0.33719   0.83933   0.16835   0.00000  Uiso   1.00
H163   H     0.51416   0.86463   0.24606   0.00000  Uiso   1.00
H164   H     0.40699   0.67002   0.11149   0.00000  Uiso   1.00
H165   H     0.07412   0.94919   0.15187   0.00000  Uiso   1.00
H166   H     0.73611   0.94642   0.32527   0.00000  Uiso   1.00
H167   H     0.51008   0.53608   0.04152   0.00000  Uiso   1.00
H168   H     0.80815   0.12476   0.12667   0.00000  Uiso   1.00
H169   H     0.53521   0.25374   0.11488   0.00000  Uiso   1.00
H170   H     0.72305   0.30179   0.18966   0.00000  Uiso   1.00
H171   H     0.61588   0.10717   0.05509   0.00000  Uiso   1.00
H172   H     0.28301   0.38634   0.09548   0.00000  Uiso   1.00
H173   H     0.90565   0.30124   0.27949   0.00000  Uiso   1.00
H174   H     0.67962   0.89089   0.99574   0.00000  Uiso   1.00
H175   H     0.97769   0.47957   0.08090   0.00000  Uiso   1.00
O176   O     0.94091   0.14793   0.35253   0.00000  Uiso   1.00
O177   O     0.64434   0.60958   0.98026   0.00000  Uiso   1.00
O178   O     0.72343   0.38191   0.09198   0.00000  Uiso   1.00
N179   N     0.75021   0.02335   0.30423   0.00000  Uiso   1.00
N180   N     0.53891   0.63970   0.03895   0.00000  Uiso   1.00
N181   N     0.88265   0.19005   0.11855   0.00000  Uiso   1.00
N182   N     0.84144   0.21428   0.27960   0.00000  Uiso   1.00
N183   N     0.63014   0.83062   0.01432   0.00000  Uiso   1.00
N184   N     0.97388   0.38097   0.09392   0.00000  Uiso   1.00
