data_job_00996
_audit_creation_date              2018-12-19
_audit_creation_method            'Materials Studio'
_symmetry_space_group_name_H-M    'P1'
_symmetry_Int_Tables_number       1
_symmetry_cell_setting            triclinic
loop_
_symmetry_equiv_pos_as_xyz
  x,y,z
_cell_length_a                    11.0190
_cell_length_b                    11.0190
_cell_length_c                    64.9597
_cell_angle_alpha                 90.0000
_cell_angle_beta                  90.0000
_cell_angle_gamma                 120.0000
loop_
_atom_site_label
_atom_site_type_symbol
_atom_site_fract_x
_atom_site_fract_y
_atom_site_fract_z
_atom_site_U_iso_or_equiv
_atom_site_adp_type
_atom_site_occupancy
C1     C     0.48382   0.19207   0.97867   0.00000  Uiso   1.00
C2     C     0.52034   0.31405   0.96408   0.00000  Uiso   1.00
C3     C     0.43866   0.31313   0.94775   0.00000  Uiso   1.00
C4     C     0.49049   0.43522   0.93624   0.00000  Uiso   1.00
C5     C     0.52763   0.60656   0.91287   0.00000  Uiso   1.00
C6     C     0.60596   0.16417   0.97750   0.00000  Uiso   1.00
C7     C     0.59627   0.03722   0.97245   0.00000  Uiso   1.00
C8     C     0.72017   0.03314   0.97223   0.00000  Uiso   1.00
C9     C     0.89022   0.97176   0.96971   0.00000  Uiso   1.00
C10    C     0.48777   0.24768   0.00030   0.00000  Uiso   1.00
C11    C     0.37871   0.19093   0.01443   0.00000  Uiso   1.00
C12    C     0.40311   0.25714   0.03340   0.00000  Uiso   1.00
C13    C     0.38965   0.32541   0.06628   0.00000  Uiso   1.00
C14    C     0.72110   0.41053   0.98724   0.00000  Uiso   1.00
C15    C     0.64922   0.43271   0.96874   0.00000  Uiso   1.00
C16    C     0.70119   0.55484   0.95724   0.00000  Uiso   1.00
C17    C     0.61960   0.55410   0.94090   0.00000  Uiso   1.00
C18    C     0.73484   0.28283   0.98216   0.00000  Uiso   1.00
C19    C     0.85879   0.27893   0.98194   0.00000  Uiso   1.00
C20    C     0.84929   0.15202   0.97690   0.00000  Uiso   1.00
C21    C     0.61665   0.36634   0.00496   0.00000  Uiso   1.00
C22    C     0.64123   0.43264   0.02392   0.00000  Uiso   1.00
C23    C     0.53223   0.37601   0.03807   0.00000  Uiso   1.00
H24    H     0.38348   0.09968   0.97504   0.00000  Uiso   1.00
H25    H     0.33893   0.22128   0.94415   0.00000  Uiso   1.00
H26    H     0.49651   0.94541   0.96885   0.00000  Uiso   1.00
H27    H     0.27899   0.09910   0.01081   0.00000  Uiso   1.00
H28    H     0.34641   0.40840   0.91196   0.00000  Uiso   1.00
H29    H     0.67866   0.82672   0.96404   0.00000  Uiso   1.00
H30    H     0.21996   0.15079   0.05253   0.00000  Uiso   1.00
H31    H     0.82144   0.50292   0.99087   0.00000  Uiso   1.00
H32    H     0.80093   0.64665   0.96085   0.00000  Uiso   1.00
H33    H     0.95850   0.37078   0.98555   0.00000  Uiso   1.00
H34    H     0.74098   0.52447   0.02752   0.00000  Uiso   1.00
H35    H     0.72138   0.75365   0.92551   0.00000  Uiso   1.00
H36    H     0.05363   0.17195   0.97759   0.00000  Uiso   1.00
H37    H     0.59494   0.49603   0.06609   0.00000  Uiso   1.00
O38    O     0.51252   0.66829   0.89870   0.00000  Uiso   1.00
O39    O     0.94841   0.90512   0.96703   0.00000  Uiso   1.00
O40    O     0.34661   0.33031   0.08313   0.00000  Uiso   1.00
N41    N     0.43746   0.46994   0.91927   0.00000  Uiso   1.00
N42    N     0.74810   0.92610   0.96796   0.00000  Uiso   1.00
N43    N     0.31927   0.22906   0.05070   0.00000  Uiso   1.00
N44    N     0.63923   0.65572   0.92657   0.00000  Uiso   1.00
N45    N     0.94987   0.11187   0.97525   0.00000  Uiso   1.00
N46    N     0.52104   0.41484   0.05799   0.00000  Uiso   1.00
C47    C     0.80793   0.29175   0.64533   0.00000  Uiso   1.00
C48    C     0.68595   0.20628   0.63075   0.00000  Uiso   1.00
C49    C     0.68687   0.12553   0.61442   0.00000  Uiso   1.00
C50    C     0.56478   0.05527   0.60290   0.00000  Uiso   1.00
C51    C     0.39344   0.92106   0.57954   0.00000  Uiso   1.00
C52    C     0.83583   0.44179   0.64416   0.00000  Uiso   1.00
C53    C     0.96278   0.55904   0.63912   0.00000  Uiso   1.00
C54    C     0.96686   0.68703   0.63890   0.00000  Uiso   1.00
C55    C     0.02824   0.91846   0.63638   0.00000  Uiso   1.00
C56    C     0.75232   0.24009   0.66696   0.00000  Uiso   1.00
C57    C     0.80907   0.18778   0.68109   0.00000  Uiso   1.00
C58    C     0.74286   0.14598   0.70007   0.00000  Uiso   1.00
C59    C     0.67459   0.06423   0.73295   0.00000  Uiso   1.00
C60    C     0.58947   0.31057   0.65391   0.00000  Uiso   1.00
C61    C     0.56729   0.21651   0.63541   0.00000  Uiso   1.00
C62    C     0.44516   0.14635   0.62391   0.00000  Uiso   1.00
C63    C     0.44590   0.06550   0.60757   0.00000  Uiso   1.00
C64    C     0.71717   0.45201   0.64882   0.00000  Uiso   1.00
C65    C     0.72107   0.57986   0.64861   0.00000  Uiso   1.00
C66    C     0.84798   0.69727   0.64356   0.00000  Uiso   1.00
C67    C     0.63366   0.25030   0.67162   0.00000  Uiso   1.00
C68    C     0.56736   0.20859   0.69058   0.00000  Uiso   1.00
C69    C     0.62399   0.15622   0.70474   0.00000  Uiso   1.00
H70    H     0.90032   0.28380   0.64171   0.00000  Uiso   1.00
H71    H     0.77872   0.11766   0.61082   0.00000  Uiso   1.00
H72    H     0.05459   0.55110   0.63551   0.00000  Uiso   1.00
H73    H     0.90090   0.17989   0.67748   0.00000  Uiso   1.00
H74    H     0.59160   0.93800   0.57863   0.00000  Uiso   1.00
H75    H     0.17328   0.85195   0.63070   0.00000  Uiso   1.00
H76    H     0.84921   0.06918   0.71920   0.00000  Uiso   1.00
H77    H     0.49708   0.31853   0.65754   0.00000  Uiso   1.00
H78    H     0.35335   0.15428   0.62752   0.00000  Uiso   1.00
H79    H     0.62922   0.58773   0.65222   0.00000  Uiso   1.00
H80    H     0.47553   0.21651   0.69418   0.00000  Uiso   1.00
H81    H     0.24635   0.96773   0.59218   0.00000  Uiso   1.00
H82    H     0.82805   0.88168   0.64426   0.00000  Uiso   1.00
H83    H     0.50397   0.09890   0.73276   0.00000  Uiso   1.00
O84    O     0.33171   0.84423   0.56537   0.00000  Uiso   1.00
O85    O     0.09488   0.04329   0.63370   0.00000  Uiso   1.00
O86    O     0.66969   0.01631   0.74980   0.00000  Uiso   1.00
N87    N     0.53006   0.96752   0.58594   0.00000  Uiso   1.00
N88    N     0.07390   0.82200   0.63463   0.00000  Uiso   1.00
N89    N     0.77094   0.09021   0.71736   0.00000  Uiso   1.00
N90    N     0.34428   0.98351   0.59323   0.00000  Uiso   1.00
N91    N     0.88813   0.83799   0.64192   0.00000  Uiso   1.00
N92    N     0.58516   0.10620   0.72466   0.00000  Uiso   1.00
C93    C     0.70825   0.51618   0.31200   0.00000  Uiso   1.00
C94    C     0.79372   0.47966   0.29741   0.00000  Uiso   1.00
C95    C     0.87447   0.56134   0.28109   0.00000  Uiso   1.00
C96    C     0.94473   0.50951   0.26957   0.00000  Uiso   1.00
C97    C     0.07894   0.47237   0.24621   0.00000  Uiso   1.00
C98    C     0.55821   0.39404   0.31083   0.00000  Uiso   1.00
C99    C     0.44096   0.40373   0.30578   0.00000  Uiso   1.00
C100   C     0.31297   0.27983   0.30556   0.00000  Uiso   1.00
C101   C     0.08154   0.10978   0.30304   0.00000  Uiso   1.00
C102   C     0.75991   0.51223   0.33363   0.00000  Uiso   1.00
C103   C     0.81222   0.62129   0.34776   0.00000  Uiso   1.00
C104   C     0.85402   0.59689   0.36674   0.00000  Uiso   1.00
C105   C     0.93577   0.61035   0.39962   0.00000  Uiso   1.00
C106   C     0.68943   0.27890   0.32058   0.00000  Uiso   1.00
C107   C     0.78349   0.35078   0.30207   0.00000  Uiso   1.00
C108   C     0.85365   0.29881   0.29058   0.00000  Uiso   1.00
C109   C     0.93450   0.38040   0.27424   0.00000  Uiso   1.00
C110   C     0.54799   0.26516   0.31549   0.00000  Uiso   1.00
C111   C     0.42014   0.14121   0.31528   0.00000  Uiso   1.00
C112   C     0.30273   0.15071   0.31023   0.00000  Uiso   1.00
C113   C     0.74970   0.38335   0.33829   0.00000  Uiso   1.00
C114   C     0.79141   0.35877   0.35725   0.00000  Uiso   1.00
C115   C     0.84378   0.46777   0.37140   0.00000  Uiso   1.00
H116   H     0.71620   0.61652   0.30837   0.00000  Uiso   1.00
H117   H     0.88234   0.66107   0.27749   0.00000  Uiso   1.00
H118   H     0.44890   0.50349   0.30218   0.00000  Uiso   1.00
H119   H     0.82011   0.72101   0.34415   0.00000  Uiso   1.00
H120   H     0.06200   0.65359   0.24529   0.00000  Uiso   1.00
H121   H     0.14805   0.32134   0.29737   0.00000  Uiso   1.00
H122   H     0.93082   0.78004   0.38587   0.00000  Uiso   1.00
H123   H     0.68147   0.17856   0.32421   0.00000  Uiso   1.00
H124   H     0.84572   0.19907   0.29419   0.00000  Uiso   1.00
H125   H     0.41227   0.04150   0.31888   0.00000  Uiso   1.00
H126   H     0.78349   0.25902   0.36085   0.00000  Uiso   1.00
H127   H     0.03227   0.27862   0.25885   0.00000  Uiso   1.00
H128   H     0.11832   0.94637   0.31093   0.00000  Uiso   1.00
H129   H     0.90110   0.40506   0.39942   0.00000  Uiso   1.00
O130   O     0.15577   0.48748   0.23203   0.00000  Uiso   1.00
O131   O     0.95671   0.05159   0.30036   0.00000  Uiso   1.00
O132   O     0.98369   0.65339   0.41647   0.00000  Uiso   1.00
N133   N     0.03248   0.56254   0.25260   0.00000  Uiso   1.00
N134   N     0.17800   0.25190   0.30129   0.00000  Uiso   1.00
N135   N     0.90979   0.68073   0.38403   0.00000  Uiso   1.00
N136   N     0.01649   0.36077   0.25990   0.00000  Uiso   1.00
N137   N     0.16201   0.05013   0.30859   0.00000  Uiso   1.00
N138   N     0.89380   0.47896   0.39132   0.00000  Uiso   1.00
C139   C     0.51618   0.80793   0.47867   0.00000  Uiso   1.00
C140   C     0.47966   0.68595   0.46408   0.00000  Uiso   1.00
C141   C     0.56134   0.68687   0.44775   0.00000  Uiso   1.00
C142   C     0.50951   0.56478   0.43624   0.00000  Uiso   1.00
C143   C     0.47237   0.39344   0.41287   0.00000  Uiso   1.00
C144   C     0.39404   0.83583   0.47750   0.00000  Uiso   1.00
C145   C     0.40373   0.96278   0.47245   0.00000  Uiso   1.00
C146   C     0.27983   0.96686   0.47223   0.00000  Uiso   1.00
C147   C     0.10978   0.02824   0.46971   0.00000  Uiso   1.00
C148   C     0.51223   0.75232   0.50030   0.00000  Uiso   1.00
C149   C     0.62129   0.80907   0.51443   0.00000  Uiso   1.00
C150   C     0.59689   0.74286   0.53340   0.00000  Uiso   1.00
C151   C     0.61035   0.67459   0.56628   0.00000  Uiso   1.00
C152   C     0.27890   0.58947   0.48724   0.00000  Uiso   1.00
C153   C     0.35078   0.56729   0.46874   0.00000  Uiso   1.00
C154   C     0.29881   0.44516   0.45724   0.00000  Uiso   1.00
C155   C     0.38040   0.44590   0.44090   0.00000  Uiso   1.00
C156   C     0.26516   0.71717   0.48216   0.00000  Uiso   1.00
C157   C     0.14121   0.72107   0.48194   0.00000  Uiso   1.00
C158   C     0.15071   0.84798   0.47690   0.00000  Uiso   1.00
C159   C     0.38335   0.63366   0.50496   0.00000  Uiso   1.00
C160   C     0.35877   0.56736   0.52392   0.00000  Uiso   1.00
C161   C     0.46777   0.62399   0.53807   0.00000  Uiso   1.00
H162   H     0.61652   0.90032   0.47504   0.00000  Uiso   1.00
H163   H     0.66107   0.77872   0.44415   0.00000  Uiso   1.00
H164   H     0.50349   0.05459   0.46885   0.00000  Uiso   1.00
H165   H     0.72101   0.90090   0.51081   0.00000  Uiso   1.00
H166   H     0.65359   0.59160   0.41196   0.00000  Uiso   1.00
H167   H     0.32134   0.17328   0.46404   0.00000  Uiso   1.00
H168   H     0.78004   0.84921   0.55253   0.00000  Uiso   1.00
H169   H     0.17856   0.49708   0.49087   0.00000  Uiso   1.00
H170   H     0.19907   0.35335   0.46085   0.00000  Uiso   1.00
H171   H     0.04150   0.62922   0.48555   0.00000  Uiso   1.00
H172   H     0.25902   0.47553   0.52752   0.00000  Uiso   1.00
H173   H     0.27862   0.24635   0.42551   0.00000  Uiso   1.00
H174   H     0.94637   0.82805   0.47759   0.00000  Uiso   1.00
H175   H     0.40506   0.50397   0.56609   0.00000  Uiso   1.00
O176   O     0.48748   0.33171   0.39870   0.00000  Uiso   1.00
O177   O     0.05159   0.09488   0.46703   0.00000  Uiso   1.00
O178   O     0.65339   0.66969   0.58313   0.00000  Uiso   1.00
N179   N     0.56254   0.53006   0.41927   0.00000  Uiso   1.00
N180   N     0.25190   0.07390   0.46796   0.00000  Uiso   1.00
N181   N     0.68073   0.77094   0.55070   0.00000  Uiso   1.00
N182   N     0.36077   0.34428   0.42657   0.00000  Uiso   1.00
N183   N     0.05013   0.88813   0.47525   0.00000  Uiso   1.00
N184   N     0.47896   0.58516   0.55799   0.00000  Uiso   1.00
C185   C     0.19207   0.70825   0.14533   0.00000  Uiso   1.00
C186   C     0.31405   0.79372   0.13075   0.00000  Uiso   1.00
C187   C     0.31313   0.87447   0.11442   0.00000  Uiso   1.00
C188   C     0.43522   0.94473   0.10290   0.00000  Uiso   1.00
C189   C     0.60656   0.07894   0.07954   0.00000  Uiso   1.00
C190   C     0.16417   0.55821   0.14416   0.00000  Uiso   1.00
C191   C     0.03722   0.44096   0.13912   0.00000  Uiso   1.00
C192   C     0.03314   0.31297   0.13890   0.00000  Uiso   1.00
C193   C     0.97176   0.08154   0.13638   0.00000  Uiso   1.00
C194   C     0.24768   0.75991   0.16696   0.00000  Uiso   1.00
C195   C     0.19093   0.81222   0.18109   0.00000  Uiso   1.00
C196   C     0.25714   0.85402   0.20007   0.00000  Uiso   1.00
C197   C     0.32541   0.93577   0.23295   0.00000  Uiso   1.00
C198   C     0.41053   0.68943   0.15391   0.00000  Uiso   1.00
C199   C     0.43271   0.78349   0.13541   0.00000  Uiso   1.00
C200   C     0.55484   0.85365   0.12391   0.00000  Uiso   1.00
C201   C     0.55410   0.93450   0.10757   0.00000  Uiso   1.00
C202   C     0.28283   0.54799   0.14882   0.00000  Uiso   1.00
C203   C     0.27893   0.42014   0.14861   0.00000  Uiso   1.00
C204   C     0.15202   0.30273   0.14356   0.00000  Uiso   1.00
C205   C     0.36634   0.74970   0.17162   0.00000  Uiso   1.00
C206   C     0.43264   0.79141   0.19058   0.00000  Uiso   1.00
C207   C     0.37601   0.84378   0.20474   0.00000  Uiso   1.00
H208   H     0.09968   0.71620   0.14171   0.00000  Uiso   1.00
H209   H     0.22128   0.88234   0.11082   0.00000  Uiso   1.00
H210   H     0.94541   0.44890   0.13551   0.00000  Uiso   1.00
H211   H     0.09910   0.82011   0.17748   0.00000  Uiso   1.00
H212   H     0.40840   0.06200   0.07863   0.00000  Uiso   1.00
H213   H     0.82672   0.14805   0.13070   0.00000  Uiso   1.00
H214   H     0.15079   0.93082   0.21920   0.00000  Uiso   1.00
H215   H     0.50292   0.68147   0.15754   0.00000  Uiso   1.00
H216   H     0.64665   0.84572   0.12752   0.00000  Uiso   1.00
H217   H     0.37078   0.41227   0.15222   0.00000  Uiso   1.00
H218   H     0.52447   0.78349   0.19418   0.00000  Uiso   1.00
H219   H     0.75365   0.03227   0.09218   0.00000  Uiso   1.00
H220   H     0.17195   0.11832   0.14426   0.00000  Uiso   1.00
H221   H     0.49603   0.90110   0.23276   0.00000  Uiso   1.00
O222   O     0.66829   0.15577   0.06537   0.00000  Uiso   1.00
O223   O     0.90512   0.95671   0.13370   0.00000  Uiso   1.00
O224   O     0.33031   0.98369   0.24980   0.00000  Uiso   1.00
N225   N     0.46994   0.03248   0.08594   0.00000  Uiso   1.00
N226   N     0.92610   0.17800   0.13463   0.00000  Uiso   1.00
N227   N     0.22906   0.90979   0.21736   0.00000  Uiso   1.00
N228   N     0.65572   0.01649   0.09323   0.00000  Uiso   1.00
N229   N     0.11187   0.16201   0.14192   0.00000  Uiso   1.00
N230   N     0.41484   0.89380   0.22466   0.00000  Uiso   1.00
C231   C     0.29175   0.48382   0.81200   0.00000  Uiso   1.00
C232   C     0.20628   0.52034   0.79741   0.00000  Uiso   1.00
C233   C     0.12553   0.43866   0.78109   0.00000  Uiso   1.00
C234   C     0.05527   0.49049   0.76957   0.00000  Uiso   1.00
C235   C     0.92106   0.52763   0.74621   0.00000  Uiso   1.00
C236   C     0.44179   0.60596   0.81083   0.00000  Uiso   1.00
C237   C     0.55904   0.59627   0.80578   0.00000  Uiso   1.00
C238   C     0.68703   0.72017   0.80556   0.00000  Uiso   1.00
C239   C     0.91846   0.89022   0.80304   0.00000  Uiso   1.00
C240   C     0.24009   0.48777   0.83363   0.00000  Uiso   1.00
C241   C     0.18778   0.37871   0.84776   0.00000  Uiso   1.00
C242   C     0.14598   0.40311   0.86674   0.00000  Uiso   1.00
C243   C     0.06423   0.38965   0.89962   0.00000  Uiso   1.00
C244   C     0.31057   0.72110   0.82058   0.00000  Uiso   1.00
C245   C     0.21651   0.64922   0.80207   0.00000  Uiso   1.00
C246   C     0.14635   0.70119   0.79058   0.00000  Uiso   1.00
C247   C     0.06550   0.61960   0.77424   0.00000  Uiso   1.00
C248   C     0.45201   0.73484   0.81549   0.00000  Uiso   1.00
C249   C     0.57986   0.85879   0.81528   0.00000  Uiso   1.00
C250   C     0.69727   0.84929   0.81023   0.00000  Uiso   1.00
C251   C     0.25030   0.61665   0.83829   0.00000  Uiso   1.00
C252   C     0.20859   0.64123   0.85725   0.00000  Uiso   1.00
C253   C     0.15622   0.53223   0.87140   0.00000  Uiso   1.00
H254   H     0.28380   0.38348   0.80837   0.00000  Uiso   1.00
H255   H     0.11766   0.33893   0.77749   0.00000  Uiso   1.00
H256   H     0.55110   0.49651   0.80218   0.00000  Uiso   1.00
H257   H     0.17989   0.27899   0.84415   0.00000  Uiso   1.00
H258   H     0.93800   0.34641   0.74529   0.00000  Uiso   1.00
H259   H     0.85195   0.67866   0.79737   0.00000  Uiso   1.00
H260   H     0.06918   0.21996   0.88587   0.00000  Uiso   1.00
H261   H     0.31853   0.82144   0.82421   0.00000  Uiso   1.00
H262   H     0.15428   0.80093   0.79419   0.00000  Uiso   1.00
H263   H     0.58773   0.95850   0.81888   0.00000  Uiso   1.00
H264   H     0.21651   0.74098   0.86085   0.00000  Uiso   1.00
H265   H     0.96773   0.72138   0.75885   0.00000  Uiso   1.00
H266   H     0.88168   0.05363   0.81093   0.00000  Uiso   1.00
H267   H     0.09890   0.59494   0.89942   0.00000  Uiso   1.00
O268   O     0.84423   0.51252   0.73203   0.00000  Uiso   1.00
O269   O     0.04329   0.94841   0.80036   0.00000  Uiso   1.00
O270   O     0.01631   0.34661   0.91647   0.00000  Uiso   1.00
N271   N     0.96752   0.43746   0.75260   0.00000  Uiso   1.00
N272   N     0.82200   0.74810   0.80129   0.00000  Uiso   1.00
N273   N     0.09021   0.31927   0.88403   0.00000  Uiso   1.00
N274   N     0.98351   0.63923   0.75990   0.00000  Uiso   1.00
N275   N     0.83799   0.94987   0.80859   0.00000  Uiso   1.00
N276   N     0.10620   0.52104   0.89132   0.00000  Uiso   1.00
C277   C     0.19207   0.48382   0.68800   0.00000  Uiso   1.00
C278   C     0.31405   0.52034   0.70259   0.00000  Uiso   1.00
C279   C     0.31313   0.43866   0.71891   0.00000  Uiso   1.00
C280   C     0.43522   0.49049   0.73043   0.00000  Uiso   1.00
C281   C     0.60656   0.52763   0.75379   0.00000  Uiso   1.00
C282   C     0.16417   0.60596   0.68917   0.00000  Uiso   1.00
C283   C     0.03722   0.59627   0.69422   0.00000  Uiso   1.00
C284   C     0.03314   0.72017   0.69444   0.00000  Uiso   1.00
C285   C     0.97176   0.89022   0.69696   0.00000  Uiso   1.00
C286   C     0.24768   0.48777   0.66637   0.00000  Uiso   1.00
C287   C     0.19093   0.37871   0.65224   0.00000  Uiso   1.00
C288   C     0.25714   0.40311   0.63326   0.00000  Uiso   1.00
C289   C     0.32541   0.38965   0.60038   0.00000  Uiso   1.00
C290   C     0.41053   0.72110   0.67942   0.00000  Uiso   1.00
C291   C     0.43271   0.64922   0.69793   0.00000  Uiso   1.00
C292   C     0.55484   0.70119   0.70942   0.00000  Uiso   1.00
C293   C     0.55410   0.61960   0.72576   0.00000  Uiso   1.00
C294   C     0.28283   0.73484   0.68451   0.00000  Uiso   1.00
C295   C     0.27893   0.85879   0.68472   0.00000  Uiso   1.00
C296   C     0.15202   0.84929   0.68977   0.00000  Uiso   1.00
C297   C     0.36634   0.61665   0.66171   0.00000  Uiso   1.00
C298   C     0.43264   0.64123   0.64275   0.00000  Uiso   1.00
C299   C     0.37601   0.53223   0.62860   0.00000  Uiso   1.00
H300   H     0.09968   0.38348   0.69163   0.00000  Uiso   1.00
H301   H     0.22128   0.33893   0.72251   0.00000  Uiso   1.00
H302   H     0.94541   0.49651   0.69782   0.00000  Uiso   1.00
H303   H     0.09910   0.27899   0.65585   0.00000  Uiso   1.00
H304   H     0.40840   0.34641   0.75471   0.00000  Uiso   1.00
H305   H     0.82672   0.67866   0.70263   0.00000  Uiso   1.00
H306   H     0.15079   0.21996   0.61413   0.00000  Uiso   1.00
H307   H     0.50292   0.82144   0.67579   0.00000  Uiso   1.00
H308   H     0.64665   0.80093   0.70581   0.00000  Uiso   1.00
H309   H     0.37078   0.95850   0.68112   0.00000  Uiso   1.00
H310   H     0.52447   0.74098   0.63915   0.00000  Uiso   1.00
H311   H     0.75365   0.72138   0.74115   0.00000  Uiso   1.00
H312   H     0.17195   0.05363   0.68907   0.00000  Uiso   1.00
H313   H     0.49603   0.59494   0.60058   0.00000  Uiso   1.00
O314   O     0.66829   0.51252   0.76797   0.00000  Uiso   1.00
O315   O     0.90512   0.94841   0.69964   0.00000  Uiso   1.00
O316   O     0.33031   0.34661   0.58353   0.00000  Uiso   1.00
N317   N     0.46994   0.43746   0.74740   0.00000  Uiso   1.00
N318   N     0.92610   0.74810   0.69871   0.00000  Uiso   1.00
N319   N     0.22906   0.31927   0.61597   0.00000  Uiso   1.00
N320   N     0.65572   0.63923   0.74010   0.00000  Uiso   1.00
N321   N     0.11187   0.94987   0.69141   0.00000  Uiso   1.00
N322   N     0.41484   0.52104   0.60868   0.00000  Uiso   1.00
C323   C     0.29175   0.80793   0.02133   0.00000  Uiso   1.00
C324   C     0.20628   0.68595   0.03592   0.00000  Uiso   1.00
C325   C     0.12553   0.68687   0.05225   0.00000  Uiso   1.00
C326   C     0.05527   0.56478   0.06376   0.00000  Uiso   1.00
C327   C     0.92106   0.39344   0.08713   0.00000  Uiso   1.00
C328   C     0.44179   0.83583   0.02250   0.00000  Uiso   1.00
C329   C     0.55904   0.96278   0.02755   0.00000  Uiso   1.00
C330   C     0.68703   0.96686   0.02777   0.00000  Uiso   1.00
C331   C     0.91846   0.02824   0.03029   0.00000  Uiso   1.00
C332   C     0.24009   0.75232   0.99970   0.00000  Uiso   1.00
C333   C     0.18778   0.80907   0.98557   0.00000  Uiso   1.00
C334   C     0.14598   0.74286   0.96660   0.00000  Uiso   1.00
C335   C     0.06423   0.67459   0.93372   0.00000  Uiso   1.00
C336   C     0.31057   0.58947   0.01276   0.00000  Uiso   1.00
C337   C     0.21651   0.56729   0.03126   0.00000  Uiso   1.00
C338   C     0.14635   0.44516   0.04276   0.00000  Uiso   1.00
C339   C     0.06550   0.44590   0.05910   0.00000  Uiso   1.00
C340   C     0.45201   0.71717   0.01784   0.00000  Uiso   1.00
C341   C     0.57986   0.72107   0.01806   0.00000  Uiso   1.00
C342   C     0.69727   0.84798   0.02310   0.00000  Uiso   1.00
C343   C     0.25030   0.63366   0.99504   0.00000  Uiso   1.00
C344   C     0.20859   0.56736   0.97608   0.00000  Uiso   1.00
C345   C     0.15622   0.62399   0.96193   0.00000  Uiso   1.00
H346   H     0.28380   0.90032   0.02496   0.00000  Uiso   1.00
H347   H     0.11766   0.77872   0.05585   0.00000  Uiso   1.00
H348   H     0.55110   0.05459   0.03115   0.00000  Uiso   1.00
H349   H     0.17989   0.90090   0.98919   0.00000  Uiso   1.00
H350   H     0.93800   0.59160   0.08804   0.00000  Uiso   1.00
H351   H     0.85195   0.17328   0.03596   0.00000  Uiso   1.00
H352   H     0.06918   0.84921   0.94747   0.00000  Uiso   1.00
H353   H     0.31853   0.49708   0.00913   0.00000  Uiso   1.00
H354   H     0.15428   0.35335   0.03915   0.00000  Uiso   1.00
H355   H     0.58773   0.62922   0.01445   0.00000  Uiso   1.00
H356   H     0.21651   0.47553   0.97248   0.00000  Uiso   1.00
H357   H     0.96773   0.24635   0.07449   0.00000  Uiso   1.00
H358   H     0.88168   0.82805   0.02241   0.00000  Uiso   1.00
H359   H     0.09890   0.50397   0.93391   0.00000  Uiso   1.00
O360   O     0.84423   0.33171   0.10130   0.00000  Uiso   1.00
O361   O     0.04329   0.09488   0.03297   0.00000  Uiso   1.00
O362   O     0.01631   0.66969   0.91687   0.00000  Uiso   1.00
N363   N     0.96752   0.53006   0.08073   0.00000  Uiso   1.00
N364   N     0.82200   0.07390   0.03204   0.00000  Uiso   1.00
N365   N     0.09021   0.77094   0.94930   0.00000  Uiso   1.00
N366   N     0.98351   0.34428   0.07343   0.00000  Uiso   1.00
N367   N     0.83799   0.88813   0.02475   0.00000  Uiso   1.00
N368   N     0.10620   0.58516   0.94201   0.00000  Uiso   1.00
C369   C     0.51618   0.70825   0.35467   0.00000  Uiso   1.00
C370   C     0.47966   0.79372   0.36925   0.00000  Uiso   1.00
C371   C     0.56134   0.87447   0.38558   0.00000  Uiso   1.00
C372   C     0.50951   0.94473   0.39710   0.00000  Uiso   1.00
C373   C     0.47237   0.07894   0.42046   0.00000  Uiso   1.00
C374   C     0.39404   0.55821   0.35584   0.00000  Uiso   1.00
C375   C     0.40373   0.44096   0.36088   0.00000  Uiso   1.00
C376   C     0.27983   0.31297   0.36110   0.00000  Uiso   1.00
C377   C     0.10978   0.08154   0.36362   0.00000  Uiso   1.00
C378   C     0.51223   0.75991   0.33304   0.00000  Uiso   1.00
C379   C     0.62129   0.81222   0.31891   0.00000  Uiso   1.00
C380   C     0.59689   0.85402   0.29993   0.00000  Uiso   1.00
C381   C     0.61035   0.93577   0.26705   0.00000  Uiso   1.00
C382   C     0.27890   0.68943   0.34609   0.00000  Uiso   1.00
C383   C     0.35078   0.78349   0.36459   0.00000  Uiso   1.00
C384   C     0.29881   0.85365   0.37609   0.00000  Uiso   1.00
C385   C     0.38040   0.93450   0.39243   0.00000  Uiso   1.00
C386   C     0.26516   0.54799   0.35118   0.00000  Uiso   1.00
C387   C     0.14121   0.42014   0.35139   0.00000  Uiso   1.00
C388   C     0.15071   0.30273   0.35644   0.00000  Uiso   1.00
C389   C     0.38335   0.74970   0.32838   0.00000  Uiso   1.00
C390   C     0.35877   0.79141   0.30942   0.00000  Uiso   1.00
C391   C     0.46777   0.84378   0.29526   0.00000  Uiso   1.00
H392   H     0.61652   0.71620   0.35829   0.00000  Uiso   1.00
H393   H     0.66107   0.88234   0.38918   0.00000  Uiso   1.00
H394   H     0.50349   0.44890   0.36449   0.00000  Uiso   1.00
H395   H     0.72101   0.82011   0.32252   0.00000  Uiso   1.00
H396   H     0.65359   0.06200   0.42137   0.00000  Uiso   1.00
H397   H     0.32134   0.14805   0.36930   0.00000  Uiso   1.00
H398   H     0.78004   0.93082   0.28080   0.00000  Uiso   1.00
H399   H     0.17856   0.68147   0.34246   0.00000  Uiso   1.00
H400   H     0.19907   0.84572   0.37248   0.00000  Uiso   1.00
H401   H     0.04150   0.41227   0.34778   0.00000  Uiso   1.00
H402   H     0.25902   0.78349   0.30582   0.00000  Uiso   1.00
H403   H     0.27862   0.03227   0.40782   0.00000  Uiso   1.00
H404   H     0.94637   0.11832   0.35574   0.00000  Uiso   1.00
H405   H     0.40506   0.90110   0.26724   0.00000  Uiso   1.00
O406   O     0.48748   0.15577   0.43463   0.00000  Uiso   1.00
O407   O     0.05159   0.95671   0.36630   0.00000  Uiso   1.00
O408   O     0.65339   0.98369   0.25020   0.00000  Uiso   1.00
N409   N     0.56254   0.03248   0.41406   0.00000  Uiso   1.00
N410   N     0.25190   0.17800   0.36537   0.00000  Uiso   1.00
N411   N     0.68073   0.90979   0.28264   0.00000  Uiso   1.00
N412   N     0.36077   0.01649   0.40677   0.00000  Uiso   1.00
N413   N     0.05013   0.16201   0.35808   0.00000  Uiso   1.00
N414   N     0.47896   0.89380   0.27534   0.00000  Uiso   1.00
C415   C     0.80793   0.51618   0.18800   0.00000  Uiso   1.00
C416   C     0.68595   0.47966   0.20259   0.00000  Uiso   1.00
C417   C     0.68687   0.56134   0.21891   0.00000  Uiso   1.00
C418   C     0.56478   0.50951   0.23043   0.00000  Uiso   1.00
C419   C     0.39344   0.47237   0.25379   0.00000  Uiso   1.00
C420   C     0.83583   0.39404   0.18917   0.00000  Uiso   1.00
C421   C     0.96278   0.40373   0.19422   0.00000  Uiso   1.00
C422   C     0.96686   0.27983   0.19444   0.00000  Uiso   1.00
C423   C     0.02824   0.10978   0.19696   0.00000  Uiso   1.00
C424   C     0.75232   0.51223   0.16637   0.00000  Uiso   1.00
C425   C     0.80907   0.62129   0.15224   0.00000  Uiso   1.00
C426   C     0.74286   0.59689   0.13326   0.00000  Uiso   1.00
C427   C     0.67459   0.61035   0.10038   0.00000  Uiso   1.00
C428   C     0.58947   0.27890   0.17942   0.00000  Uiso   1.00
C429   C     0.56729   0.35078   0.19793   0.00000  Uiso   1.00
C430   C     0.44516   0.29881   0.20942   0.00000  Uiso   1.00
C431   C     0.44590   0.38040   0.22576   0.00000  Uiso   1.00
C432   C     0.71717   0.26516   0.18451   0.00000  Uiso   1.00
C433   C     0.72107   0.14121   0.18472   0.00000  Uiso   1.00
C434   C     0.84798   0.15071   0.18977   0.00000  Uiso   1.00
C435   C     0.63366   0.38335   0.16171   0.00000  Uiso   1.00
C436   C     0.56736   0.35877   0.14275   0.00000  Uiso   1.00
C437   C     0.62399   0.46777   0.12860   0.00000  Uiso   1.00
H438   H     0.90032   0.61652   0.19163   0.00000  Uiso   1.00
H439   H     0.77872   0.66107   0.22251   0.00000  Uiso   1.00
H440   H     0.05459   0.50349   0.19782   0.00000  Uiso   1.00
H441   H     0.90090   0.72101   0.15585   0.00000  Uiso   1.00
H442   H     0.59160   0.65359   0.25471   0.00000  Uiso   1.00
H443   H     0.17328   0.32134   0.20263   0.00000  Uiso   1.00
H444   H     0.84921   0.78004   0.11413   0.00000  Uiso   1.00
H445   H     0.49708   0.17856   0.17579   0.00000  Uiso   1.00
H446   H     0.35335   0.19907   0.20581   0.00000  Uiso   1.00
H447   H     0.62922   0.04150   0.18112   0.00000  Uiso   1.00
H448   H     0.47553   0.25902   0.13915   0.00000  Uiso   1.00
H449   H     0.24635   0.27862   0.24115   0.00000  Uiso   1.00
H450   H     0.82805   0.94637   0.18907   0.00000  Uiso   1.00
H451   H     0.50397   0.40506   0.10058   0.00000  Uiso   1.00
O452   O     0.33171   0.48748   0.26797   0.00000  Uiso   1.00
O453   O     0.09488   0.05159   0.19964   0.00000  Uiso   1.00
O454   O     0.66969   0.65339   0.08353   0.00000  Uiso   1.00
N455   N     0.53006   0.56254   0.24740   0.00000  Uiso   1.00
N456   N     0.07390   0.25190   0.19871   0.00000  Uiso   1.00
N457   N     0.77094   0.68073   0.11597   0.00000  Uiso   1.00
N458   N     0.34428   0.36077   0.24010   0.00000  Uiso   1.00
N459   N     0.88813   0.05013   0.19141   0.00000  Uiso   1.00
N460   N     0.58516   0.47896   0.10868   0.00000  Uiso   1.00
C461   C     0.70825   0.19207   0.52133   0.00000  Uiso   1.00
C462   C     0.79372   0.31405   0.53592   0.00000  Uiso   1.00
C463   C     0.87447   0.31313   0.55225   0.00000  Uiso   1.00
C464   C     0.94473   0.43522   0.56376   0.00000  Uiso   1.00
C465   C     0.07894   0.60656   0.58713   0.00000  Uiso   1.00
C466   C     0.55821   0.16417   0.52250   0.00000  Uiso   1.00
C467   C     0.44096   0.03722   0.52755   0.00000  Uiso   1.00
C468   C     0.31297   0.03314   0.52777   0.00000  Uiso   1.00
C469   C     0.08154   0.97176   0.53029   0.00000  Uiso   1.00
C470   C     0.75991   0.24768   0.49970   0.00000  Uiso   1.00
C471   C     0.81222   0.19093   0.48557   0.00000  Uiso   1.00
C472   C     0.85402   0.25714   0.46660   0.00000  Uiso   1.00
C473   C     0.93577   0.32541   0.43372   0.00000  Uiso   1.00
C474   C     0.68943   0.41053   0.51276   0.00000  Uiso   1.00
C475   C     0.78349   0.43271   0.53126   0.00000  Uiso   1.00
C476   C     0.85365   0.55484   0.54276   0.00000  Uiso   1.00
C477   C     0.93450   0.55410   0.55910   0.00000  Uiso   1.00
C478   C     0.54799   0.28283   0.51784   0.00000  Uiso   1.00
C479   C     0.42014   0.27893   0.51806   0.00000  Uiso   1.00
C480   C     0.30273   0.15202   0.52310   0.00000  Uiso   1.00
C481   C     0.74970   0.36634   0.49504   0.00000  Uiso   1.00
C482   C     0.79141   0.43264   0.47608   0.00000  Uiso   1.00
C483   C     0.84378   0.37601   0.46193   0.00000  Uiso   1.00
H484   H     0.71620   0.09968   0.52496   0.00000  Uiso   1.00
H485   H     0.88234   0.22128   0.55585   0.00000  Uiso   1.00
H486   H     0.44890   0.94541   0.53115   0.00000  Uiso   1.00
H487   H     0.82011   0.09910   0.48919   0.00000  Uiso   1.00
H488   H     0.06200   0.40840   0.58804   0.00000  Uiso   1.00
H489   H     0.14805   0.82672   0.53596   0.00000  Uiso   1.00
H490   H     0.93082   0.15079   0.44747   0.00000  Uiso   1.00
H491   H     0.68147   0.50292   0.50913   0.00000  Uiso   1.00
H492   H     0.84572   0.64665   0.53915   0.00000  Uiso   1.00
H493   H     0.41227   0.37078   0.51445   0.00000  Uiso   1.00
H494   H     0.78349   0.52447   0.47248   0.00000  Uiso   1.00
H495   H     0.03227   0.75365   0.57449   0.00000  Uiso   1.00
H496   H     0.11832   0.17195   0.52241   0.00000  Uiso   1.00
H497   H     0.90110   0.49603   0.43391   0.00000  Uiso   1.00
O498   O     0.15577   0.66829   0.60130   0.00000  Uiso   1.00
O499   O     0.95671   0.90512   0.53297   0.00000  Uiso   1.00
O500   O     0.98369   0.33031   0.41687   0.00000  Uiso   1.00
N501   N     0.03248   0.46994   0.58073   0.00000  Uiso   1.00
N502   N     0.17800   0.92610   0.53204   0.00000  Uiso   1.00
N503   N     0.90979   0.22906   0.44930   0.00000  Uiso   1.00
N504   N     0.01649   0.65572   0.57343   0.00000  Uiso   1.00
N505   N     0.16201   0.11187   0.52475   0.00000  Uiso   1.00
N506   N     0.89380   0.41484   0.44201   0.00000  Uiso   1.00
C507   C     0.48382   0.29175   0.85467   0.00000  Uiso   1.00
C508   C     0.52034   0.20628   0.86925   0.00000  Uiso   1.00
C509   C     0.43866   0.12553   0.88558   0.00000  Uiso   1.00
C510   C     0.49049   0.05527   0.89710   0.00000  Uiso   1.00
C511   C     0.52763   0.92106   0.92046   0.00000  Uiso   1.00
C512   C     0.60596   0.44179   0.85584   0.00000  Uiso   1.00
C513   C     0.59627   0.55904   0.86088   0.00000  Uiso   1.00
C514   C     0.72017   0.68703   0.86110   0.00000  Uiso   1.00
C515   C     0.89022   0.91846   0.86362   0.00000  Uiso   1.00
C516   C     0.48777   0.24009   0.83304   0.00000  Uiso   1.00
C517   C     0.37871   0.18778   0.81891   0.00000  Uiso   1.00
C518   C     0.40311   0.14598   0.79993   0.00000  Uiso   1.00
C519   C     0.38965   0.06423   0.76705   0.00000  Uiso   1.00
C520   C     0.72110   0.31057   0.84609   0.00000  Uiso   1.00
C521   C     0.64922   0.21651   0.86459   0.00000  Uiso   1.00
C522   C     0.70119   0.14635   0.87609   0.00000  Uiso   1.00
C523   C     0.61960   0.06550   0.89243   0.00000  Uiso   1.00
C524   C     0.73484   0.45201   0.85118   0.00000  Uiso   1.00
C525   C     0.85879   0.57986   0.85139   0.00000  Uiso   1.00
C526   C     0.84929   0.69727   0.85644   0.00000  Uiso   1.00
C527   C     0.61665   0.25030   0.82838   0.00000  Uiso   1.00
C528   C     0.64123   0.20859   0.80942   0.00000  Uiso   1.00
C529   C     0.53223   0.15622   0.79526   0.00000  Uiso   1.00
H530   H     0.38348   0.28380   0.85829   0.00000  Uiso   1.00
H531   H     0.33893   0.11766   0.88918   0.00000  Uiso   1.00
H532   H     0.49651   0.55110   0.86449   0.00000  Uiso   1.00
H533   H     0.27899   0.17989   0.82252   0.00000  Uiso   1.00
H534   H     0.34641   0.93800   0.92137   0.00000  Uiso   1.00
H535   H     0.67866   0.85195   0.86930   0.00000  Uiso   1.00
H536   H     0.21996   0.06918   0.78080   0.00000  Uiso   1.00
H537   H     0.82144   0.31853   0.84246   0.00000  Uiso   1.00
H538   H     0.80093   0.15428   0.87248   0.00000  Uiso   1.00
H539   H     0.95850   0.58773   0.84778   0.00000  Uiso   1.00
H540   H     0.74098   0.21651   0.80582   0.00000  Uiso   1.00
H541   H     0.72138   0.96773   0.90782   0.00000  Uiso   1.00
H542   H     0.05363   0.88168   0.85574   0.00000  Uiso   1.00
H543   H     0.59494   0.09890   0.76724   0.00000  Uiso   1.00
O544   O     0.51252   0.84423   0.93463   0.00000  Uiso   1.00
O545   O     0.94841   0.04329   0.86630   0.00000  Uiso   1.00
O546   O     0.34661   0.01631   0.75020   0.00000  Uiso   1.00
N547   N     0.43746   0.96752   0.91406   0.00000  Uiso   1.00
N548   N     0.74810   0.82200   0.86537   0.00000  Uiso   1.00
N549   N     0.31927   0.09021   0.78264   0.00000  Uiso   1.00
N550   N     0.63923   0.98351   0.90677   0.00000  Uiso   1.00
N551   N     0.94987   0.83799   0.85808   0.00000  Uiso   1.00
N552   N     0.52104   0.10620   0.77534   0.00000  Uiso   1.00
