data_job_03479
_audit_creation_date              2018-12-19
_audit_creation_method            'Materials Studio'
_symmetry_space_group_name_H-M    'P1'
_symmetry_Int_Tables_number       1
_symmetry_cell_setting            triclinic
loop_
_symmetry_equiv_pos_as_xyz
  x,y,z
_cell_length_a                    16.8063
_cell_length_b                    15.4728
_cell_length_c                    23.1296
_cell_angle_alpha                 90.0000
_cell_angle_beta                  91.6343
_cell_angle_gamma                 90.0000
loop_
_atom_site_label
_atom_site_type_symbol
_atom_site_fract_x
_atom_site_fract_y
_atom_site_fract_z
_atom_site_U_iso_or_equiv
_atom_site_adp_type
_atom_site_occupancy
C1     C     0.92392   0.65417   0.67171   0.00000  Uiso   1.00
C2     C     0.91605   0.70625   0.61587   0.00000  Uiso   1.00
C3     C     0.94969   0.78670   0.60624   0.00000  Uiso   1.00
C4     C     0.93550   0.82369   0.55224   0.00000  Uiso   1.00
C5     C     0.93027   0.91098   0.47206   0.00000  Uiso   1.00
C6     C     0.83919   0.63644   0.69042   0.00000  Uiso   1.00
C7     C     0.80822   0.65817   0.74347   0.00000  Uiso   1.00
C8     C     0.72933   0.63637   0.75222   0.00000  Uiso   1.00
C9     C     0.60479   0.61521   0.78778   0.00000  Uiso   1.00
C10    C     0.95824   0.56679   0.65486   0.00000  Uiso   1.00
C11    C     0.02737   0.52996   0.67802   0.00000  Uiso   1.00
C12    C     0.04871   0.44951   0.65684   0.00000  Uiso   1.00
C13    C     0.10902   0.32023   0.63719   0.00000  Uiso   1.00
C14    C     0.83889   0.57680   0.59292   0.00000  Uiso   1.00
C15    C     0.86986   0.66423   0.57308   0.00000  Uiso   1.00
C16    C     0.85562   0.70110   0.51907   0.00000  Uiso   1.00
C17    C     0.88924   0.78159   0.50937   0.00000  Uiso   1.00
C18    C     0.79300   0.59442   0.64762   0.00000  Uiso   1.00
C19    C     0.71414   0.57258   0.65630   0.00000  Uiso   1.00
C20    C     0.68306   0.59428   0.70935   0.00000  Uiso   1.00
C21    C     0.91206   0.52477   0.61206   0.00000  Uiso   1.00
C22    C     0.93329   0.44437   0.59084   0.00000  Uiso   1.00
C23    C     0.00244   0.40742   0.61397   0.00000  Uiso   1.00
H24    H     0.95987   0.68688   0.70503   0.00000  Uiso   1.00
H25    H     0.98543   0.81920   0.63938   0.00000  Uiso   1.00
H26    H     0.84398   0.69068   0.77658   0.00000  Uiso   1.00
H27    H     0.06309   0.56250   0.71114   0.00000  Uiso   1.00
H28    H     0.99337   0.94739   0.54772   0.00000  Uiso   1.00
H29    H     0.69512   0.67637   0.83703   0.00000  Uiso   1.00
H30    H     0.15717   0.40606   0.69903   0.00000  Uiso   1.00
H31    H     0.80293   0.54408   0.55960   0.00000  Uiso   1.00
H32    H     0.81987   0.66857   0.48597   0.00000  Uiso   1.00
H33    H     0.67842   0.54005   0.62317   0.00000  Uiso   1.00
H34    H     0.89754   0.41186   0.55773   0.00000  Uiso   1.00
H35    H     0.85899   0.82513   0.42321   0.00000  Uiso   1.00
H36    H     0.56075   0.55411   0.71252   0.00000  Uiso   1.00
H37    H     0.02280   0.28380   0.57452   0.00000  Uiso   1.00
O38    O     0.94014   0.97074   0.43965   0.00000  Uiso   1.00
O39    O     0.54886   0.61516   0.81922   0.00000  Uiso   1.00
O40    O     0.15505   0.26053   0.63817   0.00000  Uiso   1.00
N41    N     0.95943   0.90152   0.52852   0.00000  Uiso   1.00
N42    N     0.68058   0.64815   0.79900   0.00000  Uiso   1.00
N43    N     0.11255   0.39542   0.67000   0.00000  Uiso   1.00
N44    N     0.88713   0.83574   0.46152   0.00000  Uiso   1.00
N45    N     0.60828   0.58237   0.73200   0.00000  Uiso   1.00
N46    N     0.04025   0.32964   0.60300   0.00000  Uiso   1.00
C47    C     0.42392   0.15417   0.67171   0.00000  Uiso   1.00
C48    C     0.41605   0.20625   0.61587   0.00000  Uiso   1.00
C49    C     0.44969   0.28670   0.60624   0.00000  Uiso   1.00
C50    C     0.43550   0.32369   0.55224   0.00000  Uiso   1.00
C51    C     0.43027   0.41098   0.47206   0.00000  Uiso   1.00
C52    C     0.33919   0.13644   0.69042   0.00000  Uiso   1.00
C53    C     0.30822   0.15817   0.74347   0.00000  Uiso   1.00
C54    C     0.22933   0.13637   0.75222   0.00000  Uiso   1.00
C55    C     0.10479   0.11521   0.78778   0.00000  Uiso   1.00
C56    C     0.45824   0.06679   0.65486   0.00000  Uiso   1.00
C57    C     0.52737   0.02996   0.67802   0.00000  Uiso   1.00
C58    C     0.54871   0.94951   0.65684   0.00000  Uiso   1.00
C59    C     0.60902   0.82023   0.63719   0.00000  Uiso   1.00
C60    C     0.33889   0.07680   0.59292   0.00000  Uiso   1.00
C61    C     0.36986   0.16423   0.57308   0.00000  Uiso   1.00
C62    C     0.35562   0.20110   0.51907   0.00000  Uiso   1.00
C63    C     0.38924   0.28159   0.50937   0.00000  Uiso   1.00
C64    C     0.29300   0.09442   0.64762   0.00000  Uiso   1.00
C65    C     0.21414   0.07258   0.65630   0.00000  Uiso   1.00
C66    C     0.18306   0.09428   0.70935   0.00000  Uiso   1.00
C67    C     0.41206   0.02477   0.61206   0.00000  Uiso   1.00
C68    C     0.43329   0.94437   0.59084   0.00000  Uiso   1.00
C69    C     0.50244   0.90742   0.61397   0.00000  Uiso   1.00
H70    H     0.45987   0.18688   0.70503   0.00000  Uiso   1.00
H71    H     0.48543   0.31920   0.63938   0.00000  Uiso   1.00
H72    H     0.34398   0.19068   0.77658   0.00000  Uiso   1.00
H73    H     0.56309   0.06250   0.71114   0.00000  Uiso   1.00
H74    H     0.49337   0.44739   0.54772   0.00000  Uiso   1.00
H75    H     0.19512   0.17637   0.83703   0.00000  Uiso   1.00
H76    H     0.65717   0.90606   0.69903   0.00000  Uiso   1.00
H77    H     0.30293   0.04408   0.55960   0.00000  Uiso   1.00
H78    H     0.31987   0.16857   0.48597   0.00000  Uiso   1.00
H79    H     0.17842   0.04005   0.62317   0.00000  Uiso   1.00
H80    H     0.39754   0.91186   0.55773   0.00000  Uiso   1.00
H81    H     0.35899   0.32513   0.42321   0.00000  Uiso   1.00
H82    H     0.06075   0.05411   0.71252   0.00000  Uiso   1.00
H83    H     0.52280   0.78380   0.57452   0.00000  Uiso   1.00
O84    O     0.44014   0.47074   0.43965   0.00000  Uiso   1.00
O85    O     0.04886   0.11516   0.81922   0.00000  Uiso   1.00
O86    O     0.65505   0.76053   0.63817   0.00000  Uiso   1.00
N87    N     0.45943   0.40152   0.52852   0.00000  Uiso   1.00
N88    N     0.18058   0.14815   0.79900   0.00000  Uiso   1.00
N89    N     0.61255   0.89542   0.67000   0.00000  Uiso   1.00
N90    N     0.38713   0.33574   0.46152   0.00000  Uiso   1.00
N91    N     0.10828   0.08237   0.73200   0.00000  Uiso   1.00
N92    N     0.54025   0.82964   0.60300   0.00000  Uiso   1.00
C93    C     0.07608   0.65417   0.82829   0.00000  Uiso   1.00
C94    C     0.08395   0.70625   0.88413   0.00000  Uiso   1.00
C95    C     0.05031   0.78670   0.89376   0.00000  Uiso   1.00
C96    C     0.06450   0.82369   0.94776   0.00000  Uiso   1.00
C97    C     0.06973   0.91098   0.02794   0.00000  Uiso   1.00
C98    C     0.16081   0.63644   0.80958   0.00000  Uiso   1.00
C99    C     0.19178   0.65817   0.75653   0.00000  Uiso   1.00
C100   C     0.27067   0.63637   0.74778   0.00000  Uiso   1.00
C101   C     0.39521   0.61521   0.71222   0.00000  Uiso   1.00
C102   C     0.04176   0.56679   0.84514   0.00000  Uiso   1.00
C103   C     0.97263   0.52996   0.82198   0.00000  Uiso   1.00
C104   C     0.95129   0.44951   0.84316   0.00000  Uiso   1.00
C105   C     0.89098   0.32023   0.86281   0.00000  Uiso   1.00
C106   C     0.16111   0.57680   0.90708   0.00000  Uiso   1.00
C107   C     0.13014   0.66423   0.92692   0.00000  Uiso   1.00
C108   C     0.14438   0.70110   0.98093   0.00000  Uiso   1.00
C109   C     0.11076   0.78159   0.99063   0.00000  Uiso   1.00
C110   C     0.20700   0.59442   0.85238   0.00000  Uiso   1.00
C111   C     0.28586   0.57258   0.84370   0.00000  Uiso   1.00
C112   C     0.31694   0.59428   0.79065   0.00000  Uiso   1.00
C113   C     0.08794   0.52477   0.88794   0.00000  Uiso   1.00
C114   C     0.06671   0.44437   0.90916   0.00000  Uiso   1.00
C115   C     0.99756   0.40742   0.88603   0.00000  Uiso   1.00
H116   H     0.04013   0.68688   0.79497   0.00000  Uiso   1.00
H117   H     0.01457   0.81920   0.86062   0.00000  Uiso   1.00
H118   H     0.15602   0.69068   0.72342   0.00000  Uiso   1.00
H119   H     0.93691   0.56250   0.78886   0.00000  Uiso   1.00
H120   H     0.00663   0.94739   0.95228   0.00000  Uiso   1.00
H121   H     0.30488   0.67637   0.66297   0.00000  Uiso   1.00
H122   H     0.84283   0.40606   0.80097   0.00000  Uiso   1.00
H123   H     0.19707   0.54408   0.94040   0.00000  Uiso   1.00
H124   H     0.18013   0.66857   0.01403   0.00000  Uiso   1.00
H125   H     0.32158   0.54005   0.87683   0.00000  Uiso   1.00
H126   H     0.10246   0.41186   0.94227   0.00000  Uiso   1.00
H127   H     0.14101   0.82513   0.07679   0.00000  Uiso   1.00
H128   H     0.43925   0.55411   0.78748   0.00000  Uiso   1.00
H129   H     0.97720   0.28380   0.92548   0.00000  Uiso   1.00
O130   O     0.05986   0.97074   0.06035   0.00000  Uiso   1.00
O131   O     0.45114   0.61516   0.68078   0.00000  Uiso   1.00
O132   O     0.84495   0.26053   0.86183   0.00000  Uiso   1.00
N133   N     0.04057   0.90152   0.97148   0.00000  Uiso   1.00
N134   N     0.31942   0.64815   0.70100   0.00000  Uiso   1.00
N135   N     0.88745   0.39542   0.83000   0.00000  Uiso   1.00
N136   N     0.11287   0.83574   0.03848   0.00000  Uiso   1.00
N137   N     0.39172   0.58237   0.76800   0.00000  Uiso   1.00
N138   N     0.95975   0.32964   0.89700   0.00000  Uiso   1.00
C139   C     0.57608   0.15417   0.82829   0.00000  Uiso   1.00
C140   C     0.58395   0.20625   0.88413   0.00000  Uiso   1.00
C141   C     0.55031   0.28670   0.89376   0.00000  Uiso   1.00
C142   C     0.56450   0.32369   0.94776   0.00000  Uiso   1.00
C143   C     0.56973   0.41098   0.02794   0.00000  Uiso   1.00
C144   C     0.66081   0.13644   0.80958   0.00000  Uiso   1.00
C145   C     0.69178   0.15817   0.75653   0.00000  Uiso   1.00
C146   C     0.77067   0.13637   0.74778   0.00000  Uiso   1.00
C147   C     0.89521   0.11521   0.71222   0.00000  Uiso   1.00
C148   C     0.54176   0.06679   0.84514   0.00000  Uiso   1.00
C149   C     0.47263   0.02996   0.82198   0.00000  Uiso   1.00
C150   C     0.45129   0.94951   0.84316   0.00000  Uiso   1.00
C151   C     0.39098   0.82023   0.86281   0.00000  Uiso   1.00
C152   C     0.66111   0.07680   0.90708   0.00000  Uiso   1.00
C153   C     0.63014   0.16423   0.92692   0.00000  Uiso   1.00
C154   C     0.64438   0.20110   0.98093   0.00000  Uiso   1.00
C155   C     0.61076   0.28159   0.99063   0.00000  Uiso   1.00
C156   C     0.70700   0.09442   0.85238   0.00000  Uiso   1.00
C157   C     0.78586   0.07258   0.84370   0.00000  Uiso   1.00
C158   C     0.81694   0.09428   0.79065   0.00000  Uiso   1.00
C159   C     0.58794   0.02477   0.88794   0.00000  Uiso   1.00
C160   C     0.56671   0.94437   0.90916   0.00000  Uiso   1.00
C161   C     0.49756   0.90742   0.88603   0.00000  Uiso   1.00
H162   H     0.54013   0.18688   0.79497   0.00000  Uiso   1.00
H163   H     0.51457   0.31920   0.86062   0.00000  Uiso   1.00
H164   H     0.65602   0.19068   0.72342   0.00000  Uiso   1.00
H165   H     0.43691   0.06250   0.78886   0.00000  Uiso   1.00
H166   H     0.50663   0.44739   0.95228   0.00000  Uiso   1.00
H167   H     0.80488   0.17637   0.66297   0.00000  Uiso   1.00
H168   H     0.34283   0.90606   0.80097   0.00000  Uiso   1.00
H169   H     0.69707   0.04408   0.94040   0.00000  Uiso   1.00
H170   H     0.68013   0.16857   0.01403   0.00000  Uiso   1.00
H171   H     0.82158   0.04005   0.87683   0.00000  Uiso   1.00
H172   H     0.60246   0.91186   0.94227   0.00000  Uiso   1.00
H173   H     0.64101   0.32513   0.07679   0.00000  Uiso   1.00
H174   H     0.93925   0.05411   0.78748   0.00000  Uiso   1.00
H175   H     0.47720   0.78380   0.92548   0.00000  Uiso   1.00
O176   O     0.55986   0.47074   0.06035   0.00000  Uiso   1.00
O177   O     0.95114   0.11516   0.68078   0.00000  Uiso   1.00
O178   O     0.34495   0.76053   0.86183   0.00000  Uiso   1.00
N179   N     0.54057   0.40152   0.97148   0.00000  Uiso   1.00
N180   N     0.81942   0.14815   0.70100   0.00000  Uiso   1.00
N181   N     0.38745   0.89542   0.83000   0.00000  Uiso   1.00
N182   N     0.61287   0.33574   0.03848   0.00000  Uiso   1.00
N183   N     0.89172   0.08237   0.76800   0.00000  Uiso   1.00
N184   N     0.45975   0.82964   0.89700   0.00000  Uiso   1.00
C185   C     0.07608   0.34583   0.32829   0.00000  Uiso   1.00
C186   C     0.08395   0.29375   0.38413   0.00000  Uiso   1.00
C187   C     0.05031   0.21330   0.39376   0.00000  Uiso   1.00
C188   C     0.06450   0.17631   0.44776   0.00000  Uiso   1.00
C189   C     0.06973   0.08902   0.52794   0.00000  Uiso   1.00
C190   C     0.16081   0.36356   0.30958   0.00000  Uiso   1.00
C191   C     0.19178   0.34183   0.25653   0.00000  Uiso   1.00
C192   C     0.27067   0.36363   0.24778   0.00000  Uiso   1.00
C193   C     0.39521   0.38479   0.21222   0.00000  Uiso   1.00
C194   C     0.04176   0.43321   0.34514   0.00000  Uiso   1.00
C195   C     0.97263   0.47004   0.32198   0.00000  Uiso   1.00
C196   C     0.95129   0.55049   0.34316   0.00000  Uiso   1.00
C197   C     0.89098   0.67977   0.36281   0.00000  Uiso   1.00
C198   C     0.16111   0.42320   0.40708   0.00000  Uiso   1.00
C199   C     0.13014   0.33577   0.42692   0.00000  Uiso   1.00
C200   C     0.14438   0.29890   0.48093   0.00000  Uiso   1.00
C201   C     0.11076   0.21841   0.49063   0.00000  Uiso   1.00
C202   C     0.20700   0.40558   0.35238   0.00000  Uiso   1.00
C203   C     0.28586   0.42742   0.34370   0.00000  Uiso   1.00
C204   C     0.31694   0.40572   0.29065   0.00000  Uiso   1.00
C205   C     0.08794   0.47523   0.38794   0.00000  Uiso   1.00
C206   C     0.06671   0.55563   0.40916   0.00000  Uiso   1.00
C207   C     0.99756   0.59258   0.38603   0.00000  Uiso   1.00
H208   H     0.04013   0.31312   0.29497   0.00000  Uiso   1.00
H209   H     0.01457   0.18080   0.36062   0.00000  Uiso   1.00
H210   H     0.15602   0.30932   0.22342   0.00000  Uiso   1.00
H211   H     0.93691   0.43750   0.28886   0.00000  Uiso   1.00
H212   H     0.00663   0.05261   0.45228   0.00000  Uiso   1.00
H213   H     0.30488   0.32363   0.16297   0.00000  Uiso   1.00
H214   H     0.84283   0.59394   0.30097   0.00000  Uiso   1.00
H215   H     0.19707   0.45592   0.44040   0.00000  Uiso   1.00
H216   H     0.18013   0.33143   0.51403   0.00000  Uiso   1.00
H217   H     0.32158   0.45995   0.37683   0.00000  Uiso   1.00
H218   H     0.10246   0.58814   0.44227   0.00000  Uiso   1.00
H219   H     0.14101   0.17487   0.57679   0.00000  Uiso   1.00
H220   H     0.43925   0.44589   0.28748   0.00000  Uiso   1.00
H221   H     0.97720   0.71620   0.42548   0.00000  Uiso   1.00
O222   O     0.05986   0.02926   0.56035   0.00000  Uiso   1.00
O223   O     0.45114   0.38484   0.18078   0.00000  Uiso   1.00
O224   O     0.84495   0.73947   0.36183   0.00000  Uiso   1.00
N225   N     0.04057   0.09848   0.47148   0.00000  Uiso   1.00
N226   N     0.31942   0.35185   0.20100   0.00000  Uiso   1.00
N227   N     0.88745   0.60458   0.33000   0.00000  Uiso   1.00
N228   N     0.11287   0.16426   0.53848   0.00000  Uiso   1.00
N229   N     0.39172   0.41763   0.26800   0.00000  Uiso   1.00
N230   N     0.95975   0.67036   0.39700   0.00000  Uiso   1.00
C231   C     0.57608   0.84583   0.32829   0.00000  Uiso   1.00
C232   C     0.58395   0.79375   0.38413   0.00000  Uiso   1.00
C233   C     0.55031   0.71330   0.39376   0.00000  Uiso   1.00
C234   C     0.56450   0.67631   0.44776   0.00000  Uiso   1.00
C235   C     0.56973   0.58902   0.52794   0.00000  Uiso   1.00
C236   C     0.66081   0.86356   0.30958   0.00000  Uiso   1.00
C237   C     0.69178   0.84183   0.25653   0.00000  Uiso   1.00
C238   C     0.77067   0.86363   0.24778   0.00000  Uiso   1.00
C239   C     0.89521   0.88479   0.21222   0.00000  Uiso   1.00
C240   C     0.54176   0.93321   0.34514   0.00000  Uiso   1.00
C241   C     0.47263   0.97004   0.32198   0.00000  Uiso   1.00
C242   C     0.45129   0.05049   0.34316   0.00000  Uiso   1.00
C243   C     0.39098   0.17977   0.36281   0.00000  Uiso   1.00
C244   C     0.66111   0.92320   0.40708   0.00000  Uiso   1.00
C245   C     0.63014   0.83577   0.42692   0.00000  Uiso   1.00
C246   C     0.64438   0.79890   0.48093   0.00000  Uiso   1.00
C247   C     0.61076   0.71841   0.49063   0.00000  Uiso   1.00
C248   C     0.70700   0.90558   0.35238   0.00000  Uiso   1.00
C249   C     0.78586   0.92742   0.34370   0.00000  Uiso   1.00
C250   C     0.81694   0.90572   0.29065   0.00000  Uiso   1.00
C251   C     0.58794   0.97523   0.38794   0.00000  Uiso   1.00
C252   C     0.56671   0.05563   0.40916   0.00000  Uiso   1.00
C253   C     0.49756   0.09258   0.38603   0.00000  Uiso   1.00
H254   H     0.54013   0.81312   0.29497   0.00000  Uiso   1.00
H255   H     0.51457   0.68080   0.36062   0.00000  Uiso   1.00
H256   H     0.65602   0.80932   0.22342   0.00000  Uiso   1.00
H257   H     0.43691   0.93750   0.28886   0.00000  Uiso   1.00
H258   H     0.50663   0.55261   0.45228   0.00000  Uiso   1.00
H259   H     0.80488   0.82363   0.16297   0.00000  Uiso   1.00
H260   H     0.34283   0.09394   0.30097   0.00000  Uiso   1.00
H261   H     0.69707   0.95592   0.44040   0.00000  Uiso   1.00
H262   H     0.68013   0.83143   0.51403   0.00000  Uiso   1.00
H263   H     0.82158   0.95995   0.37683   0.00000  Uiso   1.00
H264   H     0.60246   0.08814   0.44227   0.00000  Uiso   1.00
H265   H     0.64101   0.67487   0.57679   0.00000  Uiso   1.00
H266   H     0.93925   0.94589   0.28748   0.00000  Uiso   1.00
H267   H     0.47720   0.21620   0.42548   0.00000  Uiso   1.00
O268   O     0.55986   0.52926   0.56035   0.00000  Uiso   1.00
O269   O     0.95114   0.88484   0.18078   0.00000  Uiso   1.00
O270   O     0.34495   0.23947   0.36183   0.00000  Uiso   1.00
N271   N     0.54057   0.59848   0.47148   0.00000  Uiso   1.00
N272   N     0.81942   0.85185   0.20100   0.00000  Uiso   1.00
N273   N     0.38745   0.10458   0.33000   0.00000  Uiso   1.00
N274   N     0.61287   0.66426   0.53848   0.00000  Uiso   1.00
N275   N     0.89172   0.91763   0.26800   0.00000  Uiso   1.00
N276   N     0.45975   0.17036   0.39700   0.00000  Uiso   1.00
C277   C     0.92392   0.34583   0.17171   0.00000  Uiso   1.00
C278   C     0.91605   0.29375   0.11587   0.00000  Uiso   1.00
C279   C     0.94969   0.21330   0.10624   0.00000  Uiso   1.00
C280   C     0.93550   0.17631   0.05224   0.00000  Uiso   1.00
C281   C     0.93027   0.08902   0.97206   0.00000  Uiso   1.00
C282   C     0.83919   0.36356   0.19042   0.00000  Uiso   1.00
C283   C     0.80822   0.34183   0.24347   0.00000  Uiso   1.00
C284   C     0.72933   0.36363   0.25222   0.00000  Uiso   1.00
C285   C     0.60479   0.38479   0.28778   0.00000  Uiso   1.00
C286   C     0.95824   0.43321   0.15486   0.00000  Uiso   1.00
C287   C     0.02737   0.47004   0.17802   0.00000  Uiso   1.00
C288   C     0.04871   0.55049   0.15684   0.00000  Uiso   1.00
C289   C     0.10902   0.67977   0.13719   0.00000  Uiso   1.00
C290   C     0.83889   0.42320   0.09292   0.00000  Uiso   1.00
C291   C     0.86986   0.33577   0.07308   0.00000  Uiso   1.00
C292   C     0.85562   0.29890   0.01907   0.00000  Uiso   1.00
C293   C     0.88924   0.21841   0.00937   0.00000  Uiso   1.00
C294   C     0.79300   0.40558   0.14762   0.00000  Uiso   1.00
C295   C     0.71414   0.42742   0.15630   0.00000  Uiso   1.00
C296   C     0.68306   0.40572   0.20935   0.00000  Uiso   1.00
C297   C     0.91206   0.47523   0.11206   0.00000  Uiso   1.00
C298   C     0.93329   0.55563   0.09084   0.00000  Uiso   1.00
C299   C     0.00244   0.59258   0.11397   0.00000  Uiso   1.00
H300   H     0.95987   0.31312   0.20503   0.00000  Uiso   1.00
H301   H     0.98543   0.18080   0.13938   0.00000  Uiso   1.00
H302   H     0.84398   0.30932   0.27658   0.00000  Uiso   1.00
H303   H     0.06309   0.43750   0.21114   0.00000  Uiso   1.00
H304   H     0.99337   0.05261   0.04772   0.00000  Uiso   1.00
H305   H     0.69512   0.32363   0.33703   0.00000  Uiso   1.00
H306   H     0.15717   0.59394   0.19903   0.00000  Uiso   1.00
H307   H     0.80293   0.45592   0.05960   0.00000  Uiso   1.00
H308   H     0.81987   0.33143   0.98597   0.00000  Uiso   1.00
H309   H     0.67842   0.45995   0.12317   0.00000  Uiso   1.00
H310   H     0.89754   0.58814   0.05773   0.00000  Uiso   1.00
H311   H     0.85899   0.17487   0.92321   0.00000  Uiso   1.00
H312   H     0.56075   0.44589   0.21252   0.00000  Uiso   1.00
H313   H     0.02280   0.71620   0.07452   0.00000  Uiso   1.00
O314   O     0.94014   0.02926   0.93965   0.00000  Uiso   1.00
O315   O     0.54886   0.38484   0.31922   0.00000  Uiso   1.00
O316   O     0.15505   0.73947   0.13817   0.00000  Uiso   1.00
N317   N     0.95943   0.09848   0.02852   0.00000  Uiso   1.00
N318   N     0.68058   0.35185   0.29900   0.00000  Uiso   1.00
N319   N     0.11255   0.60458   0.17000   0.00000  Uiso   1.00
N320   N     0.88713   0.16426   0.96152   0.00000  Uiso   1.00
N321   N     0.60828   0.41763   0.23200   0.00000  Uiso   1.00
N322   N     0.04025   0.67036   0.10300   0.00000  Uiso   1.00
C323   C     0.42392   0.84583   0.17171   0.00000  Uiso   1.00
C324   C     0.41605   0.79375   0.11587   0.00000  Uiso   1.00
C325   C     0.44969   0.71330   0.10624   0.00000  Uiso   1.00
C326   C     0.43550   0.67631   0.05224   0.00000  Uiso   1.00
C327   C     0.43027   0.58902   0.97206   0.00000  Uiso   1.00
C328   C     0.33919   0.86356   0.19042   0.00000  Uiso   1.00
C329   C     0.30822   0.84183   0.24347   0.00000  Uiso   1.00
C330   C     0.22933   0.86363   0.25222   0.00000  Uiso   1.00
C331   C     0.10479   0.88479   0.28778   0.00000  Uiso   1.00
C332   C     0.45824   0.93321   0.15486   0.00000  Uiso   1.00
C333   C     0.52737   0.97004   0.17802   0.00000  Uiso   1.00
C334   C     0.54871   0.05049   0.15684   0.00000  Uiso   1.00
C335   C     0.60902   0.17977   0.13719   0.00000  Uiso   1.00
C336   C     0.33889   0.92320   0.09292   0.00000  Uiso   1.00
C337   C     0.36986   0.83577   0.07308   0.00000  Uiso   1.00
C338   C     0.35562   0.79890   0.01907   0.00000  Uiso   1.00
C339   C     0.38924   0.71841   0.00937   0.00000  Uiso   1.00
C340   C     0.29300   0.90558   0.14762   0.00000  Uiso   1.00
C341   C     0.21414   0.92742   0.15630   0.00000  Uiso   1.00
C342   C     0.18306   0.90572   0.20935   0.00000  Uiso   1.00
C343   C     0.41206   0.97523   0.11206   0.00000  Uiso   1.00
C344   C     0.43329   0.05563   0.09084   0.00000  Uiso   1.00
C345   C     0.50244   0.09258   0.11397   0.00000  Uiso   1.00
H346   H     0.45987   0.81312   0.20503   0.00000  Uiso   1.00
H347   H     0.48543   0.68080   0.13938   0.00000  Uiso   1.00
H348   H     0.34398   0.80932   0.27658   0.00000  Uiso   1.00
H349   H     0.56309   0.93750   0.21114   0.00000  Uiso   1.00
H350   H     0.49337   0.55261   0.04772   0.00000  Uiso   1.00
H351   H     0.19512   0.82363   0.33703   0.00000  Uiso   1.00
H352   H     0.65717   0.09394   0.19903   0.00000  Uiso   1.00
H353   H     0.30293   0.95592   0.05960   0.00000  Uiso   1.00
H354   H     0.31987   0.83143   0.98597   0.00000  Uiso   1.00
H355   H     0.17842   0.95995   0.12317   0.00000  Uiso   1.00
H356   H     0.39754   0.08814   0.05773   0.00000  Uiso   1.00
H357   H     0.35899   0.67487   0.92321   0.00000  Uiso   1.00
H358   H     0.06075   0.94589   0.21252   0.00000  Uiso   1.00
H359   H     0.52280   0.21620   0.07452   0.00000  Uiso   1.00
O360   O     0.44014   0.52926   0.93965   0.00000  Uiso   1.00
O361   O     0.04886   0.88484   0.31922   0.00000  Uiso   1.00
O362   O     0.65505   0.23947   0.13817   0.00000  Uiso   1.00
N363   N     0.45943   0.59848   0.02852   0.00000  Uiso   1.00
N364   N     0.18058   0.85185   0.29900   0.00000  Uiso   1.00
N365   N     0.61255   0.10458   0.17000   0.00000  Uiso   1.00
N366   N     0.38713   0.66426   0.96152   0.00000  Uiso   1.00
N367   N     0.10828   0.91763   0.23200   0.00000  Uiso   1.00
N368   N     0.54025   0.17036   0.10300   0.00000  Uiso   1.00
