data_job_05824
_audit_creation_date              2018-12-19
_audit_creation_method            'Materials Studio'
_symmetry_space_group_name_H-M    'P1'
_symmetry_Int_Tables_number       1
_symmetry_cell_setting            triclinic
loop_
_symmetry_equiv_pos_as_xyz
  x,y,z
_cell_length_a                    24.2159
_cell_length_b                    15.8460
_cell_length_c                    13.3166
_cell_angle_alpha                 90.0000
_cell_angle_beta                  90.0000
_cell_angle_gamma                 90.0000
loop_
_atom_site_label
_atom_site_type_symbol
_atom_site_fract_x
_atom_site_fract_y
_atom_site_fract_z
_atom_site_U_iso_or_equiv
_atom_site_adp_type
_atom_site_occupancy
C1     C     0.30875   0.26627   0.09279   0.00000  Uiso   1.00
C2     C     0.36414   0.22163   0.08060   0.00000  Uiso   1.00
C3     C     0.38878   0.20022   0.99003   0.00000  Uiso   1.00
C4     C     0.43951   0.15960   0.99482   0.00000  Uiso   1.00
C5     C     0.52167   0.09306   0.96189   0.00000  Uiso   1.00
C6     C     0.27355   0.20886   0.15873   0.00000  Uiso   1.00
C7     C     0.22202   0.17672   0.13384   0.00000  Uiso   1.00
C8     C     0.19649   0.12536   0.20441   0.00000  Uiso   1.00
C9     C     0.13799   0.03904   0.29279   0.00000  Uiso   1.00
C10    C     0.32029   0.34497   0.15526   0.00000  Uiso   1.00
C11    C     0.30804   0.42728   0.12748   0.00000  Uiso   1.00
C12    C     0.32186   0.49052   0.19514   0.00000  Uiso   1.00
C13    C     0.33593   0.61553   0.27814   0.00000  Uiso   1.00
C14    C     0.35503   0.23220   0.26238   0.00000  Uiso   1.00
C15    C     0.38927   0.20312   0.17272   0.00000  Uiso   1.00
C16    C     0.43998   0.16253   0.17766   0.00000  Uiso   1.00
C17    C     0.46469   0.14106   0.08710   0.00000  Uiso   1.00
C18    C     0.29869   0.19035   0.25084   0.00000  Uiso   1.00
C19    C     0.27323   0.13903   0.32147   0.00000  Uiso   1.00
C20    C     0.22168   0.10682   0.29669   0.00000  Uiso   1.00
C21    C     0.34543   0.32647   0.24738   0.00000  Uiso   1.00
C22    C     0.35925   0.38958   0.31510   0.00000  Uiso   1.00
C23    C     0.34704   0.47198   0.28742   0.00000  Uiso   1.00
H24    H     0.28918   0.28067   0.02108   0.00000  Uiso   1.00
H25    H     0.36930   0.21455   0.91876   0.00000  Uiso   1.00
H26    H     0.20258   0.19106   0.06256   0.00000  Uiso   1.00
H27    H     0.28859   0.44158   0.05619   0.00000  Uiso   1.00
H28    H     0.46922   0.13304   0.84594   0.00000  Uiso   1.00
H29    H     0.11765   0.08354   0.14915   0.00000  Uiso   1.00
H30    H     0.29903   0.61181   0.13573   0.00000  Uiso   1.00
H31    H     0.37461   0.21779   0.33410   0.00000  Uiso   1.00
H32    H     0.45942   0.14821   0.24895   0.00000  Uiso   1.00
H33    H     0.29269   0.12472   0.39274   0.00000  Uiso   1.00
H34    H     0.37871   0.37524   0.38638   0.00000  Uiso   1.00
H35    H     0.54236   0.07920   0.11393   0.00000  Uiso   1.00
H36    H     0.19079   0.02970   0.41715   0.00000  Uiso   1.00
H37    H     0.37217   0.55797   0.40373   0.00000  Uiso   1.00
O38    O     0.56003   0.06146   0.91827   0.00000  Uiso   1.00
O39    O     0.09879   0.99653   0.31609   0.00000  Uiso   1.00
O40    O     0.33675   0.68960   0.29848   0.00000  Uiso   1.00
N41    N     0.47480   0.12994   0.92069   0.00000  Uiso   1.00
N42    N     0.14610   0.08364   0.20418   0.00000  Uiso   1.00
N43    N     0.31566   0.57753   0.19164   0.00000  Uiso   1.00
N44    N     0.51415   0.10096   0.06490   0.00000  Uiso   1.00
N45    N     0.18546   0.05467   0.34838   0.00000  Uiso   1.00
N46    N     0.35502   0.54856   0.33585   0.00000  Uiso   1.00
C47    C     0.19125   0.73373   0.09279   0.00000  Uiso   1.00
C48    C     0.13586   0.77837   0.08060   0.00000  Uiso   1.00
C49    C     0.11122   0.79978   0.99003   0.00000  Uiso   1.00
C50    C     0.06049   0.84040   0.99482   0.00000  Uiso   1.00
C51    C     0.97833   0.90694   0.96189   0.00000  Uiso   1.00
C52    C     0.22645   0.79114   0.15873   0.00000  Uiso   1.00
C53    C     0.27798   0.82328   0.13384   0.00000  Uiso   1.00
C54    C     0.30351   0.87464   0.20441   0.00000  Uiso   1.00
C55    C     0.36201   0.96096   0.29279   0.00000  Uiso   1.00
C56    C     0.17971   0.65503   0.15526   0.00000  Uiso   1.00
C57    C     0.19196   0.57272   0.12748   0.00000  Uiso   1.00
C58    C     0.17814   0.50948   0.19514   0.00000  Uiso   1.00
C59    C     0.16407   0.38447   0.27814   0.00000  Uiso   1.00
C60    C     0.14497   0.76780   0.26238   0.00000  Uiso   1.00
C61    C     0.11073   0.79688   0.17272   0.00000  Uiso   1.00
C62    C     0.06002   0.83747   0.17766   0.00000  Uiso   1.00
C63    C     0.03531   0.85894   0.08710   0.00000  Uiso   1.00
C64    C     0.20131   0.80965   0.25084   0.00000  Uiso   1.00
C65    C     0.22677   0.86097   0.32147   0.00000  Uiso   1.00
C66    C     0.27832   0.89318   0.29669   0.00000  Uiso   1.00
C67    C     0.15457   0.67353   0.24738   0.00000  Uiso   1.00
C68    C     0.14075   0.61042   0.31510   0.00000  Uiso   1.00
C69    C     0.15296   0.52802   0.28742   0.00000  Uiso   1.00
H70    H     0.21082   0.71933   0.02108   0.00000  Uiso   1.00
H71    H     0.13070   0.78545   0.91876   0.00000  Uiso   1.00
H72    H     0.29742   0.80894   0.06256   0.00000  Uiso   1.00
H73    H     0.21141   0.55842   0.05619   0.00000  Uiso   1.00
H74    H     0.03078   0.86696   0.84594   0.00000  Uiso   1.00
H75    H     0.38235   0.91646   0.14915   0.00000  Uiso   1.00
H76    H     0.20097   0.38819   0.13573   0.00000  Uiso   1.00
H77    H     0.12539   0.78221   0.33410   0.00000  Uiso   1.00
H78    H     0.04058   0.85179   0.24895   0.00000  Uiso   1.00
H79    H     0.20731   0.87528   0.39274   0.00000  Uiso   1.00
H80    H     0.12129   0.62476   0.38638   0.00000  Uiso   1.00
H81    H     0.95764   0.92080   0.11393   0.00000  Uiso   1.00
H82    H     0.30921   0.97030   0.41715   0.00000  Uiso   1.00
H83    H     0.12783   0.44203   0.40373   0.00000  Uiso   1.00
O84    O     0.93997   0.93854   0.91827   0.00000  Uiso   1.00
O85    O     0.40121   0.00347   0.31609   0.00000  Uiso   1.00
O86    O     0.16325   0.31040   0.29848   0.00000  Uiso   1.00
N87    N     0.02520   0.87006   0.92069   0.00000  Uiso   1.00
N88    N     0.35390   0.91636   0.20418   0.00000  Uiso   1.00
N89    N     0.18434   0.42247   0.19164   0.00000  Uiso   1.00
N90    N     0.98585   0.89904   0.06490   0.00000  Uiso   1.00
N91    N     0.31454   0.94533   0.34838   0.00000  Uiso   1.00
N92    N     0.14498   0.45144   0.33585   0.00000  Uiso   1.00
C93    C     0.69125   0.26627   0.40721   0.00000  Uiso   1.00
C94    C     0.63586   0.22163   0.41940   0.00000  Uiso   1.00
C95    C     0.61122   0.20022   0.50997   0.00000  Uiso   1.00
C96    C     0.56049   0.15960   0.50518   0.00000  Uiso   1.00
C97    C     0.47833   0.09306   0.53811   0.00000  Uiso   1.00
C98    C     0.72645   0.20886   0.34127   0.00000  Uiso   1.00
C99    C     0.77798   0.17672   0.36616   0.00000  Uiso   1.00
C100   C     0.80351   0.12536   0.29559   0.00000  Uiso   1.00
C101   C     0.86201   0.03904   0.20721   0.00000  Uiso   1.00
C102   C     0.67971   0.34497   0.34474   0.00000  Uiso   1.00
C103   C     0.69196   0.42728   0.37252   0.00000  Uiso   1.00
C104   C     0.67814   0.49052   0.30486   0.00000  Uiso   1.00
C105   C     0.66407   0.61553   0.22186   0.00000  Uiso   1.00
C106   C     0.64497   0.23220   0.23762   0.00000  Uiso   1.00
C107   C     0.61073   0.20312   0.32728   0.00000  Uiso   1.00
C108   C     0.56002   0.16253   0.32234   0.00000  Uiso   1.00
C109   C     0.53531   0.14106   0.41290   0.00000  Uiso   1.00
C110   C     0.70131   0.19035   0.24916   0.00000  Uiso   1.00
C111   C     0.72677   0.13903   0.17853   0.00000  Uiso   1.00
C112   C     0.77832   0.10682   0.20331   0.00000  Uiso   1.00
C113   C     0.65457   0.32647   0.25262   0.00000  Uiso   1.00
C114   C     0.64075   0.38958   0.18490   0.00000  Uiso   1.00
C115   C     0.65296   0.47198   0.21258   0.00000  Uiso   1.00
H116   H     0.71082   0.28067   0.47892   0.00000  Uiso   1.00
H117   H     0.63070   0.21455   0.58124   0.00000  Uiso   1.00
H118   H     0.79742   0.19106   0.43744   0.00000  Uiso   1.00
H119   H     0.71141   0.44158   0.44381   0.00000  Uiso   1.00
H120   H     0.53078   0.13304   0.65406   0.00000  Uiso   1.00
H121   H     0.88235   0.08354   0.35085   0.00000  Uiso   1.00
H122   H     0.70097   0.61181   0.36427   0.00000  Uiso   1.00
H123   H     0.62539   0.21779   0.16590   0.00000  Uiso   1.00
H124   H     0.54058   0.14821   0.25105   0.00000  Uiso   1.00
H125   H     0.70731   0.12472   0.10726   0.00000  Uiso   1.00
H126   H     0.62129   0.37524   0.11362   0.00000  Uiso   1.00
H127   H     0.45764   0.07920   0.38607   0.00000  Uiso   1.00
H128   H     0.80921   0.02970   0.08285   0.00000  Uiso   1.00
H129   H     0.62783   0.55797   0.09627   0.00000  Uiso   1.00
O130   O     0.43997   0.06146   0.58173   0.00000  Uiso   1.00
O131   O     0.90121   0.99653   0.18391   0.00000  Uiso   1.00
O132   O     0.66325   0.68960   0.20152   0.00000  Uiso   1.00
N133   N     0.52520   0.12994   0.57931   0.00000  Uiso   1.00
N134   N     0.85390   0.08364   0.29582   0.00000  Uiso   1.00
N135   N     0.68434   0.57753   0.30836   0.00000  Uiso   1.00
N136   N     0.48585   0.10096   0.43510   0.00000  Uiso   1.00
N137   N     0.81454   0.05467   0.15162   0.00000  Uiso   1.00
N138   N     0.64498   0.54856   0.16415   0.00000  Uiso   1.00
C139   C     0.80875   0.73373   0.40721   0.00000  Uiso   1.00
C140   C     0.86414   0.77837   0.41940   0.00000  Uiso   1.00
C141   C     0.88878   0.79978   0.50997   0.00000  Uiso   1.00
C142   C     0.93951   0.84040   0.50518   0.00000  Uiso   1.00
C143   C     0.02167   0.90694   0.53811   0.00000  Uiso   1.00
C144   C     0.77355   0.79114   0.34127   0.00000  Uiso   1.00
C145   C     0.72202   0.82328   0.36616   0.00000  Uiso   1.00
C146   C     0.69649   0.87464   0.29559   0.00000  Uiso   1.00
C147   C     0.63799   0.96096   0.20721   0.00000  Uiso   1.00
C148   C     0.82029   0.65503   0.34474   0.00000  Uiso   1.00
C149   C     0.80804   0.57272   0.37252   0.00000  Uiso   1.00
C150   C     0.82186   0.50948   0.30486   0.00000  Uiso   1.00
C151   C     0.83593   0.38447   0.22186   0.00000  Uiso   1.00
C152   C     0.85503   0.76780   0.23762   0.00000  Uiso   1.00
C153   C     0.88927   0.79688   0.32728   0.00000  Uiso   1.00
C154   C     0.93998   0.83747   0.32234   0.00000  Uiso   1.00
C155   C     0.96469   0.85894   0.41290   0.00000  Uiso   1.00
C156   C     0.79869   0.80965   0.24916   0.00000  Uiso   1.00
C157   C     0.77323   0.86097   0.17853   0.00000  Uiso   1.00
C158   C     0.72168   0.89318   0.20331   0.00000  Uiso   1.00
C159   C     0.84543   0.67353   0.25262   0.00000  Uiso   1.00
C160   C     0.85925   0.61042   0.18490   0.00000  Uiso   1.00
C161   C     0.84704   0.52802   0.21258   0.00000  Uiso   1.00
H162   H     0.78918   0.71933   0.47892   0.00000  Uiso   1.00
H163   H     0.86930   0.78545   0.58124   0.00000  Uiso   1.00
H164   H     0.70258   0.80894   0.43744   0.00000  Uiso   1.00
H165   H     0.78859   0.55842   0.44381   0.00000  Uiso   1.00
H166   H     0.96922   0.86696   0.65406   0.00000  Uiso   1.00
H167   H     0.61765   0.91646   0.35085   0.00000  Uiso   1.00
H168   H     0.79903   0.38819   0.36427   0.00000  Uiso   1.00
H169   H     0.87461   0.78221   0.16590   0.00000  Uiso   1.00
H170   H     0.95942   0.85179   0.25105   0.00000  Uiso   1.00
H171   H     0.79269   0.87528   0.10726   0.00000  Uiso   1.00
H172   H     0.87871   0.62476   0.11362   0.00000  Uiso   1.00
H173   H     0.04236   0.92080   0.38607   0.00000  Uiso   1.00
H174   H     0.69079   0.97030   0.08285   0.00000  Uiso   1.00
H175   H     0.87217   0.44203   0.09627   0.00000  Uiso   1.00
O176   O     0.06003   0.93854   0.58173   0.00000  Uiso   1.00
O177   O     0.59879   0.00347   0.18391   0.00000  Uiso   1.00
O178   O     0.83675   0.31040   0.20152   0.00000  Uiso   1.00
N179   N     0.97480   0.87006   0.57931   0.00000  Uiso   1.00
N180   N     0.64610   0.91636   0.29582   0.00000  Uiso   1.00
N181   N     0.81566   0.42247   0.30836   0.00000  Uiso   1.00
N182   N     0.01415   0.89904   0.43510   0.00000  Uiso   1.00
N183   N     0.68546   0.94533   0.15162   0.00000  Uiso   1.00
N184   N     0.85502   0.45144   0.16415   0.00000  Uiso   1.00
C185   C     0.69125   0.73373   0.90721   0.00000  Uiso   1.00
C186   C     0.63586   0.77837   0.91940   0.00000  Uiso   1.00
C187   C     0.61122   0.79978   0.00997   0.00000  Uiso   1.00
C188   C     0.56049   0.84040   0.00518   0.00000  Uiso   1.00
C189   C     0.47833   0.90694   0.03811   0.00000  Uiso   1.00
C190   C     0.72645   0.79114   0.84127   0.00000  Uiso   1.00
C191   C     0.77798   0.82328   0.86616   0.00000  Uiso   1.00
C192   C     0.80351   0.87464   0.79559   0.00000  Uiso   1.00
C193   C     0.86201   0.96096   0.70721   0.00000  Uiso   1.00
C194   C     0.67971   0.65503   0.84474   0.00000  Uiso   1.00
C195   C     0.69196   0.57272   0.87252   0.00000  Uiso   1.00
C196   C     0.67814   0.50948   0.80486   0.00000  Uiso   1.00
C197   C     0.66407   0.38447   0.72186   0.00000  Uiso   1.00
C198   C     0.64497   0.76780   0.73762   0.00000  Uiso   1.00
C199   C     0.61073   0.79688   0.82728   0.00000  Uiso   1.00
C200   C     0.56002   0.83747   0.82234   0.00000  Uiso   1.00
C201   C     0.53531   0.85894   0.91290   0.00000  Uiso   1.00
C202   C     0.70131   0.80965   0.74916   0.00000  Uiso   1.00
C203   C     0.72677   0.86097   0.67853   0.00000  Uiso   1.00
C204   C     0.77832   0.89318   0.70331   0.00000  Uiso   1.00
C205   C     0.65457   0.67353   0.75262   0.00000  Uiso   1.00
C206   C     0.64075   0.61042   0.68490   0.00000  Uiso   1.00
C207   C     0.65296   0.52802   0.71258   0.00000  Uiso   1.00
H208   H     0.71082   0.71933   0.97892   0.00000  Uiso   1.00
H209   H     0.63070   0.78545   0.08124   0.00000  Uiso   1.00
H210   H     0.79742   0.80894   0.93744   0.00000  Uiso   1.00
H211   H     0.71141   0.55842   0.94381   0.00000  Uiso   1.00
H212   H     0.53078   0.86696   0.15406   0.00000  Uiso   1.00
H213   H     0.88235   0.91646   0.85085   0.00000  Uiso   1.00
H214   H     0.70097   0.38819   0.86427   0.00000  Uiso   1.00
H215   H     0.62539   0.78221   0.66590   0.00000  Uiso   1.00
H216   H     0.54058   0.85179   0.75105   0.00000  Uiso   1.00
H217   H     0.70731   0.87528   0.60726   0.00000  Uiso   1.00
H218   H     0.62129   0.62476   0.61362   0.00000  Uiso   1.00
H219   H     0.45764   0.92080   0.88607   0.00000  Uiso   1.00
H220   H     0.80921   0.97030   0.58285   0.00000  Uiso   1.00
H221   H     0.62783   0.44203   0.59627   0.00000  Uiso   1.00
O222   O     0.43997   0.93854   0.08173   0.00000  Uiso   1.00
O223   O     0.90121   0.00347   0.68391   0.00000  Uiso   1.00
O224   O     0.66325   0.31040   0.70152   0.00000  Uiso   1.00
N225   N     0.52520   0.87006   0.07931   0.00000  Uiso   1.00
N226   N     0.85390   0.91636   0.79582   0.00000  Uiso   1.00
N227   N     0.68434   0.42247   0.80836   0.00000  Uiso   1.00
N228   N     0.48585   0.89904   0.93510   0.00000  Uiso   1.00
N229   N     0.81454   0.94533   0.65162   0.00000  Uiso   1.00
N230   N     0.64498   0.45144   0.66415   0.00000  Uiso   1.00
C231   C     0.80875   0.26627   0.90721   0.00000  Uiso   1.00
C232   C     0.86414   0.22163   0.91940   0.00000  Uiso   1.00
C233   C     0.88878   0.20022   0.00997   0.00000  Uiso   1.00
C234   C     0.93951   0.15960   0.00518   0.00000  Uiso   1.00
C235   C     0.02167   0.09306   0.03811   0.00000  Uiso   1.00
C236   C     0.77355   0.20886   0.84127   0.00000  Uiso   1.00
C237   C     0.72202   0.17672   0.86616   0.00000  Uiso   1.00
C238   C     0.69649   0.12536   0.79559   0.00000  Uiso   1.00
C239   C     0.63799   0.03904   0.70721   0.00000  Uiso   1.00
C240   C     0.82029   0.34497   0.84474   0.00000  Uiso   1.00
C241   C     0.80804   0.42728   0.87252   0.00000  Uiso   1.00
C242   C     0.82186   0.49052   0.80486   0.00000  Uiso   1.00
C243   C     0.83593   0.61553   0.72186   0.00000  Uiso   1.00
C244   C     0.85503   0.23220   0.73762   0.00000  Uiso   1.00
C245   C     0.88927   0.20312   0.82728   0.00000  Uiso   1.00
C246   C     0.93998   0.16253   0.82234   0.00000  Uiso   1.00
C247   C     0.96469   0.14106   0.91290   0.00000  Uiso   1.00
C248   C     0.79869   0.19035   0.74916   0.00000  Uiso   1.00
C249   C     0.77323   0.13903   0.67853   0.00000  Uiso   1.00
C250   C     0.72168   0.10682   0.70331   0.00000  Uiso   1.00
C251   C     0.84543   0.32647   0.75262   0.00000  Uiso   1.00
C252   C     0.85925   0.38958   0.68490   0.00000  Uiso   1.00
C253   C     0.84704   0.47198   0.71258   0.00000  Uiso   1.00
H254   H     0.78918   0.28067   0.97892   0.00000  Uiso   1.00
H255   H     0.86930   0.21455   0.08124   0.00000  Uiso   1.00
H256   H     0.70258   0.19106   0.93744   0.00000  Uiso   1.00
H257   H     0.78859   0.44158   0.94381   0.00000  Uiso   1.00
H258   H     0.96922   0.13304   0.15406   0.00000  Uiso   1.00
H259   H     0.61765   0.08354   0.85085   0.00000  Uiso   1.00
H260   H     0.79903   0.61181   0.86427   0.00000  Uiso   1.00
H261   H     0.87461   0.21779   0.66590   0.00000  Uiso   1.00
H262   H     0.95942   0.14821   0.75105   0.00000  Uiso   1.00
H263   H     0.79269   0.12472   0.60726   0.00000  Uiso   1.00
H264   H     0.87871   0.37524   0.61362   0.00000  Uiso   1.00
H265   H     0.04236   0.07920   0.88607   0.00000  Uiso   1.00
H266   H     0.69079   0.02970   0.58285   0.00000  Uiso   1.00
H267   H     0.87217   0.55797   0.59627   0.00000  Uiso   1.00
O268   O     0.06003   0.06146   0.08173   0.00000  Uiso   1.00
O269   O     0.59879   0.99653   0.68391   0.00000  Uiso   1.00
O270   O     0.83675   0.68960   0.70152   0.00000  Uiso   1.00
N271   N     0.97480   0.12994   0.07931   0.00000  Uiso   1.00
N272   N     0.64610   0.08364   0.79582   0.00000  Uiso   1.00
N273   N     0.81566   0.57753   0.80836   0.00000  Uiso   1.00
N274   N     0.01415   0.10096   0.93510   0.00000  Uiso   1.00
N275   N     0.68546   0.05467   0.65162   0.00000  Uiso   1.00
N276   N     0.85502   0.54856   0.66415   0.00000  Uiso   1.00
C277   C     0.30875   0.73373   0.59279   0.00000  Uiso   1.00
C278   C     0.36414   0.77837   0.58060   0.00000  Uiso   1.00
C279   C     0.38878   0.79978   0.49003   0.00000  Uiso   1.00
C280   C     0.43951   0.84040   0.49482   0.00000  Uiso   1.00
C281   C     0.52167   0.90694   0.46189   0.00000  Uiso   1.00
C282   C     0.27355   0.79114   0.65873   0.00000  Uiso   1.00
C283   C     0.22202   0.82328   0.63384   0.00000  Uiso   1.00
C284   C     0.19649   0.87464   0.70441   0.00000  Uiso   1.00
C285   C     0.13799   0.96096   0.79279   0.00000  Uiso   1.00
C286   C     0.32029   0.65503   0.65526   0.00000  Uiso   1.00
C287   C     0.30804   0.57272   0.62748   0.00000  Uiso   1.00
C288   C     0.32186   0.50948   0.69514   0.00000  Uiso   1.00
C289   C     0.33593   0.38447   0.77814   0.00000  Uiso   1.00
C290   C     0.35503   0.76780   0.76238   0.00000  Uiso   1.00
C291   C     0.38927   0.79688   0.67272   0.00000  Uiso   1.00
C292   C     0.43998   0.83747   0.67766   0.00000  Uiso   1.00
C293   C     0.46469   0.85894   0.58710   0.00000  Uiso   1.00
C294   C     0.29869   0.80965   0.75084   0.00000  Uiso   1.00
C295   C     0.27323   0.86097   0.82147   0.00000  Uiso   1.00
C296   C     0.22168   0.89318   0.79669   0.00000  Uiso   1.00
C297   C     0.34543   0.67353   0.74738   0.00000  Uiso   1.00
C298   C     0.35925   0.61042   0.81510   0.00000  Uiso   1.00
C299   C     0.34704   0.52802   0.78742   0.00000  Uiso   1.00
H300   H     0.28918   0.71933   0.52108   0.00000  Uiso   1.00
H301   H     0.36930   0.78545   0.41876   0.00000  Uiso   1.00
H302   H     0.20258   0.80894   0.56256   0.00000  Uiso   1.00
H303   H     0.28859   0.55842   0.55619   0.00000  Uiso   1.00
H304   H     0.46922   0.86696   0.34594   0.00000  Uiso   1.00
H305   H     0.11765   0.91646   0.64915   0.00000  Uiso   1.00
H306   H     0.29903   0.38819   0.63573   0.00000  Uiso   1.00
H307   H     0.37461   0.78221   0.83410   0.00000  Uiso   1.00
H308   H     0.45942   0.85179   0.74895   0.00000  Uiso   1.00
H309   H     0.29269   0.87528   0.89274   0.00000  Uiso   1.00
H310   H     0.37871   0.62476   0.88638   0.00000  Uiso   1.00
H311   H     0.54236   0.92080   0.61393   0.00000  Uiso   1.00
H312   H     0.19079   0.97030   0.91715   0.00000  Uiso   1.00
H313   H     0.37217   0.44203   0.90373   0.00000  Uiso   1.00
O314   O     0.56003   0.93854   0.41827   0.00000  Uiso   1.00
O315   O     0.09879   0.00347   0.81609   0.00000  Uiso   1.00
O316   O     0.33675   0.31040   0.79848   0.00000  Uiso   1.00
N317   N     0.47480   0.87006   0.42069   0.00000  Uiso   1.00
N318   N     0.14610   0.91636   0.70418   0.00000  Uiso   1.00
N319   N     0.31566   0.42247   0.69164   0.00000  Uiso   1.00
N320   N     0.51415   0.89904   0.56490   0.00000  Uiso   1.00
N321   N     0.18546   0.94533   0.84838   0.00000  Uiso   1.00
N322   N     0.35502   0.45144   0.83585   0.00000  Uiso   1.00
C323   C     0.19125   0.26627   0.59279   0.00000  Uiso   1.00
C324   C     0.13586   0.22163   0.58060   0.00000  Uiso   1.00
C325   C     0.11122   0.20022   0.49003   0.00000  Uiso   1.00
C326   C     0.06049   0.15960   0.49482   0.00000  Uiso   1.00
C327   C     0.97833   0.09306   0.46189   0.00000  Uiso   1.00
C328   C     0.22645   0.20886   0.65873   0.00000  Uiso   1.00
C329   C     0.27798   0.17672   0.63384   0.00000  Uiso   1.00
C330   C     0.30351   0.12536   0.70441   0.00000  Uiso   1.00
C331   C     0.36201   0.03904   0.79279   0.00000  Uiso   1.00
C332   C     0.17971   0.34497   0.65526   0.00000  Uiso   1.00
C333   C     0.19196   0.42728   0.62748   0.00000  Uiso   1.00
C334   C     0.17814   0.49052   0.69514   0.00000  Uiso   1.00
C335   C     0.16407   0.61553   0.77814   0.00000  Uiso   1.00
C336   C     0.14497   0.23220   0.76238   0.00000  Uiso   1.00
C337   C     0.11073   0.20312   0.67272   0.00000  Uiso   1.00
C338   C     0.06002   0.16253   0.67766   0.00000  Uiso   1.00
C339   C     0.03531   0.14106   0.58710   0.00000  Uiso   1.00
C340   C     0.20131   0.19035   0.75084   0.00000  Uiso   1.00
C341   C     0.22677   0.13903   0.82147   0.00000  Uiso   1.00
C342   C     0.27832   0.10682   0.79669   0.00000  Uiso   1.00
C343   C     0.15457   0.32647   0.74738   0.00000  Uiso   1.00
C344   C     0.14075   0.38958   0.81510   0.00000  Uiso   1.00
C345   C     0.15296   0.47198   0.78742   0.00000  Uiso   1.00
H346   H     0.21082   0.28067   0.52108   0.00000  Uiso   1.00
H347   H     0.13070   0.21455   0.41876   0.00000  Uiso   1.00
H348   H     0.29742   0.19106   0.56256   0.00000  Uiso   1.00
H349   H     0.21141   0.44158   0.55619   0.00000  Uiso   1.00
H350   H     0.03078   0.13304   0.34594   0.00000  Uiso   1.00
H351   H     0.38235   0.08354   0.64915   0.00000  Uiso   1.00
H352   H     0.20097   0.61181   0.63573   0.00000  Uiso   1.00
H353   H     0.12539   0.21779   0.83410   0.00000  Uiso   1.00
H354   H     0.04058   0.14821   0.74895   0.00000  Uiso   1.00
H355   H     0.20731   0.12472   0.89274   0.00000  Uiso   1.00
H356   H     0.12129   0.37524   0.88638   0.00000  Uiso   1.00
H357   H     0.95764   0.07920   0.61393   0.00000  Uiso   1.00
H358   H     0.30921   0.02970   0.91715   0.00000  Uiso   1.00
H359   H     0.12783   0.55797   0.90373   0.00000  Uiso   1.00
O360   O     0.93997   0.06146   0.41827   0.00000  Uiso   1.00
O361   O     0.40121   0.99653   0.81609   0.00000  Uiso   1.00
O362   O     0.16325   0.68960   0.79848   0.00000  Uiso   1.00
N363   N     0.02520   0.12994   0.42069   0.00000  Uiso   1.00
N364   N     0.35390   0.08364   0.70418   0.00000  Uiso   1.00
N365   N     0.18434   0.57753   0.69164   0.00000  Uiso   1.00
N366   N     0.98585   0.10096   0.56490   0.00000  Uiso   1.00
N367   N     0.31454   0.05467   0.84838   0.00000  Uiso   1.00
N368   N     0.14498   0.54856   0.83585   0.00000  Uiso   1.00
