data_job_05379
_audit_creation_date              2018-12-19
_audit_creation_method            'Materials Studio'
_symmetry_space_group_name_H-M    'P1'
_symmetry_Int_Tables_number       1
_symmetry_cell_setting            triclinic
loop_
_symmetry_equiv_pos_as_xyz
  x,y,z
_cell_length_a                    12.1607
_cell_length_b                    12.1607
_cell_length_c                    67.9889
_cell_angle_alpha                 90.0000
_cell_angle_beta                  90.0000
_cell_angle_gamma                 120.0000
loop_
_atom_site_label
_atom_site_type_symbol
_atom_site_fract_x
_atom_site_fract_y
_atom_site_fract_z
_atom_site_U_iso_or_equiv
_atom_site_adp_type
_atom_site_occupancy
C1     C     0.47360   0.74565   0.35629   0.00000  Uiso   1.00
C2     C     0.38076   0.79247   0.35204   0.00000  Uiso   1.00
C3     C     0.36115   0.83172   0.33386   0.00000  Uiso   1.00
C4     C     0.27205   0.87118   0.33301   0.00000  Uiso   1.00
C5     C     0.13813   0.94391   0.32386   0.00000  Uiso   1.00
C6     C     0.56048   0.83070   0.37262   0.00000  Uiso   1.00
C7     C     0.69198   0.90207   0.37175   0.00000  Uiso   1.00
C8     C     0.75417   0.97369   0.38823   0.00000  Uiso   1.00
C9     C     0.89927   0.10570   0.41104   0.00000  Uiso   1.00
C10    C     0.39502   0.61400   0.36535   0.00000  Uiso   1.00
C11    C     0.38743   0.50317   0.35836   0.00000  Uiso   1.00
C12    C     0.31033   0.39235   0.36872   0.00000  Uiso   1.00
C13    C     0.19854   0.18790   0.38024   0.00000  Uiso   1.00
C14    C     0.35022   0.74594   0.38712   0.00000  Uiso   1.00
C15    C     0.31375   0.79263   0.36878   0.00000  Uiso   1.00
C16    C     0.22464   0.83203   0.36796   0.00000  Uiso   1.00
C17    C     0.20491   0.87133   0.34978   0.00000  Uiso   1.00
C18    C     0.49347   0.83086   0.38936   0.00000  Uiso   1.00
C19    C     0.55547   0.90238   0.40585   0.00000  Uiso   1.00
C20    C     0.68703   0.97385   0.40501   0.00000  Uiso   1.00
C21    C     0.32800   0.61415   0.38209   0.00000  Uiso   1.00
C22    C     0.25092   0.50349   0.39246   0.00000  Uiso   1.00
C23    C     0.24320   0.39251   0.38550   0.00000  Uiso   1.00
H24    H     0.52578   0.74554   0.34326   0.00000  Uiso   1.00
H25    H     0.41304   0.83159   0.32091   0.00000  Uiso   1.00
H26    H     0.74382   0.90192   0.35880   0.00000  Uiso   1.00
H27    H     0.43930   0.50309   0.34541   0.00000  Uiso   1.00
H28    H     0.25853   0.92711   0.30351   0.00000  Uiso   1.00
H29    H     0.95599   0.07537   0.38340   0.00000  Uiso   1.00
H30    H     0.31387   0.23435   0.35517   0.00000  Uiso   1.00
H31    H     0.29805   0.74606   0.40015   0.00000  Uiso   1.00
H32    H     0.17280   0.83214   0.38092   0.00000  Uiso   1.00
H33    H     0.50358   0.90247   0.41880   0.00000  Uiso   1.00
H34    H     0.19907   0.50364   0.40542   0.00000  Uiso   1.00
H35    H     0.06355   0.92757   0.35221   0.00000  Uiso   1.00
H36    H     0.76101   0.07582   0.43210   0.00000  Uiso   1.00
H37    H     0.11888   0.23480   0.40388   0.00000  Uiso   1.00
O38    O     0.08279   0.98400   0.31418   0.00000  Uiso   1.00
O39    O     0.99783   0.17848   0.41900   0.00000  Uiso   1.00
O40    O     0.15538   0.07509   0.38196   0.00000  Uiso   1.00
N41    N     0.22981   0.91538   0.31761   0.00000  Uiso   1.00
N42    N     0.88189   0.05401   0.39230   0.00000  Uiso   1.00
N43    N     0.28159   0.26773   0.36591   0.00000  Uiso   1.00
N44    N     0.12489   0.91563   0.34382   0.00000  Uiso   1.00
N45    N     0.77697   0.05425   0.41851   0.00000  Uiso   1.00
N46    N     0.17667   0.26797   0.39212   0.00000  Uiso   1.00
C47    C     0.25435   0.72795   0.02296   0.00000  Uiso   1.00
C48    C     0.20753   0.58829   0.01870   0.00000  Uiso   1.00
C49    C     0.16828   0.52944   0.00053   0.00000  Uiso   1.00
C50    C     0.12882   0.40088   0.99968   0.00000  Uiso   1.00
C51    C     0.05609   0.19422   0.99052   0.00000  Uiso   1.00
C52    C     0.16930   0.72978   0.03929   0.00000  Uiso   1.00
C53    C     0.09793   0.78992   0.03842   0.00000  Uiso   1.00
C54    C     0.02631   0.78047   0.05490   0.00000  Uiso   1.00
C55    C     0.89430   0.79357   0.07771   0.00000  Uiso   1.00
C56    C     0.38600   0.78102   0.03201   0.00000  Uiso   1.00
C57    C     0.49683   0.88426   0.02503   0.00000  Uiso   1.00
C58    C     0.60765   0.91798   0.03539   0.00000  Uiso   1.00
C59    C     0.81210   0.01064   0.04690   0.00000  Uiso   1.00
C60    C     0.25406   0.60428   0.05378   0.00000  Uiso   1.00
C61    C     0.20737   0.52112   0.03545   0.00000  Uiso   1.00
C62    C     0.16797   0.39261   0.03463   0.00000  Uiso   1.00
C63    C     0.12867   0.33358   0.01645   0.00000  Uiso   1.00
C64    C     0.16914   0.66261   0.05603   0.00000  Uiso   1.00
C65    C     0.09762   0.65309   0.07252   0.00000  Uiso   1.00
C66    C     0.02615   0.71318   0.07167   0.00000  Uiso   1.00
C67    C     0.38585   0.71385   0.04875   0.00000  Uiso   1.00
C68    C     0.49651   0.74743   0.05913   0.00000  Uiso   1.00
C69    C     0.60749   0.85069   0.05216   0.00000  Uiso   1.00
H70    H     0.25446   0.78025   0.00993   0.00000  Uiso   1.00
H71    H     0.16841   0.58145   0.98757   0.00000  Uiso   1.00
H72    H     0.09808   0.84190   0.02546   0.00000  Uiso   1.00
H73    H     0.49691   0.93622   0.01207   0.00000  Uiso   1.00
H74    H     0.07289   0.33142   0.97017   0.00000  Uiso   1.00
H75    H     0.92463   0.88062   0.05006   0.00000  Uiso   1.00
H76    H     0.76565   0.07952   0.02184   0.00000  Uiso   1.00
H77    H     0.25394   0.55199   0.06682   0.00000  Uiso   1.00
H78    H     0.16786   0.34066   0.04758   0.00000  Uiso   1.00
H79    H     0.09753   0.60111   0.08547   0.00000  Uiso   1.00
H80    H     0.49636   0.69543   0.07208   0.00000  Uiso   1.00
H81    H     0.07243   0.13598   0.01888   0.00000  Uiso   1.00
H82    H     0.92418   0.68519   0.09877   0.00000  Uiso   1.00
H83    H     0.76520   0.88409   0.07054   0.00000  Uiso   1.00
O84    O     0.01600   0.09879   0.98085   0.00000  Uiso   1.00
O85    O     0.82152   0.81935   0.08566   0.00000  Uiso   1.00
O86    O     0.92491   0.08029   0.04863   0.00000  Uiso   1.00
N87    N     0.08462   0.31443   0.98427   0.00000  Uiso   1.00
N88    N     0.94599   0.82788   0.05897   0.00000  Uiso   1.00
N89    N     0.73227   0.01386   0.03258   0.00000  Uiso   1.00
N90    N     0.08437   0.20926   0.01048   0.00000  Uiso   1.00
N91    N     0.94575   0.72272   0.08518   0.00000  Uiso   1.00
N92    N     0.73203   0.90870   0.05879   0.00000  Uiso   1.00
C93    C     0.27205   0.52640   0.68963   0.00000  Uiso   1.00
C94    C     0.41171   0.61924   0.68537   0.00000  Uiso   1.00
C95    C     0.47056   0.63885   0.66719   0.00000  Uiso   1.00
C96    C     0.59912   0.72795   0.66634   0.00000  Uiso   1.00
C97    C     0.80578   0.86187   0.65719   0.00000  Uiso   1.00
C98    C     0.27022   0.43952   0.70596   0.00000  Uiso   1.00
C99    C     0.21008   0.30802   0.70508   0.00000  Uiso   1.00
C100   C     0.21953   0.24583   0.72157   0.00000  Uiso   1.00
C101   C     0.20643   0.10073   0.74438   0.00000  Uiso   1.00
C102   C     0.21898   0.60498   0.69868   0.00000  Uiso   1.00
C103   C     0.11574   0.61257   0.69170   0.00000  Uiso   1.00
C104   C     0.08202   0.68967   0.70206   0.00000  Uiso   1.00
C105   C     0.98936   0.80146   0.71357   0.00000  Uiso   1.00
C106   C     0.39572   0.64978   0.72045   0.00000  Uiso   1.00
C107   C     0.47888   0.68625   0.70211   0.00000  Uiso   1.00
C108   C     0.60739   0.77536   0.70129   0.00000  Uiso   1.00
C109   C     0.66642   0.79509   0.68312   0.00000  Uiso   1.00
C110   C     0.33739   0.50653   0.72270   0.00000  Uiso   1.00
C111   C     0.34691   0.44453   0.73919   0.00000  Uiso   1.00
C112   C     0.28682   0.31297   0.73834   0.00000  Uiso   1.00
C113   C     0.28615   0.67200   0.71542   0.00000  Uiso   1.00
C114   C     0.25257   0.74908   0.72580   0.00000  Uiso   1.00
C115   C     0.14931   0.75680   0.71883   0.00000  Uiso   1.00
H116   H     0.21975   0.47422   0.67660   0.00000  Uiso   1.00
H117   H     0.41855   0.58696   0.65424   0.00000  Uiso   1.00
H118   H     0.15810   0.25618   0.69213   0.00000  Uiso   1.00
H119   H     0.06378   0.56070   0.67874   0.00000  Uiso   1.00
H120   H     0.66858   0.74147   0.63684   0.00000  Uiso   1.00
H121   H     0.11938   0.04401   0.71673   0.00000  Uiso   1.00
H122   H     0.92048   0.68613   0.68850   0.00000  Uiso   1.00
H123   H     0.44801   0.70195   0.73348   0.00000  Uiso   1.00
H124   H     0.65934   0.82720   0.71425   0.00000  Uiso   1.00
H125   H     0.39889   0.49642   0.75214   0.00000  Uiso   1.00
H126   H     0.30457   0.80093   0.73875   0.00000  Uiso   1.00
H127   H     0.86402   0.93645   0.68555   0.00000  Uiso   1.00
H128   H     0.31481   0.23899   0.76544   0.00000  Uiso   1.00
H129   H     0.11591   0.88112   0.73721   0.00000  Uiso   1.00
O130   O     0.90121   0.91721   0.64752   0.00000  Uiso   1.00
O131   O     0.18065   0.00217   0.75233   0.00000  Uiso   1.00
O132   O     0.91971   0.84462   0.71530   0.00000  Uiso   1.00
N133   N     0.68557   0.77019   0.65094   0.00000  Uiso   1.00
N134   N     0.17212   0.11811   0.72563   0.00000  Uiso   1.00
N135   N     0.98614   0.71841   0.69925   0.00000  Uiso   1.00
N136   N     0.79074   0.87511   0.67715   0.00000  Uiso   1.00
N137   N     0.27728   0.22303   0.75184   0.00000  Uiso   1.00
N138   N     0.09130   0.82333   0.72545   0.00000  Uiso   1.00
C139   C     0.52640   0.25435   0.85629   0.00000  Uiso   1.00
C140   C     0.61924   0.20753   0.85204   0.00000  Uiso   1.00
C141   C     0.63885   0.16828   0.83386   0.00000  Uiso   1.00
C142   C     0.72795   0.12882   0.83301   0.00000  Uiso   1.00
C143   C     0.86187   0.05609   0.82386   0.00000  Uiso   1.00
C144   C     0.43952   0.16930   0.87262   0.00000  Uiso   1.00
C145   C     0.30802   0.09793   0.87175   0.00000  Uiso   1.00
C146   C     0.24583   0.02631   0.88823   0.00000  Uiso   1.00
C147   C     0.10073   0.89430   0.91104   0.00000  Uiso   1.00
C148   C     0.60498   0.38600   0.86535   0.00000  Uiso   1.00
C149   C     0.61257   0.49683   0.85836   0.00000  Uiso   1.00
C150   C     0.68967   0.60765   0.86872   0.00000  Uiso   1.00
C151   C     0.80146   0.81210   0.88024   0.00000  Uiso   1.00
C152   C     0.64978   0.25406   0.88712   0.00000  Uiso   1.00
C153   C     0.68625   0.20737   0.86878   0.00000  Uiso   1.00
C154   C     0.77536   0.16797   0.86796   0.00000  Uiso   1.00
C155   C     0.79509   0.12867   0.84978   0.00000  Uiso   1.00
C156   C     0.50653   0.16914   0.88936   0.00000  Uiso   1.00
C157   C     0.44453   0.09762   0.90585   0.00000  Uiso   1.00
C158   C     0.31297   0.02615   0.90501   0.00000  Uiso   1.00
C159   C     0.67200   0.38585   0.88209   0.00000  Uiso   1.00
C160   C     0.74908   0.49651   0.89246   0.00000  Uiso   1.00
C161   C     0.75680   0.60749   0.88550   0.00000  Uiso   1.00
H162   H     0.47422   0.25446   0.84326   0.00000  Uiso   1.00
H163   H     0.58696   0.16841   0.82091   0.00000  Uiso   1.00
H164   H     0.25618   0.09808   0.85880   0.00000  Uiso   1.00
H165   H     0.56070   0.49691   0.84541   0.00000  Uiso   1.00
H166   H     0.74147   0.07289   0.80351   0.00000  Uiso   1.00
H167   H     0.04401   0.92463   0.88340   0.00000  Uiso   1.00
H168   H     0.68613   0.76565   0.85517   0.00000  Uiso   1.00
H169   H     0.70195   0.25394   0.90015   0.00000  Uiso   1.00
H170   H     0.82720   0.16786   0.88092   0.00000  Uiso   1.00
H171   H     0.49642   0.09753   0.91880   0.00000  Uiso   1.00
H172   H     0.80093   0.49636   0.90542   0.00000  Uiso   1.00
H173   H     0.93645   0.07243   0.85221   0.00000  Uiso   1.00
H174   H     0.23899   0.92418   0.93210   0.00000  Uiso   1.00
H175   H     0.88112   0.76520   0.90388   0.00000  Uiso   1.00
O176   O     0.91721   0.01600   0.81418   0.00000  Uiso   1.00
O177   O     0.00217   0.82152   0.91900   0.00000  Uiso   1.00
O178   O     0.84462   0.92491   0.88196   0.00000  Uiso   1.00
N179   N     0.77019   0.08462   0.81761   0.00000  Uiso   1.00
N180   N     0.11811   0.94599   0.89230   0.00000  Uiso   1.00
N181   N     0.71841   0.73227   0.86591   0.00000  Uiso   1.00
N182   N     0.87511   0.08437   0.84382   0.00000  Uiso   1.00
N183   N     0.22303   0.94575   0.91851   0.00000  Uiso   1.00
N184   N     0.82333   0.73203   0.89212   0.00000  Uiso   1.00
C185   C     0.74565   0.27205   0.52296   0.00000  Uiso   1.00
C186   C     0.79247   0.41171   0.51870   0.00000  Uiso   1.00
C187   C     0.83172   0.47056   0.50053   0.00000  Uiso   1.00
C188   C     0.87118   0.59912   0.49968   0.00000  Uiso   1.00
C189   C     0.94391   0.80578   0.49052   0.00000  Uiso   1.00
C190   C     0.83070   0.27022   0.53929   0.00000  Uiso   1.00
C191   C     0.90207   0.21008   0.53842   0.00000  Uiso   1.00
C192   C     0.97369   0.21953   0.55490   0.00000  Uiso   1.00
C193   C     0.10570   0.20643   0.57771   0.00000  Uiso   1.00
C194   C     0.61400   0.21898   0.53201   0.00000  Uiso   1.00
C195   C     0.50317   0.11574   0.52503   0.00000  Uiso   1.00
C196   C     0.39235   0.08202   0.53539   0.00000  Uiso   1.00
C197   C     0.18790   0.98936   0.54690   0.00000  Uiso   1.00
C198   C     0.74594   0.39572   0.55378   0.00000  Uiso   1.00
C199   C     0.79263   0.47888   0.53545   0.00000  Uiso   1.00
C200   C     0.83203   0.60739   0.53463   0.00000  Uiso   1.00
C201   C     0.87133   0.66642   0.51645   0.00000  Uiso   1.00
C202   C     0.83086   0.33739   0.55603   0.00000  Uiso   1.00
C203   C     0.90238   0.34691   0.57252   0.00000  Uiso   1.00
C204   C     0.97385   0.28682   0.57167   0.00000  Uiso   1.00
C205   C     0.61415   0.28615   0.54875   0.00000  Uiso   1.00
C206   C     0.50349   0.25257   0.55913   0.00000  Uiso   1.00
C207   C     0.39251   0.14931   0.55216   0.00000  Uiso   1.00
H208   H     0.74554   0.21975   0.50993   0.00000  Uiso   1.00
H209   H     0.83159   0.41855   0.48757   0.00000  Uiso   1.00
H210   H     0.90192   0.15810   0.52546   0.00000  Uiso   1.00
H211   H     0.50309   0.06378   0.51207   0.00000  Uiso   1.00
H212   H     0.92711   0.66858   0.47017   0.00000  Uiso   1.00
H213   H     0.07537   0.11938   0.55006   0.00000  Uiso   1.00
H214   H     0.23435   0.92048   0.52184   0.00000  Uiso   1.00
H215   H     0.74606   0.44801   0.56682   0.00000  Uiso   1.00
H216   H     0.83214   0.65934   0.54758   0.00000  Uiso   1.00
H217   H     0.90247   0.39889   0.58547   0.00000  Uiso   1.00
H218   H     0.50364   0.30457   0.57208   0.00000  Uiso   1.00
H219   H     0.92757   0.86402   0.51888   0.00000  Uiso   1.00
H220   H     0.07582   0.31481   0.59877   0.00000  Uiso   1.00
H221   H     0.23480   0.11591   0.57054   0.00000  Uiso   1.00
O222   O     0.98400   0.90121   0.48085   0.00000  Uiso   1.00
O223   O     0.17848   0.18065   0.58566   0.00000  Uiso   1.00
O224   O     0.07509   0.91971   0.54863   0.00000  Uiso   1.00
N225   N     0.91538   0.68557   0.48427   0.00000  Uiso   1.00
N226   N     0.05401   0.17212   0.55897   0.00000  Uiso   1.00
N227   N     0.26773   0.98614   0.53258   0.00000  Uiso   1.00
N228   N     0.91563   0.79074   0.51048   0.00000  Uiso   1.00
N229   N     0.05425   0.27728   0.58518   0.00000  Uiso   1.00
N230   N     0.26797   0.09130   0.55879   0.00000  Uiso   1.00
C231   C     0.72795   0.47360   0.18963   0.00000  Uiso   1.00
C232   C     0.58829   0.38076   0.18537   0.00000  Uiso   1.00
C233   C     0.52944   0.36115   0.16719   0.00000  Uiso   1.00
C234   C     0.40088   0.27205   0.16634   0.00000  Uiso   1.00
C235   C     0.19422   0.13813   0.15719   0.00000  Uiso   1.00
C236   C     0.72978   0.56048   0.20596   0.00000  Uiso   1.00
C237   C     0.78992   0.69198   0.20508   0.00000  Uiso   1.00
C238   C     0.78047   0.75417   0.22157   0.00000  Uiso   1.00
C239   C     0.79357   0.89927   0.24438   0.00000  Uiso   1.00
C240   C     0.78102   0.39502   0.19868   0.00000  Uiso   1.00
C241   C     0.88426   0.38743   0.19170   0.00000  Uiso   1.00
C242   C     0.91798   0.31033   0.20206   0.00000  Uiso   1.00
C243   C     0.01064   0.19854   0.21357   0.00000  Uiso   1.00
C244   C     0.60428   0.35022   0.22045   0.00000  Uiso   1.00
C245   C     0.52112   0.31375   0.20211   0.00000  Uiso   1.00
C246   C     0.39261   0.22464   0.20129   0.00000  Uiso   1.00
C247   C     0.33358   0.20491   0.18312   0.00000  Uiso   1.00
C248   C     0.66261   0.49347   0.22270   0.00000  Uiso   1.00
C249   C     0.65309   0.55547   0.23919   0.00000  Uiso   1.00
C250   C     0.71318   0.68703   0.23834   0.00000  Uiso   1.00
C251   C     0.71385   0.32800   0.21542   0.00000  Uiso   1.00
C252   C     0.74743   0.25092   0.22580   0.00000  Uiso   1.00
C253   C     0.85069   0.24320   0.21883   0.00000  Uiso   1.00
H254   H     0.78025   0.52578   0.17660   0.00000  Uiso   1.00
H255   H     0.58145   0.41304   0.15424   0.00000  Uiso   1.00
H256   H     0.84190   0.74382   0.19213   0.00000  Uiso   1.00
H257   H     0.93622   0.43930   0.17874   0.00000  Uiso   1.00
H258   H     0.33142   0.25853   0.13684   0.00000  Uiso   1.00
H259   H     0.88062   0.95599   0.21673   0.00000  Uiso   1.00
H260   H     0.07952   0.31387   0.18850   0.00000  Uiso   1.00
H261   H     0.55199   0.29805   0.23348   0.00000  Uiso   1.00
H262   H     0.34066   0.17280   0.21425   0.00000  Uiso   1.00
H263   H     0.60111   0.50358   0.25214   0.00000  Uiso   1.00
H264   H     0.69543   0.19907   0.23875   0.00000  Uiso   1.00
H265   H     0.13598   0.06355   0.18555   0.00000  Uiso   1.00
H266   H     0.68519   0.76101   0.26544   0.00000  Uiso   1.00
H267   H     0.88409   0.11888   0.23721   0.00000  Uiso   1.00
O268   O     0.09879   0.08279   0.14752   0.00000  Uiso   1.00
O269   O     0.81935   0.99783   0.25233   0.00000  Uiso   1.00
O270   O     0.08029   0.15538   0.21530   0.00000  Uiso   1.00
N271   N     0.31443   0.22981   0.15094   0.00000  Uiso   1.00
N272   N     0.82788   0.88189   0.22563   0.00000  Uiso   1.00
N273   N     0.01386   0.28159   0.19925   0.00000  Uiso   1.00
N274   N     0.20926   0.12489   0.17715   0.00000  Uiso   1.00
N275   N     0.72272   0.77697   0.25184   0.00000  Uiso   1.00
N276   N     0.90870   0.17667   0.22545   0.00000  Uiso   1.00
C277   C     0.74565   0.47360   0.31037   0.00000  Uiso   1.00
C278   C     0.79247   0.38076   0.31463   0.00000  Uiso   1.00
C279   C     0.83172   0.36115   0.33281   0.00000  Uiso   1.00
C280   C     0.87118   0.27205   0.33366   0.00000  Uiso   1.00
C281   C     0.94391   0.13813   0.34281   0.00000  Uiso   1.00
C282   C     0.83070   0.56048   0.29404   0.00000  Uiso   1.00
C283   C     0.90207   0.69198   0.29492   0.00000  Uiso   1.00
C284   C     0.97369   0.75417   0.27843   0.00000  Uiso   1.00
C285   C     0.10570   0.89927   0.25562   0.00000  Uiso   1.00
C286   C     0.61400   0.39502   0.30132   0.00000  Uiso   1.00
C287   C     0.50317   0.38743   0.30830   0.00000  Uiso   1.00
C288   C     0.39235   0.31033   0.29794   0.00000  Uiso   1.00
C289   C     0.18790   0.19854   0.28643   0.00000  Uiso   1.00
C290   C     0.74594   0.35022   0.27955   0.00000  Uiso   1.00
C291   C     0.79263   0.31375   0.29789   0.00000  Uiso   1.00
C292   C     0.83203   0.22464   0.29871   0.00000  Uiso   1.00
C293   C     0.87133   0.20491   0.31688   0.00000  Uiso   1.00
C294   C     0.83086   0.49347   0.27730   0.00000  Uiso   1.00
C295   C     0.90238   0.55547   0.26081   0.00000  Uiso   1.00
C296   C     0.97385   0.68703   0.26166   0.00000  Uiso   1.00
C297   C     0.61415   0.32800   0.28458   0.00000  Uiso   1.00
C298   C     0.50349   0.25092   0.27420   0.00000  Uiso   1.00
C299   C     0.39251   0.24320   0.28117   0.00000  Uiso   1.00
H300   H     0.74554   0.52578   0.32340   0.00000  Uiso   1.00
H301   H     0.83159   0.41304   0.34576   0.00000  Uiso   1.00
H302   H     0.90192   0.74382   0.30787   0.00000  Uiso   1.00
H303   H     0.50309   0.43930   0.32126   0.00000  Uiso   1.00
H304   H     0.92711   0.25853   0.36316   0.00000  Uiso   1.00
H305   H     0.07537   0.95599   0.28327   0.00000  Uiso   1.00
H306   H     0.23435   0.31387   0.31150   0.00000  Uiso   1.00
H307   H     0.74606   0.29805   0.26652   0.00000  Uiso   1.00
H308   H     0.83214   0.17280   0.28575   0.00000  Uiso   1.00
H309   H     0.90247   0.50358   0.24786   0.00000  Uiso   1.00
H310   H     0.50364   0.19907   0.26125   0.00000  Uiso   1.00
H311   H     0.92757   0.06355   0.31445   0.00000  Uiso   1.00
H312   H     0.07582   0.76101   0.23456   0.00000  Uiso   1.00
H313   H     0.23480   0.11888   0.26279   0.00000  Uiso   1.00
O314   O     0.98400   0.08279   0.35248   0.00000  Uiso   1.00
O315   O     0.17848   0.99783   0.24767   0.00000  Uiso   1.00
O316   O     0.07509   0.15538   0.28470   0.00000  Uiso   1.00
N317   N     0.91538   0.22981   0.34906   0.00000  Uiso   1.00
N318   N     0.05401   0.88189   0.27437   0.00000  Uiso   1.00
N319   N     0.26773   0.28159   0.30075   0.00000  Uiso   1.00
N320   N     0.91563   0.12489   0.32285   0.00000  Uiso   1.00
N321   N     0.05425   0.77697   0.24816   0.00000  Uiso   1.00
N322   N     0.26797   0.17667   0.27455   0.00000  Uiso   1.00
C323   C     0.72795   0.25435   0.64371   0.00000  Uiso   1.00
C324   C     0.58829   0.20753   0.64796   0.00000  Uiso   1.00
C325   C     0.52944   0.16828   0.66614   0.00000  Uiso   1.00
C326   C     0.40088   0.12882   0.66699   0.00000  Uiso   1.00
C327   C     0.19422   0.05609   0.67614   0.00000  Uiso   1.00
C328   C     0.72978   0.16930   0.62738   0.00000  Uiso   1.00
C329   C     0.78992   0.09793   0.62825   0.00000  Uiso   1.00
C330   C     0.78047   0.02631   0.61177   0.00000  Uiso   1.00
C331   C     0.79357   0.89430   0.58896   0.00000  Uiso   1.00
C332   C     0.78102   0.38600   0.63465   0.00000  Uiso   1.00
C333   C     0.88426   0.49683   0.64164   0.00000  Uiso   1.00
C334   C     0.91798   0.60765   0.63128   0.00000  Uiso   1.00
C335   C     0.01064   0.81210   0.61976   0.00000  Uiso   1.00
C336   C     0.60428   0.25406   0.61288   0.00000  Uiso   1.00
C337   C     0.52112   0.20737   0.63122   0.00000  Uiso   1.00
C338   C     0.39261   0.16797   0.63204   0.00000  Uiso   1.00
C339   C     0.33358   0.12867   0.65022   0.00000  Uiso   1.00
C340   C     0.66261   0.16914   0.61064   0.00000  Uiso   1.00
C341   C     0.65309   0.09762   0.59415   0.00000  Uiso   1.00
C342   C     0.71318   0.02615   0.59499   0.00000  Uiso   1.00
C343   C     0.71385   0.38585   0.61791   0.00000  Uiso   1.00
C344   C     0.74743   0.49651   0.60754   0.00000  Uiso   1.00
C345   C     0.85069   0.60749   0.61450   0.00000  Uiso   1.00
H346   H     0.78025   0.25446   0.65674   0.00000  Uiso   1.00
H347   H     0.58145   0.16841   0.67909   0.00000  Uiso   1.00
H348   H     0.84190   0.09808   0.64120   0.00000  Uiso   1.00
H349   H     0.93622   0.49691   0.65459   0.00000  Uiso   1.00
H350   H     0.33142   0.07289   0.69649   0.00000  Uiso   1.00
H351   H     0.88062   0.92463   0.61660   0.00000  Uiso   1.00
H352   H     0.07952   0.76565   0.64483   0.00000  Uiso   1.00
H353   H     0.55199   0.25394   0.59985   0.00000  Uiso   1.00
H354   H     0.34066   0.16786   0.61908   0.00000  Uiso   1.00
H355   H     0.60111   0.09753   0.58120   0.00000  Uiso   1.00
H356   H     0.69543   0.49636   0.59458   0.00000  Uiso   1.00
H357   H     0.13598   0.07243   0.64779   0.00000  Uiso   1.00
H358   H     0.68519   0.92418   0.56790   0.00000  Uiso   1.00
H359   H     0.88409   0.76520   0.59612   0.00000  Uiso   1.00
O360   O     0.09879   0.01600   0.68582   0.00000  Uiso   1.00
O361   O     0.81935   0.82152   0.58100   0.00000  Uiso   1.00
O362   O     0.08029   0.92491   0.61804   0.00000  Uiso   1.00
N363   N     0.31443   0.08462   0.68239   0.00000  Uiso   1.00
N364   N     0.82788   0.94599   0.60770   0.00000  Uiso   1.00
N365   N     0.01386   0.73227   0.63409   0.00000  Uiso   1.00
N366   N     0.20926   0.08437   0.65618   0.00000  Uiso   1.00
N367   N     0.72272   0.94575   0.58149   0.00000  Uiso   1.00
N368   N     0.90870   0.73203   0.60788   0.00000  Uiso   1.00
C369   C     0.52640   0.27205   0.97704   0.00000  Uiso   1.00
C370   C     0.61924   0.41171   0.98130   0.00000  Uiso   1.00
C371   C     0.63885   0.47056   0.99947   0.00000  Uiso   1.00
C372   C     0.72795   0.59912   0.00032   0.00000  Uiso   1.00
C373   C     0.86187   0.80578   0.00948   0.00000  Uiso   1.00
C374   C     0.43952   0.27022   0.96071   0.00000  Uiso   1.00
C375   C     0.30802   0.21008   0.96158   0.00000  Uiso   1.00
C376   C     0.24583   0.21953   0.94510   0.00000  Uiso   1.00
C377   C     0.10073   0.20643   0.92229   0.00000  Uiso   1.00
C378   C     0.60498   0.21898   0.96799   0.00000  Uiso   1.00
C379   C     0.61257   0.11574   0.97497   0.00000  Uiso   1.00
C380   C     0.68967   0.08202   0.96461   0.00000  Uiso   1.00
C381   C     0.80146   0.98936   0.95310   0.00000  Uiso   1.00
C382   C     0.64978   0.39572   0.94622   0.00000  Uiso   1.00
C383   C     0.68625   0.47888   0.96455   0.00000  Uiso   1.00
C384   C     0.77536   0.60739   0.96537   0.00000  Uiso   1.00
C385   C     0.79509   0.66642   0.98355   0.00000  Uiso   1.00
C386   C     0.50653   0.33739   0.94397   0.00000  Uiso   1.00
C387   C     0.44453   0.34691   0.92748   0.00000  Uiso   1.00
C388   C     0.31297   0.28682   0.92833   0.00000  Uiso   1.00
C389   C     0.67200   0.28615   0.95125   0.00000  Uiso   1.00
C390   C     0.74908   0.25257   0.94087   0.00000  Uiso   1.00
C391   C     0.75680   0.14931   0.94784   0.00000  Uiso   1.00
H392   H     0.47422   0.21975   0.99007   0.00000  Uiso   1.00
H393   H     0.58696   0.41855   0.01243   0.00000  Uiso   1.00
H394   H     0.25618   0.15810   0.97454   0.00000  Uiso   1.00
H395   H     0.56070   0.06378   0.98793   0.00000  Uiso   1.00
H396   H     0.74147   0.66858   0.02983   0.00000  Uiso   1.00
H397   H     0.04401   0.11938   0.94994   0.00000  Uiso   1.00
H398   H     0.68613   0.92048   0.97816   0.00000  Uiso   1.00
H399   H     0.70195   0.44801   0.93318   0.00000  Uiso   1.00
H400   H     0.82720   0.65934   0.95242   0.00000  Uiso   1.00
H401   H     0.49642   0.39889   0.91453   0.00000  Uiso   1.00
H402   H     0.80093   0.30457   0.92792   0.00000  Uiso   1.00
H403   H     0.93645   0.86402   0.98112   0.00000  Uiso   1.00
H404   H     0.23899   0.31481   0.90123   0.00000  Uiso   1.00
H405   H     0.88112   0.11591   0.92946   0.00000  Uiso   1.00
O406   O     0.91721   0.90121   0.01915   0.00000  Uiso   1.00
O407   O     0.00217   0.18065   0.91434   0.00000  Uiso   1.00
O408   O     0.84462   0.91971   0.95137   0.00000  Uiso   1.00
N409   N     0.77019   0.68557   0.01573   0.00000  Uiso   1.00
N410   N     0.11811   0.17212   0.94103   0.00000  Uiso   1.00
N411   N     0.71841   0.98614   0.96742   0.00000  Uiso   1.00
N412   N     0.87511   0.79074   0.98952   0.00000  Uiso   1.00
N413   N     0.22303   0.27728   0.91482   0.00000  Uiso   1.00
N414   N     0.82333   0.09130   0.94121   0.00000  Uiso   1.00
C415   C     0.25435   0.52640   0.81037   0.00000  Uiso   1.00
C416   C     0.20753   0.61924   0.81463   0.00000  Uiso   1.00
C417   C     0.16828   0.63885   0.83281   0.00000  Uiso   1.00
C418   C     0.12882   0.72795   0.83366   0.00000  Uiso   1.00
C419   C     0.05609   0.86187   0.84281   0.00000  Uiso   1.00
C420   C     0.16930   0.43952   0.79404   0.00000  Uiso   1.00
C421   C     0.09793   0.30802   0.79492   0.00000  Uiso   1.00
C422   C     0.02631   0.24583   0.77843   0.00000  Uiso   1.00
C423   C     0.89430   0.10073   0.75562   0.00000  Uiso   1.00
C424   C     0.38600   0.60498   0.80132   0.00000  Uiso   1.00
C425   C     0.49683   0.61257   0.80830   0.00000  Uiso   1.00
C426   C     0.60765   0.68967   0.79794   0.00000  Uiso   1.00
C427   C     0.81210   0.80146   0.78643   0.00000  Uiso   1.00
C428   C     0.25406   0.64978   0.77955   0.00000  Uiso   1.00
C429   C     0.20737   0.68625   0.79789   0.00000  Uiso   1.00
C430   C     0.16797   0.77536   0.79871   0.00000  Uiso   1.00
C431   C     0.12867   0.79509   0.81688   0.00000  Uiso   1.00
C432   C     0.16914   0.50653   0.77730   0.00000  Uiso   1.00
C433   C     0.09762   0.44453   0.76081   0.00000  Uiso   1.00
C434   C     0.02615   0.31297   0.76166   0.00000  Uiso   1.00
C435   C     0.38585   0.67200   0.78458   0.00000  Uiso   1.00
C436   C     0.49651   0.74908   0.77420   0.00000  Uiso   1.00
C437   C     0.60749   0.75680   0.78117   0.00000  Uiso   1.00
H438   H     0.25446   0.47422   0.82340   0.00000  Uiso   1.00
H439   H     0.16841   0.58696   0.84576   0.00000  Uiso   1.00
H440   H     0.09808   0.25618   0.80787   0.00000  Uiso   1.00
H441   H     0.49691   0.56070   0.82126   0.00000  Uiso   1.00
H442   H     0.07289   0.74147   0.86316   0.00000  Uiso   1.00
H443   H     0.92463   0.04401   0.78327   0.00000  Uiso   1.00
H444   H     0.76565   0.68613   0.81150   0.00000  Uiso   1.00
H445   H     0.25394   0.70195   0.76652   0.00000  Uiso   1.00
H446   H     0.16786   0.82720   0.78575   0.00000  Uiso   1.00
H447   H     0.09753   0.49642   0.74786   0.00000  Uiso   1.00
H448   H     0.49636   0.80093   0.76125   0.00000  Uiso   1.00
H449   H     0.07243   0.93645   0.81445   0.00000  Uiso   1.00
H450   H     0.92418   0.23899   0.73456   0.00000  Uiso   1.00
H451   H     0.76520   0.88112   0.76279   0.00000  Uiso   1.00
O452   O     0.01600   0.91721   0.85248   0.00000  Uiso   1.00
O453   O     0.82152   0.00217   0.74767   0.00000  Uiso   1.00
O454   O     0.92491   0.84462   0.78470   0.00000  Uiso   1.00
N455   N     0.08462   0.77019   0.84906   0.00000  Uiso   1.00
N456   N     0.94599   0.11811   0.77437   0.00000  Uiso   1.00
N457   N     0.73227   0.71841   0.80075   0.00000  Uiso   1.00
N458   N     0.08437   0.87511   0.82285   0.00000  Uiso   1.00
N459   N     0.94575   0.22303   0.74816   0.00000  Uiso   1.00
N460   N     0.73203   0.82333   0.77455   0.00000  Uiso   1.00
C461   C     0.27205   0.74565   0.14371   0.00000  Uiso   1.00
C462   C     0.41171   0.79247   0.14796   0.00000  Uiso   1.00
C463   C     0.47056   0.83172   0.16614   0.00000  Uiso   1.00
C464   C     0.59912   0.87118   0.16699   0.00000  Uiso   1.00
C465   C     0.80578   0.94391   0.17614   0.00000  Uiso   1.00
C466   C     0.27022   0.83070   0.12738   0.00000  Uiso   1.00
C467   C     0.21008   0.90207   0.12825   0.00000  Uiso   1.00
C468   C     0.21953   0.97369   0.11177   0.00000  Uiso   1.00
C469   C     0.20643   0.10570   0.08896   0.00000  Uiso   1.00
C470   C     0.21898   0.61400   0.13465   0.00000  Uiso   1.00
C471   C     0.11574   0.50317   0.14164   0.00000  Uiso   1.00
C472   C     0.08202   0.39235   0.13128   0.00000  Uiso   1.00
C473   C     0.98936   0.18790   0.11976   0.00000  Uiso   1.00
C474   C     0.39572   0.74594   0.11288   0.00000  Uiso   1.00
C475   C     0.47888   0.79263   0.13122   0.00000  Uiso   1.00
C476   C     0.60739   0.83203   0.13204   0.00000  Uiso   1.00
C477   C     0.66642   0.87133   0.15022   0.00000  Uiso   1.00
C478   C     0.33739   0.83086   0.11064   0.00000  Uiso   1.00
C479   C     0.34691   0.90238   0.09415   0.00000  Uiso   1.00
C480   C     0.28682   0.97385   0.09499   0.00000  Uiso   1.00
C481   C     0.28615   0.61415   0.11791   0.00000  Uiso   1.00
C482   C     0.25257   0.50349   0.10754   0.00000  Uiso   1.00
C483   C     0.14931   0.39251   0.11450   0.00000  Uiso   1.00
H484   H     0.21975   0.74554   0.15674   0.00000  Uiso   1.00
H485   H     0.41855   0.83159   0.17909   0.00000  Uiso   1.00
H486   H     0.15810   0.90192   0.14120   0.00000  Uiso   1.00
H487   H     0.06378   0.50309   0.15459   0.00000  Uiso   1.00
H488   H     0.66858   0.92711   0.19649   0.00000  Uiso   1.00
H489   H     0.11938   0.07537   0.11660   0.00000  Uiso   1.00
H490   H     0.92048   0.23435   0.14483   0.00000  Uiso   1.00
H491   H     0.44801   0.74606   0.09985   0.00000  Uiso   1.00
H492   H     0.65934   0.83214   0.11908   0.00000  Uiso   1.00
H493   H     0.39889   0.90247   0.08120   0.00000  Uiso   1.00
H494   H     0.30457   0.50364   0.09458   0.00000  Uiso   1.00
H495   H     0.86402   0.92757   0.14779   0.00000  Uiso   1.00
H496   H     0.31481   0.07582   0.06790   0.00000  Uiso   1.00
H497   H     0.11591   0.23480   0.09612   0.00000  Uiso   1.00
O498   O     0.90121   0.98400   0.18582   0.00000  Uiso   1.00
O499   O     0.18065   0.17848   0.08100   0.00000  Uiso   1.00
O500   O     0.91971   0.07509   0.11804   0.00000  Uiso   1.00
N501   N     0.68557   0.91538   0.18239   0.00000  Uiso   1.00
N502   N     0.17212   0.05401   0.10770   0.00000  Uiso   1.00
N503   N     0.98614   0.26773   0.13409   0.00000  Uiso   1.00
N504   N     0.79074   0.91563   0.15618   0.00000  Uiso   1.00
N505   N     0.27728   0.05425   0.08149   0.00000  Uiso   1.00
N506   N     0.09130   0.26797   0.10788   0.00000  Uiso   1.00
C507   C     0.47360   0.72795   0.47704   0.00000  Uiso   1.00
C508   C     0.38076   0.58829   0.48130   0.00000  Uiso   1.00
C509   C     0.36115   0.52944   0.49947   0.00000  Uiso   1.00
C510   C     0.27205   0.40088   0.50032   0.00000  Uiso   1.00
C511   C     0.13813   0.19422   0.50948   0.00000  Uiso   1.00
C512   C     0.56048   0.72978   0.46071   0.00000  Uiso   1.00
C513   C     0.69198   0.78992   0.46158   0.00000  Uiso   1.00
C514   C     0.75417   0.78047   0.44510   0.00000  Uiso   1.00
C515   C     0.89927   0.79357   0.42229   0.00000  Uiso   1.00
C516   C     0.39502   0.78102   0.46799   0.00000  Uiso   1.00
C517   C     0.38743   0.88426   0.47497   0.00000  Uiso   1.00
C518   C     0.31033   0.91798   0.46461   0.00000  Uiso   1.00
C519   C     0.19854   0.01064   0.45310   0.00000  Uiso   1.00
C520   C     0.35022   0.60428   0.44622   0.00000  Uiso   1.00
C521   C     0.31375   0.52112   0.46455   0.00000  Uiso   1.00
C522   C     0.22464   0.39261   0.46537   0.00000  Uiso   1.00
C523   C     0.20491   0.33358   0.48355   0.00000  Uiso   1.00
C524   C     0.49347   0.66261   0.44397   0.00000  Uiso   1.00
C525   C     0.55547   0.65309   0.42748   0.00000  Uiso   1.00
C526   C     0.68703   0.71318   0.42833   0.00000  Uiso   1.00
C527   C     0.32800   0.71385   0.45125   0.00000  Uiso   1.00
C528   C     0.25092   0.74743   0.44087   0.00000  Uiso   1.00
C529   C     0.24320   0.85069   0.44784   0.00000  Uiso   1.00
H530   H     0.52578   0.78025   0.49007   0.00000  Uiso   1.00
H531   H     0.41304   0.58145   0.51243   0.00000  Uiso   1.00
H532   H     0.74382   0.84190   0.47454   0.00000  Uiso   1.00
H533   H     0.43930   0.93622   0.48793   0.00000  Uiso   1.00
H534   H     0.25853   0.33142   0.52983   0.00000  Uiso   1.00
H535   H     0.95599   0.88062   0.44994   0.00000  Uiso   1.00
H536   H     0.31387   0.07952   0.47816   0.00000  Uiso   1.00
H537   H     0.29805   0.55199   0.43318   0.00000  Uiso   1.00
H538   H     0.17280   0.34066   0.45242   0.00000  Uiso   1.00
H539   H     0.50358   0.60111   0.41453   0.00000  Uiso   1.00
H540   H     0.19907   0.69543   0.42792   0.00000  Uiso   1.00
H541   H     0.06355   0.13598   0.48112   0.00000  Uiso   1.00
H542   H     0.76101   0.68519   0.40123   0.00000  Uiso   1.00
H543   H     0.11888   0.88409   0.42946   0.00000  Uiso   1.00
O544   O     0.08279   0.09879   0.51915   0.00000  Uiso   1.00
O545   O     0.99783   0.81935   0.41434   0.00000  Uiso   1.00
O546   O     0.15538   0.08029   0.45137   0.00000  Uiso   1.00
N547   N     0.22981   0.31443   0.51573   0.00000  Uiso   1.00
N548   N     0.88189   0.82788   0.44103   0.00000  Uiso   1.00
N549   N     0.28159   0.01386   0.46742   0.00000  Uiso   1.00
N550   N     0.12489   0.20926   0.48952   0.00000  Uiso   1.00
N551   N     0.77697   0.72272   0.41482   0.00000  Uiso   1.00
N552   N     0.17667   0.90870   0.44121   0.00000  Uiso   1.00
