data_job_05224
_audit_creation_date              2018-12-19
_audit_creation_method            'Materials Studio'
_symmetry_space_group_name_H-M    'P1'
_symmetry_Int_Tables_number       1
_symmetry_cell_setting            triclinic
loop_
_symmetry_equiv_pos_as_xyz
  x,y,z
_cell_length_a                    21.6502
_cell_length_b                    15.4916
_cell_length_c                    14.6957
_cell_angle_alpha                 90.0000
_cell_angle_beta                  90.0000
_cell_angle_gamma                 90.0000
loop_
_atom_site_label
_atom_site_type_symbol
_atom_site_fract_x
_atom_site_fract_y
_atom_site_fract_z
_atom_site_U_iso_or_equiv
_atom_site_adp_type
_atom_site_occupancy
C1     C     0.44257   0.26957   0.36264   0.00000  Uiso   1.00
C2     C     0.49291   0.22234   0.30981   0.00000  Uiso   1.00
C3     C     0.55195   0.20443   0.34136   0.00000  Uiso   1.00
C4     C     0.59119   0.16060   0.28263   0.00000  Uiso   1.00
C5     C     0.67227   0.09111   0.21383   0.00000  Uiso   1.00
C6     C     0.42349   0.34598   0.30357   0.00000  Uiso   1.00
C7     C     0.42416   0.43201   0.32988   0.00000  Uiso   1.00
C8     C     0.40495   0.49226   0.26591   0.00000  Uiso   1.00
C9     C     0.37822   0.61470   0.18745   0.00000  Uiso   1.00
C10    C     0.38714   0.20888   0.36463   0.00000  Uiso   1.00
C11    C     0.35723   0.17966   0.44227   0.00000  Uiso   1.00
C12    C     0.30742   0.12449   0.42970   0.00000  Uiso   1.00
C13    C     0.22424   0.03407   0.44603   0.00000  Uiso   1.00
C14    C     0.40727   0.22358   0.20225   0.00000  Uiso   1.00
C15    C     0.47373   0.19737   0.22269   0.00000  Uiso   1.00
C16    C     0.51289   0.15355   0.16390   0.00000  Uiso   1.00
C17    C     0.57198   0.13557   0.19536   0.00000  Uiso   1.00
C18    C     0.40431   0.32100   0.21646   0.00000  Uiso   1.00
C19    C     0.38510   0.38113   0.15243   0.00000  Uiso   1.00
C20    C     0.38574   0.46723   0.17863   0.00000  Uiso   1.00
C21    C     0.36796   0.18390   0.27751   0.00000  Uiso   1.00
C22    C     0.31818   0.12877   0.26481   0.00000  Uiso   1.00
C23    C     0.28821   0.09946   0.34242   0.00000  Uiso   1.00
H24    H     0.45750   0.28902   0.43047   0.00000  Uiso   1.00
H25    H     0.56677   0.22378   0.40878   0.00000  Uiso   1.00
H26    H     0.43899   0.45133   0.39731   0.00000  Uiso   1.00
H27    H     0.37209   0.19900   0.50968   0.00000  Uiso   1.00
H28    H     0.67947   0.14046   0.34630   0.00000  Uiso   1.00
H29    H     0.41002   0.62025   0.32213   0.00000  Uiso   1.00
H30    H     0.26893   0.08818   0.55908   0.00000  Uiso   1.00
H31    H     0.39234   0.20413   0.13442   0.00000  Uiso   1.00
H32    H     0.49804   0.13422   0.09649   0.00000  Uiso   1.00
H33    H     0.37026   0.36177   0.08502   0.00000  Uiso   1.00
H34    H     0.30335   0.10945   0.19739   0.00000  Uiso   1.00
H35    H     0.62368   0.06778   0.09283   0.00000  Uiso   1.00
H36    H     0.35423   0.54756   0.06866   0.00000  Uiso   1.00
H37    H     0.21314   0.01549   0.30561   0.00000  Uiso   1.00
O38    O     0.72229   0.05969   0.19994   0.00000  Uiso   1.00
O39    O     0.36877   0.68915   0.16823   0.00000  Uiso   1.00
O40    O     0.18367   0.99108   0.47911   0.00000  Uiso   1.00
N41    N     0.65183   0.13293   0.29186   0.00000  Uiso   1.00
N42    N     0.39992   0.58151   0.26925   0.00000  Uiso   1.00
N43    N     0.26800   0.08408   0.49078   0.00000  Uiso   1.00
N44    N     0.62181   0.09382   0.15547   0.00000  Uiso   1.00
N45    N     0.36990   0.54239   0.13286   0.00000  Uiso   1.00
N46    N     0.23799   0.04497   0.35439   0.00000  Uiso   1.00
C47    C     0.94257   0.76957   0.86264   0.00000  Uiso   1.00
C48    C     0.99291   0.72234   0.80981   0.00000  Uiso   1.00
C49    C     0.05195   0.70443   0.84136   0.00000  Uiso   1.00
C50    C     0.09119   0.66060   0.78263   0.00000  Uiso   1.00
C51    C     0.17227   0.59111   0.71383   0.00000  Uiso   1.00
C52    C     0.92349   0.84598   0.80357   0.00000  Uiso   1.00
C53    C     0.92416   0.93201   0.82988   0.00000  Uiso   1.00
C54    C     0.90495   0.99226   0.76591   0.00000  Uiso   1.00
C55    C     0.87822   0.11470   0.68745   0.00000  Uiso   1.00
C56    C     0.88714   0.70888   0.86463   0.00000  Uiso   1.00
C57    C     0.85723   0.67966   0.94227   0.00000  Uiso   1.00
C58    C     0.80742   0.62449   0.92970   0.00000  Uiso   1.00
C59    C     0.72424   0.53407   0.94603   0.00000  Uiso   1.00
C60    C     0.90727   0.72358   0.70225   0.00000  Uiso   1.00
C61    C     0.97373   0.69737   0.72269   0.00000  Uiso   1.00
C62    C     0.01289   0.65355   0.66390   0.00000  Uiso   1.00
C63    C     0.07198   0.63557   0.69536   0.00000  Uiso   1.00
C64    C     0.90431   0.82100   0.71646   0.00000  Uiso   1.00
C65    C     0.88510   0.88113   0.65243   0.00000  Uiso   1.00
C66    C     0.88574   0.96723   0.67863   0.00000  Uiso   1.00
C67    C     0.86796   0.68390   0.77751   0.00000  Uiso   1.00
C68    C     0.81818   0.62877   0.76481   0.00000  Uiso   1.00
C69    C     0.78821   0.59946   0.84242   0.00000  Uiso   1.00
H70    H     0.95750   0.78902   0.93047   0.00000  Uiso   1.00
H71    H     0.06677   0.72378   0.90878   0.00000  Uiso   1.00
H72    H     0.93899   0.95133   0.89731   0.00000  Uiso   1.00
H73    H     0.87209   0.69900   0.00968   0.00000  Uiso   1.00
H74    H     0.17947   0.64046   0.84630   0.00000  Uiso   1.00
H75    H     0.91002   0.12025   0.82213   0.00000  Uiso   1.00
H76    H     0.76893   0.58818   0.05908   0.00000  Uiso   1.00
H77    H     0.89234   0.70413   0.63442   0.00000  Uiso   1.00
H78    H     0.99804   0.63422   0.59649   0.00000  Uiso   1.00
H79    H     0.87026   0.86177   0.58502   0.00000  Uiso   1.00
H80    H     0.80335   0.60945   0.69739   0.00000  Uiso   1.00
H81    H     0.12368   0.56778   0.59283   0.00000  Uiso   1.00
H82    H     0.85423   0.04756   0.56866   0.00000  Uiso   1.00
H83    H     0.71314   0.51549   0.80561   0.00000  Uiso   1.00
O84    O     0.22229   0.55969   0.69994   0.00000  Uiso   1.00
O85    O     0.86877   0.18915   0.66823   0.00000  Uiso   1.00
O86    O     0.68367   0.49108   0.97911   0.00000  Uiso   1.00
N87    N     0.15183   0.63293   0.79186   0.00000  Uiso   1.00
N88    N     0.89992   0.08151   0.76925   0.00000  Uiso   1.00
N89    N     0.76800   0.58408   0.99078   0.00000  Uiso   1.00
N90    N     0.12181   0.59382   0.65547   0.00000  Uiso   1.00
N91    N     0.86990   0.04239   0.63286   0.00000  Uiso   1.00
N92    N     0.73799   0.54497   0.85439   0.00000  Uiso   1.00
C93    C     0.55743   0.73043   0.36264   0.00000  Uiso   1.00
C94    C     0.50709   0.77766   0.30981   0.00000  Uiso   1.00
C95    C     0.44805   0.79557   0.34136   0.00000  Uiso   1.00
C96    C     0.40881   0.83940   0.28263   0.00000  Uiso   1.00
C97    C     0.32773   0.90889   0.21383   0.00000  Uiso   1.00
C98    C     0.57651   0.65402   0.30357   0.00000  Uiso   1.00
C99    C     0.57584   0.56799   0.32988   0.00000  Uiso   1.00
C100   C     0.59505   0.50774   0.26591   0.00000  Uiso   1.00
C101   C     0.62178   0.38530   0.18745   0.00000  Uiso   1.00
C102   C     0.61286   0.79112   0.36463   0.00000  Uiso   1.00
C103   C     0.64277   0.82034   0.44227   0.00000  Uiso   1.00
C104   C     0.69258   0.87551   0.42970   0.00000  Uiso   1.00
C105   C     0.77576   0.96593   0.44603   0.00000  Uiso   1.00
C106   C     0.59273   0.77642   0.20225   0.00000  Uiso   1.00
C107   C     0.52627   0.80263   0.22269   0.00000  Uiso   1.00
C108   C     0.48711   0.84645   0.16390   0.00000  Uiso   1.00
C109   C     0.42802   0.86443   0.19536   0.00000  Uiso   1.00
C110   C     0.59569   0.67900   0.21646   0.00000  Uiso   1.00
C111   C     0.61490   0.61887   0.15243   0.00000  Uiso   1.00
C112   C     0.61426   0.53277   0.17863   0.00000  Uiso   1.00
C113   C     0.63204   0.81610   0.27751   0.00000  Uiso   1.00
C114   C     0.68182   0.87123   0.26481   0.00000  Uiso   1.00
C115   C     0.71179   0.90054   0.34242   0.00000  Uiso   1.00
H116   H     0.54250   0.71098   0.43047   0.00000  Uiso   1.00
H117   H     0.43323   0.77622   0.40878   0.00000  Uiso   1.00
H118   H     0.56101   0.54867   0.39731   0.00000  Uiso   1.00
H119   H     0.62791   0.80100   0.50968   0.00000  Uiso   1.00
H120   H     0.32053   0.85954   0.34630   0.00000  Uiso   1.00
H121   H     0.58998   0.37975   0.32213   0.00000  Uiso   1.00
H122   H     0.73107   0.91182   0.55908   0.00000  Uiso   1.00
H123   H     0.60766   0.79587   0.13442   0.00000  Uiso   1.00
H124   H     0.50196   0.86578   0.09649   0.00000  Uiso   1.00
H125   H     0.62974   0.63823   0.08502   0.00000  Uiso   1.00
H126   H     0.69665   0.89055   0.19739   0.00000  Uiso   1.00
H127   H     0.37632   0.93222   0.09283   0.00000  Uiso   1.00
H128   H     0.64577   0.45244   0.06866   0.00000  Uiso   1.00
H129   H     0.78686   0.98451   0.30561   0.00000  Uiso   1.00
O130   O     0.27771   0.94031   0.19994   0.00000  Uiso   1.00
O131   O     0.63123   0.31085   0.16823   0.00000  Uiso   1.00
O132   O     0.81633   0.00892   0.47911   0.00000  Uiso   1.00
N133   N     0.34817   0.86707   0.29186   0.00000  Uiso   1.00
N134   N     0.60008   0.41849   0.26925   0.00000  Uiso   1.00
N135   N     0.73200   0.91592   0.49078   0.00000  Uiso   1.00
N136   N     0.37819   0.90618   0.15547   0.00000  Uiso   1.00
N137   N     0.63010   0.45761   0.13286   0.00000  Uiso   1.00
N138   N     0.76201   0.95503   0.35439   0.00000  Uiso   1.00
C139   C     0.05743   0.23043   0.86264   0.00000  Uiso   1.00
C140   C     0.00709   0.27766   0.80981   0.00000  Uiso   1.00
C141   C     0.94805   0.29557   0.84136   0.00000  Uiso   1.00
C142   C     0.90881   0.33940   0.78263   0.00000  Uiso   1.00
C143   C     0.82773   0.40889   0.71383   0.00000  Uiso   1.00
C144   C     0.07651   0.15402   0.80357   0.00000  Uiso   1.00
C145   C     0.07584   0.06799   0.82988   0.00000  Uiso   1.00
C146   C     0.09505   0.00774   0.76591   0.00000  Uiso   1.00
C147   C     0.12178   0.88530   0.68745   0.00000  Uiso   1.00
C148   C     0.11286   0.29112   0.86463   0.00000  Uiso   1.00
C149   C     0.14277   0.32034   0.94227   0.00000  Uiso   1.00
C150   C     0.19258   0.37551   0.92970   0.00000  Uiso   1.00
C151   C     0.27576   0.46593   0.94603   0.00000  Uiso   1.00
C152   C     0.09273   0.27642   0.70225   0.00000  Uiso   1.00
C153   C     0.02627   0.30263   0.72269   0.00000  Uiso   1.00
C154   C     0.98711   0.34645   0.66390   0.00000  Uiso   1.00
C155   C     0.92802   0.36443   0.69536   0.00000  Uiso   1.00
C156   C     0.09569   0.17900   0.71646   0.00000  Uiso   1.00
C157   C     0.11490   0.11887   0.65243   0.00000  Uiso   1.00
C158   C     0.11426   0.03277   0.67863   0.00000  Uiso   1.00
C159   C     0.13204   0.31610   0.77751   0.00000  Uiso   1.00
C160   C     0.18182   0.37123   0.76481   0.00000  Uiso   1.00
C161   C     0.21179   0.40054   0.84242   0.00000  Uiso   1.00
H162   H     0.04250   0.21098   0.93047   0.00000  Uiso   1.00
H163   H     0.93323   0.27622   0.90878   0.00000  Uiso   1.00
H164   H     0.06101   0.04867   0.89731   0.00000  Uiso   1.00
H165   H     0.12791   0.30100   0.00968   0.00000  Uiso   1.00
H166   H     0.82053   0.35954   0.84630   0.00000  Uiso   1.00
H167   H     0.08998   0.87975   0.82213   0.00000  Uiso   1.00
H168   H     0.23107   0.41182   0.05908   0.00000  Uiso   1.00
H169   H     0.10766   0.29587   0.63442   0.00000  Uiso   1.00
H170   H     0.00196   0.36578   0.59649   0.00000  Uiso   1.00
H171   H     0.12974   0.13823   0.58502   0.00000  Uiso   1.00
H172   H     0.19665   0.39055   0.69739   0.00000  Uiso   1.00
H173   H     0.87632   0.43222   0.59283   0.00000  Uiso   1.00
H174   H     0.14577   0.95244   0.56866   0.00000  Uiso   1.00
H175   H     0.28686   0.48451   0.80561   0.00000  Uiso   1.00
O176   O     0.77771   0.44031   0.69994   0.00000  Uiso   1.00
O177   O     0.13123   0.81085   0.66823   0.00000  Uiso   1.00
O178   O     0.31633   0.50892   0.97911   0.00000  Uiso   1.00
N179   N     0.84817   0.36707   0.79186   0.00000  Uiso   1.00
N180   N     0.10008   0.91849   0.76925   0.00000  Uiso   1.00
N181   N     0.23200   0.41592   0.99078   0.00000  Uiso   1.00
N182   N     0.87819   0.40618   0.65547   0.00000  Uiso   1.00
N183   N     0.13010   0.95761   0.63286   0.00000  Uiso   1.00
N184   N     0.26201   0.45503   0.85439   0.00000  Uiso   1.00
C185   C     0.94257   0.23043   0.36264   0.00000  Uiso   1.00
C186   C     0.99291   0.27766   0.30981   0.00000  Uiso   1.00
C187   C     0.05195   0.29557   0.34136   0.00000  Uiso   1.00
C188   C     0.09119   0.33940   0.28263   0.00000  Uiso   1.00
C189   C     0.17227   0.40889   0.21383   0.00000  Uiso   1.00
C190   C     0.92349   0.15402   0.30357   0.00000  Uiso   1.00
C191   C     0.92416   0.06799   0.32988   0.00000  Uiso   1.00
C192   C     0.90495   0.00774   0.26591   0.00000  Uiso   1.00
C193   C     0.87822   0.88530   0.18745   0.00000  Uiso   1.00
C194   C     0.88714   0.29112   0.36463   0.00000  Uiso   1.00
C195   C     0.85723   0.32034   0.44227   0.00000  Uiso   1.00
C196   C     0.80742   0.37551   0.42970   0.00000  Uiso   1.00
C197   C     0.72424   0.46593   0.44603   0.00000  Uiso   1.00
C198   C     0.90727   0.27642   0.20225   0.00000  Uiso   1.00
C199   C     0.97373   0.30263   0.22269   0.00000  Uiso   1.00
C200   C     0.01289   0.34645   0.16390   0.00000  Uiso   1.00
C201   C     0.07198   0.36443   0.19536   0.00000  Uiso   1.00
C202   C     0.90431   0.17900   0.21646   0.00000  Uiso   1.00
C203   C     0.88510   0.11887   0.15243   0.00000  Uiso   1.00
C204   C     0.88574   0.03277   0.17863   0.00000  Uiso   1.00
C205   C     0.86796   0.31610   0.27751   0.00000  Uiso   1.00
C206   C     0.81818   0.37123   0.26481   0.00000  Uiso   1.00
C207   C     0.78821   0.40054   0.34242   0.00000  Uiso   1.00
H208   H     0.95750   0.21098   0.43047   0.00000  Uiso   1.00
H209   H     0.06677   0.27622   0.40878   0.00000  Uiso   1.00
H210   H     0.93899   0.04867   0.39731   0.00000  Uiso   1.00
H211   H     0.87209   0.30100   0.50968   0.00000  Uiso   1.00
H212   H     0.17947   0.35954   0.34630   0.00000  Uiso   1.00
H213   H     0.91002   0.87975   0.32213   0.00000  Uiso   1.00
H214   H     0.76893   0.41182   0.55908   0.00000  Uiso   1.00
H215   H     0.89234   0.29587   0.13442   0.00000  Uiso   1.00
H216   H     0.99804   0.36578   0.09649   0.00000  Uiso   1.00
H217   H     0.87026   0.13823   0.08502   0.00000  Uiso   1.00
H218   H     0.80335   0.39055   0.19739   0.00000  Uiso   1.00
H219   H     0.12368   0.43222   0.09283   0.00000  Uiso   1.00
H220   H     0.85423   0.95244   0.06866   0.00000  Uiso   1.00
H221   H     0.71314   0.48451   0.30561   0.00000  Uiso   1.00
O222   O     0.22229   0.44031   0.19994   0.00000  Uiso   1.00
O223   O     0.86877   0.81085   0.16823   0.00000  Uiso   1.00
O224   O     0.68367   0.50892   0.47911   0.00000  Uiso   1.00
N225   N     0.15183   0.36707   0.29186   0.00000  Uiso   1.00
N226   N     0.89992   0.91849   0.26925   0.00000  Uiso   1.00
N227   N     0.76800   0.41592   0.49078   0.00000  Uiso   1.00
N228   N     0.12181   0.40618   0.15547   0.00000  Uiso   1.00
N229   N     0.86990   0.95761   0.13286   0.00000  Uiso   1.00
N230   N     0.73799   0.45503   0.35439   0.00000  Uiso   1.00
C231   C     0.44257   0.73043   0.86264   0.00000  Uiso   1.00
C232   C     0.49291   0.77766   0.80981   0.00000  Uiso   1.00
C233   C     0.55195   0.79557   0.84136   0.00000  Uiso   1.00
C234   C     0.59119   0.83940   0.78263   0.00000  Uiso   1.00
C235   C     0.67227   0.90889   0.71383   0.00000  Uiso   1.00
C236   C     0.42349   0.65402   0.80357   0.00000  Uiso   1.00
C237   C     0.42416   0.56799   0.82988   0.00000  Uiso   1.00
C238   C     0.40495   0.50774   0.76591   0.00000  Uiso   1.00
C239   C     0.37822   0.38530   0.68745   0.00000  Uiso   1.00
C240   C     0.38714   0.79112   0.86463   0.00000  Uiso   1.00
C241   C     0.35723   0.82034   0.94227   0.00000  Uiso   1.00
C242   C     0.30742   0.87551   0.92970   0.00000  Uiso   1.00
C243   C     0.22424   0.96593   0.94603   0.00000  Uiso   1.00
C244   C     0.40727   0.77642   0.70225   0.00000  Uiso   1.00
C245   C     0.47373   0.80263   0.72269   0.00000  Uiso   1.00
C246   C     0.51289   0.84645   0.66390   0.00000  Uiso   1.00
C247   C     0.57198   0.86443   0.69536   0.00000  Uiso   1.00
C248   C     0.40431   0.67900   0.71646   0.00000  Uiso   1.00
C249   C     0.38510   0.61887   0.65243   0.00000  Uiso   1.00
C250   C     0.38574   0.53277   0.67863   0.00000  Uiso   1.00
C251   C     0.36796   0.81610   0.77751   0.00000  Uiso   1.00
C252   C     0.31818   0.87123   0.76481   0.00000  Uiso   1.00
C253   C     0.28821   0.90054   0.84242   0.00000  Uiso   1.00
H254   H     0.45750   0.71098   0.93047   0.00000  Uiso   1.00
H255   H     0.56677   0.77622   0.90878   0.00000  Uiso   1.00
H256   H     0.43899   0.54867   0.89731   0.00000  Uiso   1.00
H257   H     0.37209   0.80100   0.00968   0.00000  Uiso   1.00
H258   H     0.67947   0.85954   0.84630   0.00000  Uiso   1.00
H259   H     0.41002   0.37975   0.82213   0.00000  Uiso   1.00
H260   H     0.26893   0.91182   0.05908   0.00000  Uiso   1.00
H261   H     0.39234   0.79587   0.63442   0.00000  Uiso   1.00
H262   H     0.49804   0.86578   0.59649   0.00000  Uiso   1.00
H263   H     0.37026   0.63823   0.58502   0.00000  Uiso   1.00
H264   H     0.30335   0.89055   0.69739   0.00000  Uiso   1.00
H265   H     0.62368   0.93222   0.59283   0.00000  Uiso   1.00
H266   H     0.35423   0.45244   0.56866   0.00000  Uiso   1.00
H267   H     0.21314   0.98451   0.80561   0.00000  Uiso   1.00
O268   O     0.72229   0.94031   0.69994   0.00000  Uiso   1.00
O269   O     0.36877   0.31085   0.66823   0.00000  Uiso   1.00
O270   O     0.18367   0.00892   0.97911   0.00000  Uiso   1.00
N271   N     0.65183   0.86707   0.79186   0.00000  Uiso   1.00
N272   N     0.39992   0.41849   0.76925   0.00000  Uiso   1.00
N273   N     0.26800   0.91592   0.99078   0.00000  Uiso   1.00
N274   N     0.62181   0.90618   0.65547   0.00000  Uiso   1.00
N275   N     0.36990   0.45761   0.63286   0.00000  Uiso   1.00
N276   N     0.23799   0.95503   0.85439   0.00000  Uiso   1.00
C277   C     0.05743   0.76957   0.36264   0.00000  Uiso   1.00
C278   C     0.00709   0.72234   0.30981   0.00000  Uiso   1.00
C279   C     0.94805   0.70443   0.34136   0.00000  Uiso   1.00
C280   C     0.90881   0.66060   0.28263   0.00000  Uiso   1.00
C281   C     0.82773   0.59111   0.21383   0.00000  Uiso   1.00
C282   C     0.07651   0.84598   0.30357   0.00000  Uiso   1.00
C283   C     0.07584   0.93201   0.32988   0.00000  Uiso   1.00
C284   C     0.09505   0.99226   0.26591   0.00000  Uiso   1.00
C285   C     0.12178   0.11470   0.18745   0.00000  Uiso   1.00
C286   C     0.11286   0.70888   0.36463   0.00000  Uiso   1.00
C287   C     0.14277   0.67966   0.44227   0.00000  Uiso   1.00
C288   C     0.19258   0.62449   0.42970   0.00000  Uiso   1.00
C289   C     0.27576   0.53407   0.44603   0.00000  Uiso   1.00
C290   C     0.09273   0.72358   0.20225   0.00000  Uiso   1.00
C291   C     0.02627   0.69737   0.22269   0.00000  Uiso   1.00
C292   C     0.98711   0.65355   0.16390   0.00000  Uiso   1.00
C293   C     0.92802   0.63557   0.19536   0.00000  Uiso   1.00
C294   C     0.09569   0.82100   0.21646   0.00000  Uiso   1.00
C295   C     0.11490   0.88113   0.15243   0.00000  Uiso   1.00
C296   C     0.11426   0.96723   0.17863   0.00000  Uiso   1.00
C297   C     0.13204   0.68390   0.27751   0.00000  Uiso   1.00
C298   C     0.18182   0.62877   0.26481   0.00000  Uiso   1.00
C299   C     0.21179   0.59946   0.34242   0.00000  Uiso   1.00
H300   H     0.04250   0.78902   0.43047   0.00000  Uiso   1.00
H301   H     0.93323   0.72378   0.40878   0.00000  Uiso   1.00
H302   H     0.06101   0.95133   0.39731   0.00000  Uiso   1.00
H303   H     0.12791   0.69900   0.50968   0.00000  Uiso   1.00
H304   H     0.82053   0.64046   0.34630   0.00000  Uiso   1.00
H305   H     0.08998   0.12025   0.32213   0.00000  Uiso   1.00
H306   H     0.23107   0.58818   0.55908   0.00000  Uiso   1.00
H307   H     0.10766   0.70413   0.13442   0.00000  Uiso   1.00
H308   H     0.00196   0.63422   0.09649   0.00000  Uiso   1.00
H309   H     0.12974   0.86177   0.08502   0.00000  Uiso   1.00
H310   H     0.19665   0.60945   0.19739   0.00000  Uiso   1.00
H311   H     0.87632   0.56778   0.09283   0.00000  Uiso   1.00
H312   H     0.14577   0.04756   0.06866   0.00000  Uiso   1.00
H313   H     0.28686   0.51549   0.30561   0.00000  Uiso   1.00
O314   O     0.77771   0.55969   0.19994   0.00000  Uiso   1.00
O315   O     0.13123   0.18915   0.16823   0.00000  Uiso   1.00
O316   O     0.31633   0.49108   0.47911   0.00000  Uiso   1.00
N317   N     0.84817   0.63293   0.29186   0.00000  Uiso   1.00
N318   N     0.10008   0.08151   0.26925   0.00000  Uiso   1.00
N319   N     0.23200   0.58408   0.49078   0.00000  Uiso   1.00
N320   N     0.87819   0.59382   0.15547   0.00000  Uiso   1.00
N321   N     0.13010   0.04239   0.13286   0.00000  Uiso   1.00
N322   N     0.26201   0.54497   0.35439   0.00000  Uiso   1.00
C323   C     0.55743   0.26957   0.86264   0.00000  Uiso   1.00
C324   C     0.50709   0.22234   0.80981   0.00000  Uiso   1.00
C325   C     0.44805   0.20443   0.84136   0.00000  Uiso   1.00
C326   C     0.40881   0.16060   0.78263   0.00000  Uiso   1.00
C327   C     0.32773   0.09111   0.71383   0.00000  Uiso   1.00
C328   C     0.57651   0.34598   0.80357   0.00000  Uiso   1.00
C329   C     0.57584   0.43201   0.82988   0.00000  Uiso   1.00
C330   C     0.59505   0.49226   0.76591   0.00000  Uiso   1.00
C331   C     0.62178   0.61470   0.68745   0.00000  Uiso   1.00
C332   C     0.61286   0.20888   0.86463   0.00000  Uiso   1.00
C333   C     0.64277   0.17966   0.94227   0.00000  Uiso   1.00
C334   C     0.69258   0.12449   0.92970   0.00000  Uiso   1.00
C335   C     0.77576   0.03407   0.94603   0.00000  Uiso   1.00
C336   C     0.59273   0.22358   0.70225   0.00000  Uiso   1.00
C337   C     0.52627   0.19737   0.72269   0.00000  Uiso   1.00
C338   C     0.48711   0.15355   0.66390   0.00000  Uiso   1.00
C339   C     0.42802   0.13557   0.69536   0.00000  Uiso   1.00
C340   C     0.59569   0.32100   0.71646   0.00000  Uiso   1.00
C341   C     0.61490   0.38113   0.65243   0.00000  Uiso   1.00
C342   C     0.61426   0.46723   0.67863   0.00000  Uiso   1.00
C343   C     0.63204   0.18390   0.77751   0.00000  Uiso   1.00
C344   C     0.68182   0.12877   0.76481   0.00000  Uiso   1.00
C345   C     0.71179   0.09946   0.84242   0.00000  Uiso   1.00
H346   H     0.54250   0.28902   0.93047   0.00000  Uiso   1.00
H347   H     0.43323   0.22378   0.90878   0.00000  Uiso   1.00
H348   H     0.56101   0.45133   0.89731   0.00000  Uiso   1.00
H349   H     0.62791   0.19900   0.00968   0.00000  Uiso   1.00
H350   H     0.32053   0.14046   0.84630   0.00000  Uiso   1.00
H351   H     0.58998   0.62025   0.82213   0.00000  Uiso   1.00
H352   H     0.73107   0.08818   0.05908   0.00000  Uiso   1.00
H353   H     0.60766   0.20413   0.63442   0.00000  Uiso   1.00
H354   H     0.50196   0.13422   0.59649   0.00000  Uiso   1.00
H355   H     0.62974   0.36177   0.58502   0.00000  Uiso   1.00
H356   H     0.69665   0.10945   0.69739   0.00000  Uiso   1.00
H357   H     0.37632   0.06778   0.59283   0.00000  Uiso   1.00
H358   H     0.64577   0.54756   0.56866   0.00000  Uiso   1.00
H359   H     0.78686   0.01549   0.80561   0.00000  Uiso   1.00
O360   O     0.27771   0.05969   0.69994   0.00000  Uiso   1.00
O361   O     0.63123   0.68915   0.66823   0.00000  Uiso   1.00
O362   O     0.81633   0.99108   0.97911   0.00000  Uiso   1.00
N363   N     0.34817   0.13293   0.79186   0.00000  Uiso   1.00
N364   N     0.60008   0.58151   0.76925   0.00000  Uiso   1.00
N365   N     0.73200   0.08408   0.99078   0.00000  Uiso   1.00
N366   N     0.37819   0.09382   0.65547   0.00000  Uiso   1.00
N367   N     0.63010   0.54239   0.63286   0.00000  Uiso   1.00
N368   N     0.76201   0.04497   0.85439   0.00000  Uiso   1.00
