data_job_04124
_audit_creation_date              2018-12-19
_audit_creation_method            'Materials Studio'
_symmetry_space_group_name_H-M    'P1'
_symmetry_Int_Tables_number       1
_symmetry_cell_setting            triclinic
loop_
_symmetry_equiv_pos_as_xyz
  x,y,z
_cell_length_a                    24.8219
_cell_length_b                    9.3902
_cell_length_c                    31.1998
_cell_angle_alpha                 90.0000
_cell_angle_beta                  156.3170
_cell_angle_gamma                 90.0000
loop_
_atom_site_label
_atom_site_type_symbol
_atom_site_fract_x
_atom_site_fract_y
_atom_site_fract_z
_atom_site_U_iso_or_equiv
_atom_site_adp_type
_atom_site_occupancy
C1     C     0.32305   0.23584   0.76444   0.00000  Uiso   1.00
C2     C     0.23582   0.36396   0.71208   0.00000  Uiso   1.00
C3     C     0.12971   0.36417   0.66355   0.00000  Uiso   1.00
C4     C     0.06241   0.49218   0.62029   0.00000  Uiso   1.00
C5     C     0.92122   0.67234   0.53816   0.00000  Uiso   1.00
C6     C     0.31355   0.21845   0.70902   0.00000  Uiso   1.00
C7     C     0.27280   0.09631   0.65793   0.00000  Uiso   1.00
C8     C     0.27095   0.10183   0.61212   0.00000  Uiso   1.00
C9     C     0.25053   0.05606   0.52531   0.00000  Uiso   1.00
C10    C     0.46716   0.28064   0.87870   0.00000  Uiso   1.00
C11    C     0.55559   0.21077   0.97030   0.00000  Uiso   1.00
C12    C     0.68309   0.26862   0.06735   0.00000  Uiso   1.00
C13    C     0.90117   0.31940   0.24400   0.00000  Uiso   1.00
C14    C     0.39223   0.46280   0.77392   0.00000  Uiso   1.00
C15    C     0.27340   0.48723   0.71723   0.00000  Uiso   1.00
C16    C     0.20625   0.61527   0.67404   0.00000  Uiso   1.00
C17    C     0.10005   0.61568   0.62546   0.00000  Uiso   1.00
C18    C     0.35113   0.34172   0.71417   0.00000  Uiso   1.00
C19    C     0.34935   0.34742   0.66843   0.00000  Uiso   1.00
C20    C     0.30860   0.22533   0.61728   0.00000  Uiso   1.00
C21    C     0.50474   0.40391   0.88386   0.00000  Uiso   1.00
C22    C     0.63213   0.46188   0.98079   0.00000  Uiso   1.00
C23    C     0.72073   0.39212   0.07251   0.00000  Uiso   1.00
H24    H     0.29379   0.13986   0.76042   0.00000  Uiso   1.00
H25    H     0.10065   0.26874   0.65957   0.00000  Uiso   1.00
H26    H     0.24374   0.00093   0.65397   0.00000  Uiso   1.00
H27    H     0.52648   0.11537   0.96628   0.00000  Uiso   1.00
H28    H     0.90306   0.46599   0.54999   0.00000  Uiso   1.00
H29    H     0.20482   0.90127   0.53821   0.00000  Uiso   1.00
H30    H     0.80103   0.14259   0.19678   0.00000  Uiso   1.00
H31    H     0.42149   0.55877   0.77793   0.00000  Uiso   1.00
H32    H     0.23535   0.71065   0.67804   0.00000  Uiso   1.00
H33    H     0.37844   0.44283   0.67243   0.00000  Uiso   1.00
H34    H     0.66118   0.55728   0.98474   0.00000  Uiso   1.00
H35    H     0.01238   0.82465   0.56498   0.00000  Uiso   1.00
H36    H     0.31415   0.25993   0.55320   0.00000  Uiso   1.00
H37    H     0.91035   0.50126   0.21177   0.00000  Uiso   1.00
O38    O     0.83295   0.73766   0.49142   0.00000  Uiso   1.00
O39    O     0.22886   0.99676   0.47599   0.00000  Uiso   1.00
O40    O     0.01107   0.31337   0.34001   0.00000  Uiso   1.00
N41    N     0.95435   0.52956   0.56724   0.00000  Uiso   1.00
N42    N     0.23646   0.00159   0.55621   0.00000  Uiso   1.00
N43    N     0.79387   0.22718   0.17192   0.00000  Uiso   1.00
N44    N     0.01318   0.72256   0.57531   0.00000  Uiso   1.00
N45    N     0.29528   0.19459   0.56428   0.00000  Uiso   1.00
N46    N     0.85270   0.42018   0.17999   0.00000  Uiso   1.00
C47    C     0.82305   0.73584   0.76444   0.00000  Uiso   1.00
C48    C     0.73582   0.86396   0.71208   0.00000  Uiso   1.00
C49    C     0.62971   0.86417   0.66355   0.00000  Uiso   1.00
C50    C     0.56241   0.99218   0.62029   0.00000  Uiso   1.00
C51    C     0.42122   0.17234   0.53816   0.00000  Uiso   1.00
C52    C     0.81355   0.71845   0.70902   0.00000  Uiso   1.00
C53    C     0.77280   0.59631   0.65793   0.00000  Uiso   1.00
C54    C     0.77095   0.60183   0.61212   0.00000  Uiso   1.00
C55    C     0.75053   0.55606   0.52531   0.00000  Uiso   1.00
C56    C     0.96716   0.78064   0.87870   0.00000  Uiso   1.00
C57    C     0.05559   0.71077   0.97030   0.00000  Uiso   1.00
C58    C     0.18309   0.76862   0.06735   0.00000  Uiso   1.00
C59    C     0.40117   0.81940   0.24400   0.00000  Uiso   1.00
C60    C     0.89223   0.96280   0.77392   0.00000  Uiso   1.00
C61    C     0.77340   0.98723   0.71723   0.00000  Uiso   1.00
C62    C     0.70625   0.11527   0.67404   0.00000  Uiso   1.00
C63    C     0.60005   0.11568   0.62546   0.00000  Uiso   1.00
C64    C     0.85113   0.84172   0.71417   0.00000  Uiso   1.00
C65    C     0.84935   0.84742   0.66843   0.00000  Uiso   1.00
C66    C     0.80860   0.72533   0.61728   0.00000  Uiso   1.00
C67    C     0.00474   0.90391   0.88386   0.00000  Uiso   1.00
C68    C     0.13213   0.96188   0.98079   0.00000  Uiso   1.00
C69    C     0.22073   0.89212   0.07251   0.00000  Uiso   1.00
H70    H     0.79379   0.63986   0.76042   0.00000  Uiso   1.00
H71    H     0.60065   0.76874   0.65957   0.00000  Uiso   1.00
H72    H     0.74374   0.50093   0.65397   0.00000  Uiso   1.00
H73    H     0.02648   0.61537   0.96628   0.00000  Uiso   1.00
H74    H     0.40306   0.96599   0.54999   0.00000  Uiso   1.00
H75    H     0.70482   0.40127   0.53821   0.00000  Uiso   1.00
H76    H     0.30103   0.64259   0.19678   0.00000  Uiso   1.00
H77    H     0.92149   0.05877   0.77793   0.00000  Uiso   1.00
H78    H     0.73535   0.21065   0.67804   0.00000  Uiso   1.00
H79    H     0.87844   0.94283   0.67243   0.00000  Uiso   1.00
H80    H     0.16118   0.05728   0.98474   0.00000  Uiso   1.00
H81    H     0.51238   0.32465   0.56498   0.00000  Uiso   1.00
H82    H     0.81415   0.75993   0.55320   0.00000  Uiso   1.00
H83    H     0.41035   0.00126   0.21177   0.00000  Uiso   1.00
O84    O     0.33295   0.23766   0.49142   0.00000  Uiso   1.00
O85    O     0.72886   0.49676   0.47599   0.00000  Uiso   1.00
O86    O     0.51107   0.81337   0.34001   0.00000  Uiso   1.00
N87    N     0.45435   0.02956   0.56724   0.00000  Uiso   1.00
N88    N     0.73646   0.50159   0.55621   0.00000  Uiso   1.00
N89    N     0.29387   0.72718   0.17192   0.00000  Uiso   1.00
N90    N     0.51318   0.22256   0.57531   0.00000  Uiso   1.00
N91    N     0.79528   0.69459   0.56428   0.00000  Uiso   1.00
N92    N     0.35270   0.92018   0.17999   0.00000  Uiso   1.00
C93    C     0.67695   0.23584   0.23556   0.00000  Uiso   1.00
C94    C     0.76418   0.36396   0.28792   0.00000  Uiso   1.00
C95    C     0.87029   0.36417   0.33645   0.00000  Uiso   1.00
C96    C     0.93759   0.49218   0.37971   0.00000  Uiso   1.00
C97    C     0.07878   0.67234   0.46184   0.00000  Uiso   1.00
C98    C     0.68645   0.21845   0.29098   0.00000  Uiso   1.00
C99    C     0.72720   0.09631   0.34207   0.00000  Uiso   1.00
C100   C     0.72905   0.10183   0.38788   0.00000  Uiso   1.00
C101   C     0.74947   0.05606   0.47469   0.00000  Uiso   1.00
C102   C     0.53284   0.28064   0.12130   0.00000  Uiso   1.00
C103   C     0.44441   0.21077   0.02970   0.00000  Uiso   1.00
C104   C     0.31691   0.26862   0.93265   0.00000  Uiso   1.00
C105   C     0.09883   0.31940   0.75600   0.00000  Uiso   1.00
C106   C     0.60777   0.46280   0.22608   0.00000  Uiso   1.00
C107   C     0.72660   0.48723   0.28277   0.00000  Uiso   1.00
C108   C     0.79375   0.61527   0.32596   0.00000  Uiso   1.00
C109   C     0.89995   0.61568   0.37454   0.00000  Uiso   1.00
C110   C     0.64887   0.34172   0.28583   0.00000  Uiso   1.00
C111   C     0.65065   0.34742   0.33157   0.00000  Uiso   1.00
C112   C     0.69140   0.22533   0.38272   0.00000  Uiso   1.00
C113   C     0.49526   0.40391   0.11614   0.00000  Uiso   1.00
C114   C     0.36787   0.46188   0.01921   0.00000  Uiso   1.00
C115   C     0.27927   0.39212   0.92749   0.00000  Uiso   1.00
H116   H     0.70621   0.13986   0.23958   0.00000  Uiso   1.00
H117   H     0.89935   0.26874   0.34043   0.00000  Uiso   1.00
H118   H     0.75626   0.00093   0.34603   0.00000  Uiso   1.00
H119   H     0.47352   0.11537   0.03372   0.00000  Uiso   1.00
H120   H     0.09694   0.46599   0.45001   0.00000  Uiso   1.00
H121   H     0.79518   0.90127   0.46179   0.00000  Uiso   1.00
H122   H     0.19897   0.14259   0.80322   0.00000  Uiso   1.00
H123   H     0.57851   0.55877   0.22207   0.00000  Uiso   1.00
H124   H     0.76465   0.71065   0.32196   0.00000  Uiso   1.00
H125   H     0.62156   0.44283   0.32757   0.00000  Uiso   1.00
H126   H     0.33882   0.55728   0.01526   0.00000  Uiso   1.00
H127   H     0.98762   0.82465   0.43502   0.00000  Uiso   1.00
H128   H     0.68585   0.25993   0.44680   0.00000  Uiso   1.00
H129   H     0.08965   0.50126   0.78823   0.00000  Uiso   1.00
O130   O     0.16705   0.73766   0.50858   0.00000  Uiso   1.00
O131   O     0.77114   0.99676   0.52401   0.00000  Uiso   1.00
O132   O     0.98893   0.31337   0.65999   0.00000  Uiso   1.00
N133   N     0.04565   0.52956   0.43276   0.00000  Uiso   1.00
N134   N     0.76354   0.00159   0.44379   0.00000  Uiso   1.00
N135   N     0.20613   0.22718   0.82808   0.00000  Uiso   1.00
N136   N     0.98682   0.72256   0.42469   0.00000  Uiso   1.00
N137   N     0.70472   0.19459   0.43572   0.00000  Uiso   1.00
N138   N     0.14730   0.42018   0.82001   0.00000  Uiso   1.00
C139   C     0.17695   0.73584   0.23556   0.00000  Uiso   1.00
C140   C     0.26418   0.86396   0.28792   0.00000  Uiso   1.00
C141   C     0.37029   0.86417   0.33645   0.00000  Uiso   1.00
C142   C     0.43759   0.99218   0.37971   0.00000  Uiso   1.00
C143   C     0.57878   0.17234   0.46184   0.00000  Uiso   1.00
C144   C     0.18645   0.71845   0.29098   0.00000  Uiso   1.00
C145   C     0.22720   0.59631   0.34207   0.00000  Uiso   1.00
C146   C     0.22905   0.60183   0.38788   0.00000  Uiso   1.00
C147   C     0.24947   0.55606   0.47469   0.00000  Uiso   1.00
C148   C     0.03284   0.78064   0.12130   0.00000  Uiso   1.00
C149   C     0.94441   0.71077   0.02970   0.00000  Uiso   1.00
C150   C     0.81691   0.76862   0.93265   0.00000  Uiso   1.00
C151   C     0.59883   0.81940   0.75600   0.00000  Uiso   1.00
C152   C     0.10777   0.96280   0.22608   0.00000  Uiso   1.00
C153   C     0.22660   0.98723   0.28277   0.00000  Uiso   1.00
C154   C     0.29375   0.11527   0.32596   0.00000  Uiso   1.00
C155   C     0.39995   0.11568   0.37454   0.00000  Uiso   1.00
C156   C     0.14887   0.84172   0.28583   0.00000  Uiso   1.00
C157   C     0.15065   0.84742   0.33157   0.00000  Uiso   1.00
C158   C     0.19140   0.72533   0.38272   0.00000  Uiso   1.00
C159   C     0.99526   0.90391   0.11614   0.00000  Uiso   1.00
C160   C     0.86787   0.96188   0.01921   0.00000  Uiso   1.00
C161   C     0.77927   0.89212   0.92749   0.00000  Uiso   1.00
H162   H     0.20621   0.63986   0.23958   0.00000  Uiso   1.00
H163   H     0.39935   0.76874   0.34043   0.00000  Uiso   1.00
H164   H     0.25626   0.50093   0.34603   0.00000  Uiso   1.00
H165   H     0.97352   0.61537   0.03372   0.00000  Uiso   1.00
H166   H     0.59694   0.96599   0.45001   0.00000  Uiso   1.00
H167   H     0.29518   0.40127   0.46179   0.00000  Uiso   1.00
H168   H     0.69897   0.64259   0.80322   0.00000  Uiso   1.00
H169   H     0.07851   0.05877   0.22207   0.00000  Uiso   1.00
H170   H     0.26465   0.21065   0.32196   0.00000  Uiso   1.00
H171   H     0.12156   0.94283   0.32757   0.00000  Uiso   1.00
H172   H     0.83882   0.05728   0.01526   0.00000  Uiso   1.00
H173   H     0.48762   0.32465   0.43502   0.00000  Uiso   1.00
H174   H     0.18585   0.75993   0.44680   0.00000  Uiso   1.00
H175   H     0.58965   0.00126   0.78823   0.00000  Uiso   1.00
O176   O     0.66705   0.23766   0.50858   0.00000  Uiso   1.00
O177   O     0.27114   0.49676   0.52401   0.00000  Uiso   1.00
O178   O     0.48893   0.81337   0.65999   0.00000  Uiso   1.00
N179   N     0.54565   0.02956   0.43276   0.00000  Uiso   1.00
N180   N     0.26354   0.50159   0.44379   0.00000  Uiso   1.00
N181   N     0.70613   0.72718   0.82808   0.00000  Uiso   1.00
N182   N     0.48682   0.22256   0.42469   0.00000  Uiso   1.00
N183   N     0.20472   0.69459   0.43572   0.00000  Uiso   1.00
N184   N     0.64730   0.92018   0.82001   0.00000  Uiso   1.00
