data_job_05594
_audit_creation_date              2018-12-19
_audit_creation_method            'Materials Studio'
_symmetry_space_group_name_H-M    'P1'
_symmetry_Int_Tables_number       1
_symmetry_cell_setting            triclinic
loop_
_symmetry_equiv_pos_as_xyz
  x,y,z
_cell_length_a                    19.6532
_cell_length_b                    15.2179
_cell_length_c                    20.8287
_cell_angle_alpha                 90.0000
_cell_angle_beta                  90.0000
_cell_angle_gamma                 90.0000
loop_
_atom_site_label
_atom_site_type_symbol
_atom_site_fract_x
_atom_site_fract_y
_atom_site_fract_z
_atom_site_U_iso_or_equiv
_atom_site_adp_type
_atom_site_occupancy
C1     C     0.12988   0.21694   0.47113   0.00000  Uiso   1.00
C2     C     0.13589   0.31589   0.48118   0.00000  Uiso   1.00
C3     C     0.17613   0.35705   0.52693   0.00000  Uiso   1.00
C4     C     0.17458   0.44824   0.52839   0.00000  Uiso   1.00
C5     C     0.19003   0.59456   0.55051   0.00000  Uiso   1.00
C6     C     0.05437   0.19541   0.47717   0.00000  Uiso   1.00
C7     C     0.02608   0.13526   0.51955   0.00000  Uiso   1.00
C8     C     0.95591   0.12502   0.51764   0.00000  Uiso   1.00
C9     C     0.84480   0.08423   0.53351   0.00000  Uiso   1.00
C10    C     0.14845   0.20033   0.40110   0.00000  Uiso   1.00
C11    C     0.19925   0.14430   0.37950   0.00000  Uiso   1.00
C12    C     0.20828   0.13819   0.31354   0.00000  Uiso   1.00
C13    C     0.24324   0.10505   0.21129   0.00000  Uiso   1.00
C14    C     0.05557   0.30569   0.39239   0.00000  Uiso   1.00
C15    C     0.09552   0.36410   0.43840   0.00000  Uiso   1.00
C16    C     0.09392   0.45525   0.43980   0.00000  Uiso   1.00
C17    C     0.13415   0.49654   0.48554   0.00000  Uiso   1.00
C18    C     0.01401   0.24361   0.43440   0.00000  Uiso   1.00
C19    C     0.94386   0.23345   0.43242   0.00000  Uiso   1.00
C20    C     0.91547   0.17331   0.47479   0.00000  Uiso   1.00
C21    C     0.10809   0.24854   0.35832   0.00000  Uiso   1.00
C22    C     0.11703   0.24250   0.29238   0.00000  Uiso   1.00
C23    C     0.16784   0.18648   0.27069   0.00000  Uiso   1.00
H24    H     0.16130   0.17940   0.50444   0.00000  Uiso   1.00
H25    H     0.20736   0.31972   0.56002   0.00000  Uiso   1.00
H26    H     0.05733   0.09795   0.55264   0.00000  Uiso   1.00
H27    H     0.23048   0.10701   0.41262   0.00000  Uiso   1.00
H28    H     0.24060   0.49655   0.60280   0.00000  Uiso   1.00
H29    H     0.92426   0.02892   0.58722   0.00000  Uiso   1.00
H30    H     0.28937   0.04800   0.29195   0.00000  Uiso   1.00
H31    H     0.02414   0.34322   0.35908   0.00000  Uiso   1.00
H32    H     0.06267   0.49254   0.40669   0.00000  Uiso   1.00
H33    H     0.91264   0.27077   0.39931   0.00000  Uiso   1.00
H34    H     0.08579   0.27982   0.25929   0.00000  Uiso   1.00
H35    H     0.12317   0.63681   0.47836   0.00000  Uiso   1.00
H36    H     0.80682   0.16918   0.46277   0.00000  Uiso   1.00
H37    H     0.17194   0.18827   0.16751   0.00000  Uiso   1.00
O38    O     0.20969   0.66195   0.57454   0.00000  Uiso   1.00
O39    O     0.79466   0.04842   0.55408   0.00000  Uiso   1.00
O40    O     0.27368   0.07346   0.16670   0.00000  Uiso   1.00
N41    N     0.20769   0.50907   0.56697   0.00000  Uiso   1.00
N42    N     0.91192   0.07187   0.55241   0.00000  Uiso   1.00
N43    N     0.25326   0.08970   0.27636   0.00000  Uiso   1.00
N44    N     0.14450   0.58454   0.50001   0.00000  Uiso   1.00
N45    N     0.84873   0.14735   0.48545   0.00000  Uiso   1.00
N46    N     0.19007   0.16517   0.20940   0.00000  Uiso   1.00
C47    C     0.37012   0.28306   0.47113   0.00000  Uiso   1.00
C48    C     0.36411   0.18411   0.48118   0.00000  Uiso   1.00
C49    C     0.32387   0.14295   0.52693   0.00000  Uiso   1.00
C50    C     0.32542   0.05176   0.52839   0.00000  Uiso   1.00
C51    C     0.30997   0.90544   0.55051   0.00000  Uiso   1.00
C52    C     0.44563   0.30459   0.47717   0.00000  Uiso   1.00
C53    C     0.47392   0.36474   0.51955   0.00000  Uiso   1.00
C54    C     0.54409   0.37498   0.51764   0.00000  Uiso   1.00
C55    C     0.65520   0.41577   0.53351   0.00000  Uiso   1.00
C56    C     0.35155   0.29967   0.40110   0.00000  Uiso   1.00
C57    C     0.30075   0.35570   0.37950   0.00000  Uiso   1.00
C58    C     0.29172   0.36181   0.31354   0.00000  Uiso   1.00
C59    C     0.25676   0.39495   0.21129   0.00000  Uiso   1.00
C60    C     0.44443   0.19431   0.39239   0.00000  Uiso   1.00
C61    C     0.40448   0.13590   0.43840   0.00000  Uiso   1.00
C62    C     0.40608   0.04475   0.43980   0.00000  Uiso   1.00
C63    C     0.36585   0.00346   0.48554   0.00000  Uiso   1.00
C64    C     0.48599   0.25639   0.43440   0.00000  Uiso   1.00
C65    C     0.55614   0.26655   0.43242   0.00000  Uiso   1.00
C66    C     0.58453   0.32669   0.47479   0.00000  Uiso   1.00
C67    C     0.39191   0.25146   0.35832   0.00000  Uiso   1.00
C68    C     0.38297   0.25750   0.29238   0.00000  Uiso   1.00
C69    C     0.33216   0.31352   0.27069   0.00000  Uiso   1.00
H70    H     0.33870   0.32060   0.50444   0.00000  Uiso   1.00
H71    H     0.29264   0.18028   0.56002   0.00000  Uiso   1.00
H72    H     0.44267   0.40205   0.55264   0.00000  Uiso   1.00
H73    H     0.26952   0.39299   0.41262   0.00000  Uiso   1.00
H74    H     0.25940   0.00345   0.60280   0.00000  Uiso   1.00
H75    H     0.57574   0.47108   0.58722   0.00000  Uiso   1.00
H76    H     0.21063   0.45200   0.29195   0.00000  Uiso   1.00
H77    H     0.47586   0.15678   0.35908   0.00000  Uiso   1.00
H78    H     0.43733   0.00746   0.40669   0.00000  Uiso   1.00
H79    H     0.58736   0.22923   0.39931   0.00000  Uiso   1.00
H80    H     0.41421   0.22018   0.25929   0.00000  Uiso   1.00
H81    H     0.37683   0.86319   0.47836   0.00000  Uiso   1.00
H82    H     0.69318   0.33082   0.46277   0.00000  Uiso   1.00
H83    H     0.32806   0.31173   0.16751   0.00000  Uiso   1.00
O84    O     0.29031   0.83805   0.57454   0.00000  Uiso   1.00
O85    O     0.70534   0.45158   0.55408   0.00000  Uiso   1.00
O86    O     0.22632   0.42654   0.16670   0.00000  Uiso   1.00
N87    N     0.29231   0.99093   0.56697   0.00000  Uiso   1.00
N88    N     0.58808   0.42813   0.55241   0.00000  Uiso   1.00
N89    N     0.24674   0.41030   0.27636   0.00000  Uiso   1.00
N90    N     0.35550   0.91546   0.50001   0.00000  Uiso   1.00
N91    N     0.65127   0.35265   0.48545   0.00000  Uiso   1.00
N92    N     0.30993   0.33483   0.20940   0.00000  Uiso   1.00
C93    C     0.87012   0.71694   0.02887   0.00000  Uiso   1.00
C94    C     0.86411   0.81589   0.01882   0.00000  Uiso   1.00
C95    C     0.82387   0.85705   0.97307   0.00000  Uiso   1.00
C96    C     0.82542   0.94824   0.97161   0.00000  Uiso   1.00
C97    C     0.80997   0.09456   0.94949   0.00000  Uiso   1.00
C98    C     0.94563   0.69541   0.02283   0.00000  Uiso   1.00
C99    C     0.97392   0.63526   0.98045   0.00000  Uiso   1.00
C100   C     0.04409   0.62502   0.98236   0.00000  Uiso   1.00
C101   C     0.15520   0.58423   0.96649   0.00000  Uiso   1.00
C102   C     0.85155   0.70033   0.09890   0.00000  Uiso   1.00
C103   C     0.80075   0.64430   0.12050   0.00000  Uiso   1.00
C104   C     0.79172   0.63819   0.18646   0.00000  Uiso   1.00
C105   C     0.75676   0.60505   0.28871   0.00000  Uiso   1.00
C106   C     0.94443   0.80569   0.10761   0.00000  Uiso   1.00
C107   C     0.90448   0.86410   0.06160   0.00000  Uiso   1.00
C108   C     0.90608   0.95525   0.06020   0.00000  Uiso   1.00
C109   C     0.86585   0.99654   0.01446   0.00000  Uiso   1.00
C110   C     0.98599   0.74361   0.06560   0.00000  Uiso   1.00
C111   C     0.05614   0.73345   0.06758   0.00000  Uiso   1.00
C112   C     0.08453   0.67331   0.02521   0.00000  Uiso   1.00
C113   C     0.89191   0.74854   0.14168   0.00000  Uiso   1.00
C114   C     0.88297   0.74250   0.20762   0.00000  Uiso   1.00
C115   C     0.83216   0.68648   0.22931   0.00000  Uiso   1.00
H116   H     0.83870   0.67940   0.99556   0.00000  Uiso   1.00
H117   H     0.79264   0.81972   0.93998   0.00000  Uiso   1.00
H118   H     0.94267   0.59795   0.94736   0.00000  Uiso   1.00
H119   H     0.76952   0.60701   0.08738   0.00000  Uiso   1.00
H120   H     0.75940   0.99655   0.89720   0.00000  Uiso   1.00
H121   H     0.07574   0.52892   0.91278   0.00000  Uiso   1.00
H122   H     0.71063   0.54800   0.20805   0.00000  Uiso   1.00
H123   H     0.97586   0.84322   0.14092   0.00000  Uiso   1.00
H124   H     0.93733   0.99254   0.09331   0.00000  Uiso   1.00
H125   H     0.08736   0.77077   0.10069   0.00000  Uiso   1.00
H126   H     0.91421   0.77982   0.24071   0.00000  Uiso   1.00
H127   H     0.87683   0.13681   0.02164   0.00000  Uiso   1.00
H128   H     0.19318   0.66918   0.03723   0.00000  Uiso   1.00
H129   H     0.82806   0.68827   0.33249   0.00000  Uiso   1.00
O130   O     0.79031   0.16195   0.92546   0.00000  Uiso   1.00
O131   O     0.20534   0.54842   0.94592   0.00000  Uiso   1.00
O132   O     0.72632   0.57346   0.33330   0.00000  Uiso   1.00
N133   N     0.79231   0.00907   0.93303   0.00000  Uiso   1.00
N134   N     0.08808   0.57187   0.94759   0.00000  Uiso   1.00
N135   N     0.74674   0.58970   0.22364   0.00000  Uiso   1.00
N136   N     0.85550   0.08454   0.99999   0.00000  Uiso   1.00
N137   N     0.15127   0.64735   0.01455   0.00000  Uiso   1.00
N138   N     0.80993   0.66517   0.29060   0.00000  Uiso   1.00
C139   C     0.62988   0.78306   0.02887   0.00000  Uiso   1.00
C140   C     0.63589   0.68411   0.01882   0.00000  Uiso   1.00
C141   C     0.67613   0.64295   0.97307   0.00000  Uiso   1.00
C142   C     0.67458   0.55176   0.97161   0.00000  Uiso   1.00
C143   C     0.69003   0.40544   0.94949   0.00000  Uiso   1.00
C144   C     0.55437   0.80459   0.02283   0.00000  Uiso   1.00
C145   C     0.52608   0.86474   0.98045   0.00000  Uiso   1.00
C146   C     0.45591   0.87498   0.98236   0.00000  Uiso   1.00
C147   C     0.34480   0.91577   0.96649   0.00000  Uiso   1.00
C148   C     0.64845   0.79967   0.09890   0.00000  Uiso   1.00
C149   C     0.69925   0.85570   0.12050   0.00000  Uiso   1.00
C150   C     0.70828   0.86181   0.18646   0.00000  Uiso   1.00
C151   C     0.74324   0.89495   0.28871   0.00000  Uiso   1.00
C152   C     0.55557   0.69431   0.10761   0.00000  Uiso   1.00
C153   C     0.59552   0.63590   0.06160   0.00000  Uiso   1.00
C154   C     0.59392   0.54475   0.06020   0.00000  Uiso   1.00
C155   C     0.63415   0.50346   0.01446   0.00000  Uiso   1.00
C156   C     0.51401   0.75639   0.06560   0.00000  Uiso   1.00
C157   C     0.44386   0.76655   0.06758   0.00000  Uiso   1.00
C158   C     0.41547   0.82669   0.02521   0.00000  Uiso   1.00
C159   C     0.60809   0.75146   0.14168   0.00000  Uiso   1.00
C160   C     0.61703   0.75750   0.20762   0.00000  Uiso   1.00
C161   C     0.66784   0.81352   0.22931   0.00000  Uiso   1.00
H162   H     0.66130   0.82060   0.99556   0.00000  Uiso   1.00
H163   H     0.70736   0.68028   0.93998   0.00000  Uiso   1.00
H164   H     0.55733   0.90205   0.94736   0.00000  Uiso   1.00
H165   H     0.73048   0.89299   0.08738   0.00000  Uiso   1.00
H166   H     0.74060   0.50345   0.89720   0.00000  Uiso   1.00
H167   H     0.42426   0.97108   0.91278   0.00000  Uiso   1.00
H168   H     0.78937   0.95200   0.20805   0.00000  Uiso   1.00
H169   H     0.52414   0.65678   0.14092   0.00000  Uiso   1.00
H170   H     0.56267   0.50746   0.09331   0.00000  Uiso   1.00
H171   H     0.41264   0.72923   0.10069   0.00000  Uiso   1.00
H172   H     0.58579   0.72018   0.24071   0.00000  Uiso   1.00
H173   H     0.62317   0.36319   0.02164   0.00000  Uiso   1.00
H174   H     0.30682   0.83082   0.03723   0.00000  Uiso   1.00
H175   H     0.67194   0.81173   0.33249   0.00000  Uiso   1.00
O176   O     0.70969   0.33805   0.92546   0.00000  Uiso   1.00
O177   O     0.29466   0.95158   0.94592   0.00000  Uiso   1.00
O178   O     0.77368   0.92654   0.33330   0.00000  Uiso   1.00
N179   N     0.70769   0.49093   0.93303   0.00000  Uiso   1.00
N180   N     0.41192   0.92813   0.94759   0.00000  Uiso   1.00
N181   N     0.75326   0.91030   0.22364   0.00000  Uiso   1.00
N182   N     0.64450   0.41546   0.99999   0.00000  Uiso   1.00
N183   N     0.34873   0.85265   0.01455   0.00000  Uiso   1.00
N184   N     0.69007   0.83483   0.29060   0.00000  Uiso   1.00
C185   C     0.87012   0.78306   0.52887   0.00000  Uiso   1.00
C186   C     0.86411   0.68411   0.51882   0.00000  Uiso   1.00
C187   C     0.82387   0.64295   0.47307   0.00000  Uiso   1.00
C188   C     0.82542   0.55176   0.47161   0.00000  Uiso   1.00
C189   C     0.80997   0.40544   0.44949   0.00000  Uiso   1.00
C190   C     0.94563   0.80459   0.52283   0.00000  Uiso   1.00
C191   C     0.97392   0.86474   0.48045   0.00000  Uiso   1.00
C192   C     0.04409   0.87498   0.48236   0.00000  Uiso   1.00
C193   C     0.15520   0.91577   0.46649   0.00000  Uiso   1.00
C194   C     0.85155   0.79967   0.59890   0.00000  Uiso   1.00
C195   C     0.80075   0.85570   0.62050   0.00000  Uiso   1.00
C196   C     0.79172   0.86181   0.68646   0.00000  Uiso   1.00
C197   C     0.75676   0.89495   0.78871   0.00000  Uiso   1.00
C198   C     0.94443   0.69431   0.60761   0.00000  Uiso   1.00
C199   C     0.90448   0.63590   0.56160   0.00000  Uiso   1.00
C200   C     0.90608   0.54475   0.56020   0.00000  Uiso   1.00
C201   C     0.86585   0.50346   0.51446   0.00000  Uiso   1.00
C202   C     0.98599   0.75639   0.56560   0.00000  Uiso   1.00
C203   C     0.05614   0.76655   0.56758   0.00000  Uiso   1.00
C204   C     0.08453   0.82669   0.52521   0.00000  Uiso   1.00
C205   C     0.89191   0.75146   0.64168   0.00000  Uiso   1.00
C206   C     0.88297   0.75750   0.70762   0.00000  Uiso   1.00
C207   C     0.83216   0.81352   0.72931   0.00000  Uiso   1.00
H208   H     0.83870   0.82060   0.49556   0.00000  Uiso   1.00
H209   H     0.79264   0.68028   0.43998   0.00000  Uiso   1.00
H210   H     0.94267   0.90205   0.44736   0.00000  Uiso   1.00
H211   H     0.76952   0.89299   0.58738   0.00000  Uiso   1.00
H212   H     0.75940   0.50345   0.39720   0.00000  Uiso   1.00
H213   H     0.07574   0.97108   0.41278   0.00000  Uiso   1.00
H214   H     0.71063   0.95200   0.70805   0.00000  Uiso   1.00
H215   H     0.97586   0.65678   0.64092   0.00000  Uiso   1.00
H216   H     0.93733   0.50746   0.59331   0.00000  Uiso   1.00
H217   H     0.08736   0.72923   0.60069   0.00000  Uiso   1.00
H218   H     0.91421   0.72018   0.74071   0.00000  Uiso   1.00
H219   H     0.87683   0.36319   0.52164   0.00000  Uiso   1.00
H220   H     0.19318   0.83082   0.53723   0.00000  Uiso   1.00
H221   H     0.82806   0.81173   0.83249   0.00000  Uiso   1.00
O222   O     0.79031   0.33805   0.42546   0.00000  Uiso   1.00
O223   O     0.20534   0.95158   0.44592   0.00000  Uiso   1.00
O224   O     0.72632   0.92654   0.83330   0.00000  Uiso   1.00
N225   N     0.79231   0.49093   0.43303   0.00000  Uiso   1.00
N226   N     0.08808   0.92813   0.44759   0.00000  Uiso   1.00
N227   N     0.74674   0.91030   0.72364   0.00000  Uiso   1.00
N228   N     0.85550   0.41546   0.49999   0.00000  Uiso   1.00
N229   N     0.15127   0.85265   0.51455   0.00000  Uiso   1.00
N230   N     0.80993   0.83483   0.79060   0.00000  Uiso   1.00
C231   C     0.62988   0.71694   0.52887   0.00000  Uiso   1.00
C232   C     0.63589   0.81589   0.51882   0.00000  Uiso   1.00
C233   C     0.67613   0.85705   0.47307   0.00000  Uiso   1.00
C234   C     0.67458   0.94824   0.47161   0.00000  Uiso   1.00
C235   C     0.69003   0.09456   0.44949   0.00000  Uiso   1.00
C236   C     0.55437   0.69541   0.52283   0.00000  Uiso   1.00
C237   C     0.52608   0.63526   0.48045   0.00000  Uiso   1.00
C238   C     0.45591   0.62502   0.48236   0.00000  Uiso   1.00
C239   C     0.34480   0.58423   0.46649   0.00000  Uiso   1.00
C240   C     0.64845   0.70033   0.59890   0.00000  Uiso   1.00
C241   C     0.69925   0.64430   0.62050   0.00000  Uiso   1.00
C242   C     0.70828   0.63819   0.68646   0.00000  Uiso   1.00
C243   C     0.74324   0.60505   0.78871   0.00000  Uiso   1.00
C244   C     0.55557   0.80569   0.60761   0.00000  Uiso   1.00
C245   C     0.59552   0.86410   0.56160   0.00000  Uiso   1.00
C246   C     0.59392   0.95525   0.56020   0.00000  Uiso   1.00
C247   C     0.63415   0.99654   0.51446   0.00000  Uiso   1.00
C248   C     0.51401   0.74361   0.56560   0.00000  Uiso   1.00
C249   C     0.44386   0.73345   0.56758   0.00000  Uiso   1.00
C250   C     0.41547   0.67331   0.52521   0.00000  Uiso   1.00
C251   C     0.60809   0.74854   0.64168   0.00000  Uiso   1.00
C252   C     0.61703   0.74250   0.70762   0.00000  Uiso   1.00
C253   C     0.66784   0.68648   0.72931   0.00000  Uiso   1.00
H254   H     0.66130   0.67940   0.49556   0.00000  Uiso   1.00
H255   H     0.70736   0.81972   0.43998   0.00000  Uiso   1.00
H256   H     0.55733   0.59795   0.44736   0.00000  Uiso   1.00
H257   H     0.73048   0.60701   0.58738   0.00000  Uiso   1.00
H258   H     0.74060   0.99655   0.39720   0.00000  Uiso   1.00
H259   H     0.42426   0.52892   0.41278   0.00000  Uiso   1.00
H260   H     0.78937   0.54800   0.70805   0.00000  Uiso   1.00
H261   H     0.52414   0.84322   0.64092   0.00000  Uiso   1.00
H262   H     0.56267   0.99254   0.59331   0.00000  Uiso   1.00
H263   H     0.41264   0.77077   0.60069   0.00000  Uiso   1.00
H264   H     0.58579   0.77982   0.74071   0.00000  Uiso   1.00
H265   H     0.62317   0.13681   0.52164   0.00000  Uiso   1.00
H266   H     0.30682   0.66918   0.53723   0.00000  Uiso   1.00
H267   H     0.67194   0.68827   0.83249   0.00000  Uiso   1.00
O268   O     0.70969   0.16195   0.42546   0.00000  Uiso   1.00
O269   O     0.29466   0.54842   0.44592   0.00000  Uiso   1.00
O270   O     0.77368   0.57346   0.83330   0.00000  Uiso   1.00
N271   N     0.70769   0.00907   0.43303   0.00000  Uiso   1.00
N272   N     0.41192   0.57187   0.44759   0.00000  Uiso   1.00
N273   N     0.75326   0.58970   0.72364   0.00000  Uiso   1.00
N274   N     0.64450   0.08454   0.49999   0.00000  Uiso   1.00
N275   N     0.34873   0.64735   0.51455   0.00000  Uiso   1.00
N276   N     0.69007   0.66517   0.79060   0.00000  Uiso   1.00
C277   C     0.12988   0.28306   0.97113   0.00000  Uiso   1.00
C278   C     0.13589   0.18411   0.98118   0.00000  Uiso   1.00
C279   C     0.17613   0.14295   0.02693   0.00000  Uiso   1.00
C280   C     0.17458   0.05176   0.02839   0.00000  Uiso   1.00
C281   C     0.19003   0.90544   0.05051   0.00000  Uiso   1.00
C282   C     0.05437   0.30459   0.97717   0.00000  Uiso   1.00
C283   C     0.02608   0.36474   0.01955   0.00000  Uiso   1.00
C284   C     0.95591   0.37498   0.01764   0.00000  Uiso   1.00
C285   C     0.84480   0.41577   0.03351   0.00000  Uiso   1.00
C286   C     0.14845   0.29967   0.90110   0.00000  Uiso   1.00
C287   C     0.19925   0.35570   0.87950   0.00000  Uiso   1.00
C288   C     0.20828   0.36181   0.81354   0.00000  Uiso   1.00
C289   C     0.24324   0.39495   0.71129   0.00000  Uiso   1.00
C290   C     0.05557   0.19431   0.89239   0.00000  Uiso   1.00
C291   C     0.09552   0.13590   0.93840   0.00000  Uiso   1.00
C292   C     0.09392   0.04475   0.93980   0.00000  Uiso   1.00
C293   C     0.13415   0.00346   0.98554   0.00000  Uiso   1.00
C294   C     0.01401   0.25639   0.93440   0.00000  Uiso   1.00
C295   C     0.94386   0.26655   0.93242   0.00000  Uiso   1.00
C296   C     0.91547   0.32669   0.97479   0.00000  Uiso   1.00
C297   C     0.10809   0.25146   0.85832   0.00000  Uiso   1.00
C298   C     0.11703   0.25750   0.79238   0.00000  Uiso   1.00
C299   C     0.16784   0.31352   0.77069   0.00000  Uiso   1.00
H300   H     0.16130   0.32060   0.00444   0.00000  Uiso   1.00
H301   H     0.20736   0.18028   0.06002   0.00000  Uiso   1.00
H302   H     0.05733   0.40205   0.05264   0.00000  Uiso   1.00
H303   H     0.23048   0.39299   0.91262   0.00000  Uiso   1.00
H304   H     0.24060   0.00345   0.10280   0.00000  Uiso   1.00
H305   H     0.92426   0.47108   0.08722   0.00000  Uiso   1.00
H306   H     0.28937   0.45200   0.79195   0.00000  Uiso   1.00
H307   H     0.02414   0.15678   0.85908   0.00000  Uiso   1.00
H308   H     0.06267   0.00746   0.90669   0.00000  Uiso   1.00
H309   H     0.91264   0.22923   0.89931   0.00000  Uiso   1.00
H310   H     0.08579   0.22018   0.75929   0.00000  Uiso   1.00
H311   H     0.12317   0.86319   0.97836   0.00000  Uiso   1.00
H312   H     0.80682   0.33082   0.96277   0.00000  Uiso   1.00
H313   H     0.17194   0.31173   0.66751   0.00000  Uiso   1.00
O314   O     0.20969   0.83805   0.07454   0.00000  Uiso   1.00
O315   O     0.79466   0.45158   0.05408   0.00000  Uiso   1.00
O316   O     0.27368   0.42654   0.66670   0.00000  Uiso   1.00
N317   N     0.20769   0.99093   0.06697   0.00000  Uiso   1.00
N318   N     0.91192   0.42813   0.05241   0.00000  Uiso   1.00
N319   N     0.25326   0.41030   0.77636   0.00000  Uiso   1.00
N320   N     0.14450   0.91546   0.00001   0.00000  Uiso   1.00
N321   N     0.84873   0.35265   0.98545   0.00000  Uiso   1.00
N322   N     0.19007   0.33483   0.70940   0.00000  Uiso   1.00
C323   C     0.37012   0.21694   0.97113   0.00000  Uiso   1.00
C324   C     0.36411   0.31589   0.98118   0.00000  Uiso   1.00
C325   C     0.32387   0.35705   0.02693   0.00000  Uiso   1.00
C326   C     0.32542   0.44824   0.02839   0.00000  Uiso   1.00
C327   C     0.30997   0.59456   0.05051   0.00000  Uiso   1.00
C328   C     0.44563   0.19541   0.97717   0.00000  Uiso   1.00
C329   C     0.47392   0.13526   0.01955   0.00000  Uiso   1.00
C330   C     0.54409   0.12502   0.01764   0.00000  Uiso   1.00
C331   C     0.65520   0.08423   0.03351   0.00000  Uiso   1.00
C332   C     0.35155   0.20033   0.90110   0.00000  Uiso   1.00
C333   C     0.30075   0.14430   0.87950   0.00000  Uiso   1.00
C334   C     0.29172   0.13819   0.81354   0.00000  Uiso   1.00
C335   C     0.25676   0.10505   0.71129   0.00000  Uiso   1.00
C336   C     0.44443   0.30569   0.89239   0.00000  Uiso   1.00
C337   C     0.40448   0.36410   0.93840   0.00000  Uiso   1.00
C338   C     0.40608   0.45525   0.93980   0.00000  Uiso   1.00
C339   C     0.36585   0.49654   0.98554   0.00000  Uiso   1.00
C340   C     0.48599   0.24361   0.93440   0.00000  Uiso   1.00
C341   C     0.55614   0.23345   0.93242   0.00000  Uiso   1.00
C342   C     0.58453   0.17331   0.97479   0.00000  Uiso   1.00
C343   C     0.39191   0.24854   0.85832   0.00000  Uiso   1.00
C344   C     0.38297   0.24250   0.79238   0.00000  Uiso   1.00
C345   C     0.33216   0.18648   0.77069   0.00000  Uiso   1.00
H346   H     0.33870   0.17940   0.00444   0.00000  Uiso   1.00
H347   H     0.29264   0.31972   0.06002   0.00000  Uiso   1.00
H348   H     0.44267   0.09795   0.05264   0.00000  Uiso   1.00
H349   H     0.26952   0.10701   0.91262   0.00000  Uiso   1.00
H350   H     0.25940   0.49655   0.10280   0.00000  Uiso   1.00
H351   H     0.57574   0.02892   0.08722   0.00000  Uiso   1.00
H352   H     0.21063   0.04800   0.79195   0.00000  Uiso   1.00
H353   H     0.47586   0.34322   0.85908   0.00000  Uiso   1.00
H354   H     0.43733   0.49254   0.90669   0.00000  Uiso   1.00
H355   H     0.58736   0.27077   0.89931   0.00000  Uiso   1.00
H356   H     0.41421   0.27982   0.75929   0.00000  Uiso   1.00
H357   H     0.37683   0.63681   0.97836   0.00000  Uiso   1.00
H358   H     0.69318   0.16918   0.96277   0.00000  Uiso   1.00
H359   H     0.32806   0.18827   0.66751   0.00000  Uiso   1.00
O360   O     0.29031   0.66195   0.07454   0.00000  Uiso   1.00
O361   O     0.70534   0.04842   0.05408   0.00000  Uiso   1.00
O362   O     0.22632   0.07346   0.66670   0.00000  Uiso   1.00
N363   N     0.29231   0.50907   0.06697   0.00000  Uiso   1.00
N364   N     0.58808   0.07187   0.05241   0.00000  Uiso   1.00
N365   N     0.24674   0.08970   0.77636   0.00000  Uiso   1.00
N366   N     0.35550   0.58454   0.00001   0.00000  Uiso   1.00
N367   N     0.65127   0.14735   0.98545   0.00000  Uiso   1.00
N368   N     0.30993   0.16517   0.70940   0.00000  Uiso   1.00
