data_job_06124
_audit_creation_date              2018-12-19
_audit_creation_method            'Materials Studio'
_symmetry_space_group_name_H-M    'P1'
_symmetry_Int_Tables_number       1
_symmetry_cell_setting            triclinic
loop_
_symmetry_equiv_pos_as_xyz
  x,y,z
_cell_length_a                    16.3358
_cell_length_b                    15.8500
_cell_length_c                    15.7026
_cell_angle_alpha                 107.9800
_cell_angle_beta                  107.4850
_cell_angle_gamma                 107.9690
loop_
_atom_site_label
_atom_site_type_symbol
_atom_site_fract_x
_atom_site_fract_y
_atom_site_fract_z
_atom_site_U_iso_or_equiv
_atom_site_adp_type
_atom_site_occupancy
C1     C     0.54942   0.75167   0.04808   0.00000  Uiso   1.00
C2     C     0.53938   0.70305   0.11677   0.00000  Uiso   1.00
C3     C     0.46517   0.61379   0.09079   0.00000  Uiso   1.00
C4     C     0.46904   0.58195   0.16432   0.00000  Uiso   1.00
C5     C     0.44196   0.49805   0.25639   0.00000  Uiso   1.00
C6     C     0.55740   0.85461   0.09976   0.00000  Uiso   1.00
C7     C     0.49836   0.89278   0.05947   0.00000  Uiso   1.00
C8     C     0.51742   0.98852   0.11868   0.00000  Uiso   1.00
C9     C     0.51836   0.13994   0.18431   0.00000  Uiso   1.00
C10    C     0.64660   0.76736   0.04886   0.00000  Uiso   1.00
C11    C     0.66256   0.73219   0.96576   0.00000  Uiso   1.00
C12    C     0.75672   0.75449   0.98212   0.00000  Uiso   1.00
C13    C     0.89615   0.77044   0.96872   0.00000  Uiso   1.00
C14    C     0.68825   0.85384   0.22486   0.00000  Uiso   1.00
C15    C     0.61479   0.75855   0.21279   0.00000  Uiso   1.00
C16    C     0.61878   0.72683   0.28638   0.00000  Uiso   1.00
C17    C     0.54459   0.63754   0.26052   0.00000  Uiso   1.00
C18    C     0.63281   0.91011   0.19578   0.00000  Uiso   1.00
C19    C     0.65196   0.00582   0.25506   0.00000  Uiso   1.00
C20    C     0.59296   0.04412   0.21488   0.00000  Uiso   1.00
C21    C     0.72201   0.82285   0.14488   0.00000  Uiso   1.00
C22    C     0.81616   0.84522   0.16136   0.00000  Uiso   1.00
C23    C     0.83226   0.81009   0.07832   0.00000  Uiso   1.00
H24    H     0.49071   0.70847   0.97332   0.00000  Uiso   1.00
H25    H     0.40682   0.57087   0.01647   0.00000  Uiso   1.00
H26    H     0.44001   0.84981   0.98515   0.00000  Uiso   1.00
H27    H     0.60418   0.68924   0.89147   0.00000  Uiso   1.00
H28    H     0.34706   0.44281   0.10667   0.00000  Uiso   1.00
H29    H     0.41707   0.03099   0.04062   0.00000  Uiso   1.00
H30    H     0.76325   0.69240   0.84307   0.00000  Uiso   1.00
H31    H     0.74696   0.89705   0.29962   0.00000  Uiso   1.00
H32    H     0.67714   0.76980   0.36068   0.00000  Uiso   1.00
H33    H     0.71033   0.04874   0.32937   0.00000  Uiso   1.00
H34    H     0.87450   0.88817   0.23568   0.00000  Uiso   1.00
H35    H     0.56646   0.60427   0.38605   0.00000  Uiso   1.00
H36    H     0.63647   0.19246   0.32000   0.00000  Uiso   1.00
H37    H     0.98265   0.85386   0.12245   0.00000  Uiso   1.00
O38    O     0.40619   0.43644   0.28065   0.00000  Uiso   1.00
O39    O     0.49804   0.20812   0.19399   0.00000  Uiso   1.00
O40    O     0.95223   0.76389   0.93480   0.00000  Uiso   1.00
N41    N     0.40829   0.49826   0.16404   0.00000  Uiso   1.00
N42    N     0.47373   0.04817   0.10229   0.00000  Uiso   1.00
N43    N     0.79739   0.73164   0.91759   0.00000  Uiso   1.00
N44    N     0.52635   0.58514   0.31437   0.00000  Uiso   1.00
N45    N     0.59179   0.13505   0.25262   0.00000  Uiso   1.00
N46    N     0.91544   0.81852   0.06792   0.00000  Uiso   1.00
C47    C     0.05143   0.54761   0.75237   0.00000  Uiso   1.00
C48    C     0.11613   0.53589   0.70153   0.00000  Uiso   1.00
C49    C     0.08923   0.45921   0.61078   0.00000  Uiso   1.00
C50    C     0.15894   0.46187   0.57698   0.00000  Uiso   1.00
C51    C     0.24523   0.43199   0.48969   0.00000  Uiso   1.00
C52    C     0.10104   0.55463   0.85525   0.00000  Uiso   1.00
C53    C     0.06144   0.49370   0.89374   0.00000  Uiso   1.00
C54    C     0.11845   0.51214   0.98935   0.00000  Uiso   1.00
C55    C     0.18129   0.51140   0.14073   0.00000  Uiso   1.00
C56    C     0.05476   0.64898   0.76981   0.00000  Uiso   1.00
C57    C     0.97624   0.66740   0.73648   0.00000  Uiso   1.00
C58    C     0.99428   0.76528   0.76018   0.00000  Uiso   1.00
C59    C     0.98525   0.91103   0.77890   0.00000  Uiso   1.00
C60    C     0.22307   0.68869   0.85373   0.00000  Uiso   1.00
C61    C     0.20936   0.61252   0.75659   0.00000  Uiso   1.00
C62    C     0.27913   0.61530   0.72292   0.00000  Uiso   1.00
C63    C     0.25234   0.53863   0.63214   0.00000  Uiso   1.00
C64    C     0.19426   0.63125   0.91030   0.00000  Uiso   1.00
C65    C     0.25134   0.64979   0.00588   0.00000  Uiso   1.00
C66    C     0.21185   0.58891   0.04451   0.00000  Uiso   1.00
C67    C     0.14798   0.72561   0.82486   0.00000  Uiso   1.00
C68    C     0.16614   0.82348   0.84862   0.00000  Uiso   1.00
C69    C     0.08767   0.84205   0.81534   0.00000  Uiso   1.00
H70    H     0.97885   0.48795   0.70952   0.00000  Uiso   1.00
H71    H     0.01708   0.39992   0.56820   0.00000  Uiso   1.00
H72    H     0.98930   0.43442   0.85112   0.00000  Uiso   1.00
H73    H     0.90411   0.60808   0.69388   0.00000  Uiso   1.00
H74    H     0.10058   0.33609   0.43582   0.00000  Uiso   1.00
H75    H     0.04199   0.40885   0.03239   0.00000  Uiso   1.00
H76    H     0.86235   0.77506   0.70082   0.00000  Uiso   1.00
H77    H     0.29566   0.74835   0.89660   0.00000  Uiso   1.00
H78    H     0.35127   0.67461   0.76554   0.00000  Uiso   1.00
H79    H     0.32348   0.70910   0.04847   0.00000  Uiso   1.00
H80    H     0.23830   0.88276   0.89123   0.00000  Uiso   1.00
H81    H     0.37182   0.55904   0.59599   0.00000  Uiso   1.00
H82    H     0.31322   0.63180   0.19257   0.00000  Uiso   1.00
H83    H     0.13359   0.99800   0.86100   0.00000  Uiso   1.00
O84    O     0.26708   0.39434   0.42634   0.00000  Uiso   1.00
O85    O     0.19019   0.48981   0.20902   0.00000  Uiso   1.00
O86    O     0.95452   0.97026   0.77400   0.00000  Uiso   1.00
N87    N     0.15678   0.39869   0.49150   0.00000  Uiso   1.00
N88    N     0.10200   0.46671   0.04925   0.00000  Uiso   1.00
N89    N     0.93406   0.80908   0.73928   0.00000  Uiso   1.00
N90    N     0.30273   0.51866   0.57768   0.00000  Uiso   1.00
N91    N     0.24795   0.58667   0.13543   0.00000  Uiso   1.00
N92    N     0.08001   0.92905   0.82547   0.00000  Uiso   1.00
C93    C     0.75201   0.04762   0.54568   0.00000  Uiso   1.00
C94    C     0.70543   0.11619   0.53609   0.00000  Uiso   1.00
C95    C     0.61838   0.09015   0.46033   0.00000  Uiso   1.00
C96    C     0.58815   0.16357   0.46495   0.00000  Uiso   1.00
C97    C     0.50750   0.25546   0.43823   0.00000  Uiso   1.00
C98    C     0.85088   0.09731   0.55120   0.00000  Uiso   1.00
C99    C     0.88613   0.05538   0.48813   0.00000  Uiso   1.00
C100   C     0.97835   0.11292   0.50548   0.00000  Uiso   1.00
C101   C     0.12353   0.17547   0.50225   0.00000  Uiso   1.00
C102   C     0.76901   0.05045   0.64768   0.00000  Uiso   1.00
C103   C     0.73544   0.96912   0.66575   0.00000  Uiso   1.00
C104   C     0.75875   0.98720   0.76433   0.00000  Uiso   1.00
C105   C     0.77682   0.97700   0.91091   0.00000  Uiso   1.00
C106   C     0.85312   0.22433   0.68861   0.00000  Uiso   1.00
C107   C     0.76035   0.21218   0.61373   0.00000  Uiso   1.00
C108   C     0.73025   0.28566   0.61847   0.00000  Uiso   1.00
C109   C     0.64317   0.25973   0.54272   0.00000  Uiso   1.00
C110   C     0.90580   0.19329   0.62883   0.00000  Uiso   1.00
C111   C     0.99799   0.25090   0.64627   0.00000  Uiso   1.00
C112   C     0.03337   0.20907   0.58325   0.00000  Uiso   1.00
C113   C     0.82393   0.14644   0.72532   0.00000  Uiso   1.00
C114   C     0.84730   0.16464   0.82389   0.00000  Uiso   1.00
C115   C     0.81377   0.08336   0.84210   0.00000  Uiso   1.00
H116   H     0.70926   0.97289   0.48523   0.00000  Uiso   1.00
H117   H     0.57591   0.01586   0.40025   0.00000  Uiso   1.00
H118   H     0.84362   0.98110   0.42807   0.00000  Uiso   1.00
H119   H     0.69295   0.89486   0.60565   0.00000  Uiso   1.00
H120   H     0.45230   0.10584   0.34026   0.00000  Uiso   1.00
H121   H     0.01679   0.03253   0.39892   0.00000  Uiso   1.00
H122   H     0.69907   0.85067   0.77340   0.00000  Uiso   1.00
H123   H     0.89588   0.29906   0.74905   0.00000  Uiso   1.00
H124   H     0.77276   0.35994   0.67856   0.00000  Uiso   1.00
H125   H     0.04047   0.32517   0.70636   0.00000  Uiso   1.00
H126   H     0.88980   0.23893   0.88395   0.00000  Uiso   1.00
H127   H     0.61207   0.38510   0.56614   0.00000  Uiso   1.00
H128   H     0.17656   0.31179   0.62480   0.00000  Uiso   1.00
H129   H     0.85885   0.12994   0.99927   0.00000  Uiso   1.00
O130   O     0.44784   0.27964   0.40204   0.00000  Uiso   1.00
O131   O     0.18844   0.18345   0.47902   0.00000  Uiso   1.00
O132   O     0.77160   0.94486   0.97032   0.00000  Uiso   1.00
N133   N     0.50679   0.16320   0.40311   0.00000  Uiso   1.00
N134   N     0.03455   0.09467   0.45794   0.00000  Uiso   1.00
N135   N     0.73753   0.92465   0.80805   0.00000  Uiso   1.00
N136   N     0.59276   0.31348   0.52465   0.00000  Uiso   1.00
N137   N     0.12052   0.24494   0.57948   0.00000  Uiso   1.00
N138   N     0.82351   0.07492   0.92959   0.00000  Uiso   1.00
C139   C     0.45058   0.24833   0.95192   0.00000  Uiso   1.00
C140   C     0.46062   0.29695   0.88323   0.00000  Uiso   1.00
C141   C     0.53483   0.38621   0.90921   0.00000  Uiso   1.00
C142   C     0.53096   0.41805   0.83568   0.00000  Uiso   1.00
C143   C     0.55803   0.50195   0.74361   0.00000  Uiso   1.00
C144   C     0.44260   0.14539   0.90024   0.00000  Uiso   1.00
C145   C     0.50164   0.10722   0.94053   0.00000  Uiso   1.00
C146   C     0.48258   0.01148   0.88132   0.00000  Uiso   1.00
C147   C     0.48164   0.86006   0.81569   0.00000  Uiso   1.00
C148   C     0.35340   0.23264   0.95114   0.00000  Uiso   1.00
C149   C     0.33744   0.26781   0.03424   0.00000  Uiso   1.00
C150   C     0.24328   0.24551   0.01788   0.00000  Uiso   1.00
C151   C     0.10385   0.22956   0.03128   0.00000  Uiso   1.00
C152   C     0.31175   0.14616   0.77514   0.00000  Uiso   1.00
C153   C     0.38521   0.24145   0.78721   0.00000  Uiso   1.00
C154   C     0.38122   0.27317   0.71362   0.00000  Uiso   1.00
C155   C     0.45541   0.36246   0.73948   0.00000  Uiso   1.00
C156   C     0.36719   0.08989   0.80422   0.00000  Uiso   1.00
C157   C     0.34804   0.99418   0.74494   0.00000  Uiso   1.00
C158   C     0.40704   0.95588   0.78512   0.00000  Uiso   1.00
C159   C     0.27799   0.17715   0.85512   0.00000  Uiso   1.00
C160   C     0.18384   0.15478   0.83864   0.00000  Uiso   1.00
C161   C     0.16774   0.18991   0.92168   0.00000  Uiso   1.00
H162   H     0.50929   0.29153   0.02668   0.00000  Uiso   1.00
H163   H     0.59318   0.42913   0.98353   0.00000  Uiso   1.00
H164   H     0.55999   0.15019   0.01485   0.00000  Uiso   1.00
H165   H     0.39582   0.31076   0.10853   0.00000  Uiso   1.00
H166   H     0.65294   0.55719   0.89333   0.00000  Uiso   1.00
H167   H     0.58293   0.96901   0.95938   0.00000  Uiso   1.00
H168   H     0.23675   0.30760   0.15693   0.00000  Uiso   1.00
H169   H     0.25304   0.10295   0.70038   0.00000  Uiso   1.00
H170   H     0.32286   0.23020   0.63932   0.00000  Uiso   1.00
H171   H     0.28967   0.95126   0.67063   0.00000  Uiso   1.00
H172   H     0.12550   0.11183   0.76432   0.00000  Uiso   1.00
H173   H     0.43354   0.39573   0.61395   0.00000  Uiso   1.00
H174   H     0.36353   0.80754   0.68000   0.00000  Uiso   1.00
H175   H     0.01735   0.14614   0.87755   0.00000  Uiso   1.00
O176   O     0.59381   0.56356   0.71935   0.00000  Uiso   1.00
O177   O     0.50196   0.79188   0.80601   0.00000  Uiso   1.00
O178   O     0.04777   0.23611   0.06520   0.00000  Uiso   1.00
N179   N     0.59171   0.50174   0.83596   0.00000  Uiso   1.00
N180   N     0.52627   0.95182   0.89771   0.00000  Uiso   1.00
N181   N     0.20261   0.26836   0.08241   0.00000  Uiso   1.00
N182   N     0.47365   0.41486   0.68563   0.00000  Uiso   1.00
N183   N     0.40821   0.86495   0.74738   0.00000  Uiso   1.00
N184   N     0.08456   0.18148   0.93208   0.00000  Uiso   1.00
C185   C     0.94857   0.45239   0.24763   0.00000  Uiso   1.00
C186   C     0.88387   0.46411   0.29847   0.00000  Uiso   1.00
C187   C     0.91077   0.54079   0.38922   0.00000  Uiso   1.00
C188   C     0.84106   0.53813   0.42302   0.00000  Uiso   1.00
C189   C     0.75477   0.56801   0.51031   0.00000  Uiso   1.00
C190   C     0.89896   0.44537   0.14475   0.00000  Uiso   1.00
C191   C     0.93855   0.50630   0.10626   0.00000  Uiso   1.00
C192   C     0.88155   0.48786   0.01065   0.00000  Uiso   1.00
C193   C     0.81871   0.48860   0.85927   0.00000  Uiso   1.00
C194   C     0.94524   0.35102   0.23019   0.00000  Uiso   1.00
C195   C     0.02376   0.33260   0.26352   0.00000  Uiso   1.00
C196   C     0.00572   0.23472   0.23982   0.00000  Uiso   1.00
C197   C     0.01475   0.08897   0.22110   0.00000  Uiso   1.00
C198   C     0.77693   0.31131   0.14627   0.00000  Uiso   1.00
C199   C     0.79064   0.38748   0.24341   0.00000  Uiso   1.00
C200   C     0.72087   0.38470   0.27708   0.00000  Uiso   1.00
C201   C     0.74766   0.46137   0.36787   0.00000  Uiso   1.00
C202   C     0.80574   0.36875   0.08970   0.00000  Uiso   1.00
C203   C     0.74866   0.35021   0.99412   0.00000  Uiso   1.00
C204   C     0.78815   0.41109   0.95549   0.00000  Uiso   1.00
C205   C     0.85202   0.27439   0.17514   0.00000  Uiso   1.00
C206   C     0.83386   0.17652   0.15138   0.00000  Uiso   1.00
C207   C     0.91233   0.15795   0.18466   0.00000  Uiso   1.00
H208   H     0.02115   0.51205   0.29048   0.00000  Uiso   1.00
H209   H     0.98292   0.60008   0.43180   0.00000  Uiso   1.00
H210   H     0.01070   0.56558   0.14888   0.00000  Uiso   1.00
H211   H     0.09589   0.39192   0.30612   0.00000  Uiso   1.00
H212   H     0.89942   0.66391   0.56418   0.00000  Uiso   1.00
H213   H     0.95801   0.59115   0.96761   0.00000  Uiso   1.00
H214   H     0.13765   0.22494   0.29918   0.00000  Uiso   1.00
H215   H     0.70434   0.25165   0.10340   0.00000  Uiso   1.00
H216   H     0.64873   0.32539   0.23446   0.00000  Uiso   1.00
H217   H     0.67652   0.29090   0.95153   0.00000  Uiso   1.00
H218   H     0.76170   0.11724   0.10877   0.00000  Uiso   1.00
H219   H     0.62818   0.44096   0.40401   0.00000  Uiso   1.00
H220   H     0.68678   0.36820   0.80743   0.00000  Uiso   1.00
H221   H     0.86641   0.00200   0.13900   0.00000  Uiso   1.00
O222   O     0.73292   0.60566   0.57366   0.00000  Uiso   1.00
O223   O     0.80981   0.51019   0.79098   0.00000  Uiso   1.00
O224   O     0.04548   0.02974   0.22600   0.00000  Uiso   1.00
N225   N     0.84322   0.60131   0.50850   0.00000  Uiso   1.00
N226   N     0.89800   0.53329   0.95075   0.00000  Uiso   1.00
N227   N     0.06594   0.19092   0.26072   0.00000  Uiso   1.00
N228   N     0.69727   0.48134   0.42232   0.00000  Uiso   1.00
N229   N     0.75204   0.41333   0.86457   0.00000  Uiso   1.00
N230   N     0.91999   0.07095   0.17453   0.00000  Uiso   1.00
C231   C     0.24799   0.95238   0.45432   0.00000  Uiso   1.00
C232   C     0.29457   0.88381   0.46391   0.00000  Uiso   1.00
C233   C     0.38162   0.90985   0.53967   0.00000  Uiso   1.00
C234   C     0.41185   0.83643   0.53505   0.00000  Uiso   1.00
C235   C     0.49250   0.74453   0.56177   0.00000  Uiso   1.00
C236   C     0.14912   0.90269   0.44880   0.00000  Uiso   1.00
C237   C     0.11387   0.94462   0.51187   0.00000  Uiso   1.00
C238   C     0.02165   0.88708   0.49452   0.00000  Uiso   1.00
C239   C     0.87647   0.82453   0.49775   0.00000  Uiso   1.00
C240   C     0.23099   0.94955   0.35232   0.00000  Uiso   1.00
C241   C     0.26456   0.03088   0.33425   0.00000  Uiso   1.00
C242   C     0.24125   0.01280   0.23567   0.00000  Uiso   1.00
C243   C     0.22318   0.02300   0.08909   0.00000  Uiso   1.00
C244   C     0.14688   0.77567   0.31139   0.00000  Uiso   1.00
C245   C     0.23965   0.78782   0.38627   0.00000  Uiso   1.00
C246   C     0.26975   0.71434   0.38153   0.00000  Uiso   1.00
C247   C     0.35683   0.74027   0.45728   0.00000  Uiso   1.00
C248   C     0.09420   0.80671   0.37117   0.00000  Uiso   1.00
C249   C     0.00201   0.74910   0.35373   0.00000  Uiso   1.00
C250   C     0.96663   0.79093   0.41675   0.00000  Uiso   1.00
C251   C     0.17607   0.85356   0.27468   0.00000  Uiso   1.00
C252   C     0.15270   0.83536   0.17611   0.00000  Uiso   1.00
C253   C     0.18623   0.91664   0.15790   0.00000  Uiso   1.00
H254   H     0.29074   0.02711   0.51477   0.00000  Uiso   1.00
H255   H     0.42409   0.98414   0.59975   0.00000  Uiso   1.00
H256   H     0.15638   0.01890   0.57193   0.00000  Uiso   1.00
H257   H     0.30705   0.10514   0.39435   0.00000  Uiso   1.00
H258   H     0.54770   0.89416   0.65974   0.00000  Uiso   1.00
H259   H     0.98321   0.96747   0.60108   0.00000  Uiso   1.00
H260   H     0.30093   0.14933   0.22660   0.00000  Uiso   1.00
H261   H     0.10412   0.70094   0.25095   0.00000  Uiso   1.00
H262   H     0.22724   0.64006   0.32144   0.00000  Uiso   1.00
H263   H     0.95953   0.67483   0.29364   0.00000  Uiso   1.00
H264   H     0.11020   0.76107   0.11605   0.00000  Uiso   1.00
H265   H     0.38793   0.61490   0.43386   0.00000  Uiso   1.00
H266   H     0.82343   0.68821   0.37520   0.00000  Uiso   1.00
H267   H     0.14115   0.87006   0.00073   0.00000  Uiso   1.00
O268   O     0.55216   0.72036   0.59796   0.00000  Uiso   1.00
O269   O     0.81156   0.81655   0.52098   0.00000  Uiso   1.00
O270   O     0.22840   0.05514   0.02968   0.00000  Uiso   1.00
N271   N     0.49321   0.83679   0.59689   0.00000  Uiso   1.00
N272   N     0.96545   0.90533   0.54206   0.00000  Uiso   1.00
N273   N     0.26247   0.07535   0.19195   0.00000  Uiso   1.00
N274   N     0.40724   0.68652   0.47535   0.00000  Uiso   1.00
N275   N     0.87948   0.75506   0.42052   0.00000  Uiso   1.00
N276   N     0.17649   0.92508   0.07041   0.00000  Uiso   1.00
