data_job_05690
_audit_creation_date              2018-12-19
_audit_creation_method            'Materials Studio'
_symmetry_space_group_name_H-M    'P1'
_symmetry_Int_Tables_number       1
_symmetry_cell_setting            triclinic
loop_
_symmetry_equiv_pos_as_xyz
  x,y,z
_cell_length_a                    31.9249
_cell_length_b                    12.4634
_cell_length_c                    13.5512
_cell_angle_alpha                 90.0000
_cell_angle_beta                  90.0000
_cell_angle_gamma                 90.0000
loop_
_atom_site_label
_atom_site_type_symbol
_atom_site_fract_x
_atom_site_fract_y
_atom_site_fract_z
_atom_site_U_iso_or_equiv
_atom_site_adp_type
_atom_site_occupancy
C1     C     0.84358   0.35623   0.40848   0.00000  Uiso   1.00
C2     C     0.83272   0.24671   0.36531   0.00000  Uiso   1.00
C3     C     0.80020   0.18085   0.39614   0.00000  Uiso   1.00
C4     C     0.79545   0.08372   0.34723   0.00000  Uiso   1.00
C5     C     0.77452   0.91822   0.29195   0.00000  Uiso   1.00
C6     C     0.88926   0.34921   0.44077   0.00000  Uiso   1.00
C7     C     0.90427   0.36956   0.53505   0.00000  Uiso   1.00
C8     C     0.94711   0.35873   0.54965   0.00000  Uiso   1.00
C9     C     0.01396   0.35245   0.61151   0.00000  Uiso   1.00
C10    C     0.84261   0.43480   0.32226   0.00000  Uiso   1.00
C11    C     0.81841   0.52713   0.31689   0.00000  Uiso   1.00
C12    C     0.82198   0.58838   0.23172   0.00000  Uiso   1.00
C13    C     0.81640   0.71499   0.10956   0.00000  Uiso   1.00
C14    C     0.89296   0.30086   0.26679   0.00000  Uiso   1.00
C15    C     0.85954   0.21664   0.28836   0.00000  Uiso   1.00
C16    C     0.85483   0.11959   0.23938   0.00000  Uiso   1.00
C17    C     0.82232   0.05360   0.27013   0.00000  Uiso   1.00
C18    C     0.91608   0.31914   0.36382   0.00000  Uiso   1.00
C19    C     0.95890   0.30829   0.37829   0.00000  Uiso   1.00
C20    C     0.97398   0.32861   0.47256   0.00000  Uiso   1.00
C21    C     0.86943   0.40473   0.24530   0.00000  Uiso   1.00
C22    C     0.87304   0.46586   0.16013   0.00000  Uiso   1.00
C23    C     0.84885   0.55825   0.15462   0.00000  Uiso   1.00
H24    H     0.82270   0.37964   0.46839   0.00000  Uiso   1.00
H25    H     0.77946   0.20415   0.45571   0.00000  Uiso   1.00
H26    H     0.88351   0.39284   0.59458   0.00000  Uiso   1.00
H27    H     0.79766   0.55038   0.37645   0.00000  Uiso   1.00
H28    H     0.74335   0.99630   0.40773   0.00000  Uiso   1.00
H29    H     0.96275   0.39420   0.70055   0.00000  Uiso   1.00
H30    H     0.78172   0.72641   0.24058   0.00000  Uiso   1.00
H31    H     0.91384   0.27744   0.20688   0.00000  Uiso   1.00
H32    H     0.87560   0.09634   0.17983   0.00000  Uiso   1.00
H33    H     0.97965   0.28502   0.31872   0.00000  Uiso   1.00
H34    H     0.89380   0.44256   0.10059   0.00000  Uiso   1.00
H35    H     0.82138   0.90879   0.18382   0.00000  Uiso   1.00
H36    H     0.04078   0.30670   0.47665   0.00000  Uiso   1.00
H37    H     0.85975   0.63890   0.01668   0.00000  Uiso   1.00
O38    O     0.75557   0.83524   0.28273   0.00000  Uiso   1.00
O39    O     0.04342   0.35728   0.66689   0.00000  Uiso   1.00
O40    O     0.80591   0.79313   0.06343   0.00000  Uiso   1.00
N41    N     0.76696   0.00057   0.35873   0.00000  Uiso   1.00
N42    N     0.97208   0.37256   0.63250   0.00000  Uiso   1.00
N43    N     0.80284   0.68316   0.20248   0.00000  Uiso   1.00
N44    N     0.80894   0.95348   0.23825   0.00000  Uiso   1.00
N45    N     0.01407   0.32548   0.51202   0.00000  Uiso   1.00
N46    N     0.84483   0.63608   0.08200   0.00000  Uiso   1.00
C47    C     0.34358   0.85623   0.40848   0.00000  Uiso   1.00
C48    C     0.33272   0.74671   0.36531   0.00000  Uiso   1.00
C49    C     0.30020   0.68085   0.39614   0.00000  Uiso   1.00
C50    C     0.29545   0.58372   0.34723   0.00000  Uiso   1.00
C51    C     0.27452   0.41822   0.29195   0.00000  Uiso   1.00
C52    C     0.38926   0.84921   0.44077   0.00000  Uiso   1.00
C53    C     0.40427   0.86956   0.53505   0.00000  Uiso   1.00
C54    C     0.44711   0.85873   0.54965   0.00000  Uiso   1.00
C55    C     0.51396   0.85245   0.61151   0.00000  Uiso   1.00
C56    C     0.34261   0.93480   0.32226   0.00000  Uiso   1.00
C57    C     0.31841   0.02713   0.31689   0.00000  Uiso   1.00
C58    C     0.32198   0.08838   0.23172   0.00000  Uiso   1.00
C59    C     0.31640   0.21499   0.10956   0.00000  Uiso   1.00
C60    C     0.39296   0.80086   0.26679   0.00000  Uiso   1.00
C61    C     0.35954   0.71664   0.28836   0.00000  Uiso   1.00
C62    C     0.35483   0.61959   0.23938   0.00000  Uiso   1.00
C63    C     0.32232   0.55360   0.27013   0.00000  Uiso   1.00
C64    C     0.41608   0.81914   0.36382   0.00000  Uiso   1.00
C65    C     0.45890   0.80829   0.37829   0.00000  Uiso   1.00
C66    C     0.47398   0.82861   0.47256   0.00000  Uiso   1.00
C67    C     0.36943   0.90473   0.24530   0.00000  Uiso   1.00
C68    C     0.37304   0.96586   0.16013   0.00000  Uiso   1.00
C69    C     0.34885   0.05825   0.15462   0.00000  Uiso   1.00
H70    H     0.32270   0.87964   0.46839   0.00000  Uiso   1.00
H71    H     0.27946   0.70415   0.45571   0.00000  Uiso   1.00
H72    H     0.38351   0.89284   0.59458   0.00000  Uiso   1.00
H73    H     0.29766   0.05038   0.37645   0.00000  Uiso   1.00
H74    H     0.24335   0.49630   0.40773   0.00000  Uiso   1.00
H75    H     0.46275   0.89420   0.70055   0.00000  Uiso   1.00
H76    H     0.28172   0.22641   0.24058   0.00000  Uiso   1.00
H77    H     0.41384   0.77744   0.20688   0.00000  Uiso   1.00
H78    H     0.37560   0.59634   0.17983   0.00000  Uiso   1.00
H79    H     0.47965   0.78502   0.31872   0.00000  Uiso   1.00
H80    H     0.39380   0.94256   0.10059   0.00000  Uiso   1.00
H81    H     0.32138   0.40879   0.18382   0.00000  Uiso   1.00
H82    H     0.54078   0.80670   0.47665   0.00000  Uiso   1.00
H83    H     0.35975   0.13890   0.01668   0.00000  Uiso   1.00
O84    O     0.25557   0.33524   0.28273   0.00000  Uiso   1.00
O85    O     0.54342   0.85728   0.66689   0.00000  Uiso   1.00
O86    O     0.30591   0.29313   0.06343   0.00000  Uiso   1.00
N87    N     0.26696   0.50057   0.35873   0.00000  Uiso   1.00
N88    N     0.47208   0.87256   0.63250   0.00000  Uiso   1.00
N89    N     0.30284   0.18316   0.20248   0.00000  Uiso   1.00
N90    N     0.30894   0.45348   0.23825   0.00000  Uiso   1.00
N91    N     0.51407   0.82548   0.51202   0.00000  Uiso   1.00
N92    N     0.34483   0.13608   0.08200   0.00000  Uiso   1.00
C93    C     0.15642   0.64377   0.90848   0.00000  Uiso   1.00
C94    C     0.16728   0.75329   0.86531   0.00000  Uiso   1.00
C95    C     0.19980   0.81915   0.89614   0.00000  Uiso   1.00
C96    C     0.20455   0.91628   0.84723   0.00000  Uiso   1.00
C97    C     0.22548   0.08178   0.79195   0.00000  Uiso   1.00
C98    C     0.11074   0.65079   0.94077   0.00000  Uiso   1.00
C99    C     0.09573   0.63044   0.03505   0.00000  Uiso   1.00
C100   C     0.05289   0.64127   0.04965   0.00000  Uiso   1.00
C101   C     0.98604   0.64755   0.11151   0.00000  Uiso   1.00
C102   C     0.15739   0.56520   0.82226   0.00000  Uiso   1.00
C103   C     0.18159   0.47287   0.81689   0.00000  Uiso   1.00
C104   C     0.17802   0.41162   0.73172   0.00000  Uiso   1.00
C105   C     0.18360   0.28501   0.60956   0.00000  Uiso   1.00
C106   C     0.10704   0.69914   0.76679   0.00000  Uiso   1.00
C107   C     0.14046   0.78336   0.78836   0.00000  Uiso   1.00
C108   C     0.14517   0.88041   0.73938   0.00000  Uiso   1.00
C109   C     0.17768   0.94640   0.77013   0.00000  Uiso   1.00
C110   C     0.08392   0.68086   0.86382   0.00000  Uiso   1.00
C111   C     0.04110   0.69171   0.87829   0.00000  Uiso   1.00
C112   C     0.02602   0.67139   0.97256   0.00000  Uiso   1.00
C113   C     0.13057   0.59527   0.74530   0.00000  Uiso   1.00
C114   C     0.12696   0.53414   0.66013   0.00000  Uiso   1.00
C115   C     0.15115   0.44175   0.65462   0.00000  Uiso   1.00
H116   H     0.17730   0.62036   0.96839   0.00000  Uiso   1.00
H117   H     0.22054   0.79585   0.95571   0.00000  Uiso   1.00
H118   H     0.11649   0.60716   0.09458   0.00000  Uiso   1.00
H119   H     0.20234   0.44962   0.87645   0.00000  Uiso   1.00
H120   H     0.25665   0.00370   0.90773   0.00000  Uiso   1.00
H121   H     0.03725   0.60580   0.20055   0.00000  Uiso   1.00
H122   H     0.21828   0.27359   0.74058   0.00000  Uiso   1.00
H123   H     0.08616   0.72256   0.70688   0.00000  Uiso   1.00
H124   H     0.12440   0.90366   0.67983   0.00000  Uiso   1.00
H125   H     0.02035   0.71498   0.81872   0.00000  Uiso   1.00
H126   H     0.10620   0.55744   0.60059   0.00000  Uiso   1.00
H127   H     0.17862   0.09121   0.68382   0.00000  Uiso   1.00
H128   H     0.95922   0.69330   0.97665   0.00000  Uiso   1.00
H129   H     0.14025   0.36110   0.51668   0.00000  Uiso   1.00
O130   O     0.24443   0.16476   0.78273   0.00000  Uiso   1.00
O131   O     0.95658   0.64272   0.16689   0.00000  Uiso   1.00
O132   O     0.19409   0.20687   0.56343   0.00000  Uiso   1.00
N133   N     0.23304   0.99943   0.85873   0.00000  Uiso   1.00
N134   N     0.02792   0.62744   0.13250   0.00000  Uiso   1.00
N135   N     0.19716   0.31684   0.70248   0.00000  Uiso   1.00
N136   N     0.19106   0.04652   0.73825   0.00000  Uiso   1.00
N137   N     0.98593   0.67452   0.01202   0.00000  Uiso   1.00
N138   N     0.15517   0.36392   0.58200   0.00000  Uiso   1.00
C139   C     0.65642   0.14377   0.90848   0.00000  Uiso   1.00
C140   C     0.66728   0.25329   0.86531   0.00000  Uiso   1.00
C141   C     0.69980   0.31915   0.89614   0.00000  Uiso   1.00
C142   C     0.70455   0.41628   0.84723   0.00000  Uiso   1.00
C143   C     0.72548   0.58178   0.79195   0.00000  Uiso   1.00
C144   C     0.61074   0.15079   0.94077   0.00000  Uiso   1.00
C145   C     0.59573   0.13044   0.03505   0.00000  Uiso   1.00
C146   C     0.55289   0.14127   0.04965   0.00000  Uiso   1.00
C147   C     0.48604   0.14755   0.11151   0.00000  Uiso   1.00
C148   C     0.65739   0.06520   0.82226   0.00000  Uiso   1.00
C149   C     0.68159   0.97287   0.81689   0.00000  Uiso   1.00
C150   C     0.67802   0.91162   0.73172   0.00000  Uiso   1.00
C151   C     0.68360   0.78501   0.60956   0.00000  Uiso   1.00
C152   C     0.60704   0.19914   0.76679   0.00000  Uiso   1.00
C153   C     0.64046   0.28336   0.78836   0.00000  Uiso   1.00
C154   C     0.64517   0.38041   0.73938   0.00000  Uiso   1.00
C155   C     0.67768   0.44640   0.77013   0.00000  Uiso   1.00
C156   C     0.58392   0.18086   0.86382   0.00000  Uiso   1.00
C157   C     0.54110   0.19171   0.87829   0.00000  Uiso   1.00
C158   C     0.52602   0.17139   0.97256   0.00000  Uiso   1.00
C159   C     0.63057   0.09527   0.74530   0.00000  Uiso   1.00
C160   C     0.62696   0.03414   0.66013   0.00000  Uiso   1.00
C161   C     0.65115   0.94175   0.65462   0.00000  Uiso   1.00
H162   H     0.67730   0.12036   0.96839   0.00000  Uiso   1.00
H163   H     0.72054   0.29585   0.95571   0.00000  Uiso   1.00
H164   H     0.61649   0.10716   0.09458   0.00000  Uiso   1.00
H165   H     0.70234   0.94962   0.87645   0.00000  Uiso   1.00
H166   H     0.75665   0.50370   0.90773   0.00000  Uiso   1.00
H167   H     0.53725   0.10580   0.20055   0.00000  Uiso   1.00
H168   H     0.71828   0.77359   0.74058   0.00000  Uiso   1.00
H169   H     0.58616   0.22256   0.70688   0.00000  Uiso   1.00
H170   H     0.62440   0.40366   0.67983   0.00000  Uiso   1.00
H171   H     0.52035   0.21498   0.81872   0.00000  Uiso   1.00
H172   H     0.60620   0.05744   0.60059   0.00000  Uiso   1.00
H173   H     0.67862   0.59121   0.68382   0.00000  Uiso   1.00
H174   H     0.45922   0.19330   0.97665   0.00000  Uiso   1.00
H175   H     0.64025   0.86110   0.51668   0.00000  Uiso   1.00
O176   O     0.74443   0.66476   0.78273   0.00000  Uiso   1.00
O177   O     0.45658   0.14272   0.16689   0.00000  Uiso   1.00
O178   O     0.69409   0.70687   0.56343   0.00000  Uiso   1.00
N179   N     0.73304   0.49943   0.85873   0.00000  Uiso   1.00
N180   N     0.52792   0.12744   0.13250   0.00000  Uiso   1.00
N181   N     0.69716   0.81684   0.70248   0.00000  Uiso   1.00
N182   N     0.69106   0.54652   0.73825   0.00000  Uiso   1.00
N183   N     0.48593   0.17452   0.01202   0.00000  Uiso   1.00
N184   N     0.65517   0.86392   0.58200   0.00000  Uiso   1.00
C185   C     0.15642   0.35623   0.09152   0.00000  Uiso   1.00
C186   C     0.16728   0.24671   0.13469   0.00000  Uiso   1.00
C187   C     0.19980   0.18085   0.10386   0.00000  Uiso   1.00
C188   C     0.20455   0.08372   0.15277   0.00000  Uiso   1.00
C189   C     0.22548   0.91822   0.20805   0.00000  Uiso   1.00
C190   C     0.11074   0.34921   0.05923   0.00000  Uiso   1.00
C191   C     0.09573   0.36956   0.96495   0.00000  Uiso   1.00
C192   C     0.05289   0.35873   0.95035   0.00000  Uiso   1.00
C193   C     0.98604   0.35245   0.88849   0.00000  Uiso   1.00
C194   C     0.15739   0.43480   0.17774   0.00000  Uiso   1.00
C195   C     0.18159   0.52713   0.18311   0.00000  Uiso   1.00
C196   C     0.17802   0.58838   0.26828   0.00000  Uiso   1.00
C197   C     0.18360   0.71499   0.39044   0.00000  Uiso   1.00
C198   C     0.10704   0.30086   0.23321   0.00000  Uiso   1.00
C199   C     0.14046   0.21664   0.21164   0.00000  Uiso   1.00
C200   C     0.14517   0.11959   0.26062   0.00000  Uiso   1.00
C201   C     0.17768   0.05360   0.22987   0.00000  Uiso   1.00
C202   C     0.08392   0.31914   0.13618   0.00000  Uiso   1.00
C203   C     0.04110   0.30829   0.12171   0.00000  Uiso   1.00
C204   C     0.02602   0.32861   0.02744   0.00000  Uiso   1.00
C205   C     0.13057   0.40473   0.25470   0.00000  Uiso   1.00
C206   C     0.12696   0.46586   0.33987   0.00000  Uiso   1.00
C207   C     0.15115   0.55825   0.34538   0.00000  Uiso   1.00
H208   H     0.17730   0.37964   0.03161   0.00000  Uiso   1.00
H209   H     0.22054   0.20415   0.04429   0.00000  Uiso   1.00
H210   H     0.11649   0.39284   0.90542   0.00000  Uiso   1.00
H211   H     0.20234   0.55038   0.12355   0.00000  Uiso   1.00
H212   H     0.25665   0.99630   0.09227   0.00000  Uiso   1.00
H213   H     0.03725   0.39420   0.79945   0.00000  Uiso   1.00
H214   H     0.21828   0.72641   0.25942   0.00000  Uiso   1.00
H215   H     0.08616   0.27744   0.29312   0.00000  Uiso   1.00
H216   H     0.12440   0.09634   0.32017   0.00000  Uiso   1.00
H217   H     0.02035   0.28502   0.18128   0.00000  Uiso   1.00
H218   H     0.10620   0.44256   0.39941   0.00000  Uiso   1.00
H219   H     0.17862   0.90879   0.31618   0.00000  Uiso   1.00
H220   H     0.95922   0.30670   0.02335   0.00000  Uiso   1.00
H221   H     0.14025   0.63890   0.48332   0.00000  Uiso   1.00
O222   O     0.24443   0.83524   0.21727   0.00000  Uiso   1.00
O223   O     0.95658   0.35728   0.83311   0.00000  Uiso   1.00
O224   O     0.19409   0.79313   0.43657   0.00000  Uiso   1.00
N225   N     0.23304   0.00057   0.14127   0.00000  Uiso   1.00
N226   N     0.02792   0.37256   0.86750   0.00000  Uiso   1.00
N227   N     0.19716   0.68316   0.29752   0.00000  Uiso   1.00
N228   N     0.19106   0.95348   0.26175   0.00000  Uiso   1.00
N229   N     0.98593   0.32548   0.98798   0.00000  Uiso   1.00
N230   N     0.15517   0.63608   0.41800   0.00000  Uiso   1.00
C231   C     0.65642   0.85623   0.09152   0.00000  Uiso   1.00
C232   C     0.66728   0.74671   0.13469   0.00000  Uiso   1.00
C233   C     0.69980   0.68085   0.10386   0.00000  Uiso   1.00
C234   C     0.70455   0.58372   0.15277   0.00000  Uiso   1.00
C235   C     0.72548   0.41822   0.20805   0.00000  Uiso   1.00
C236   C     0.61074   0.84921   0.05923   0.00000  Uiso   1.00
C237   C     0.59573   0.86956   0.96495   0.00000  Uiso   1.00
C238   C     0.55289   0.85873   0.95035   0.00000  Uiso   1.00
C239   C     0.48604   0.85245   0.88849   0.00000  Uiso   1.00
C240   C     0.65739   0.93480   0.17774   0.00000  Uiso   1.00
C241   C     0.68159   0.02713   0.18311   0.00000  Uiso   1.00
C242   C     0.67802   0.08838   0.26828   0.00000  Uiso   1.00
C243   C     0.68360   0.21499   0.39044   0.00000  Uiso   1.00
C244   C     0.60704   0.80086   0.23321   0.00000  Uiso   1.00
C245   C     0.64046   0.71664   0.21164   0.00000  Uiso   1.00
C246   C     0.64517   0.61959   0.26062   0.00000  Uiso   1.00
C247   C     0.67768   0.55360   0.22987   0.00000  Uiso   1.00
C248   C     0.58392   0.81914   0.13618   0.00000  Uiso   1.00
C249   C     0.54110   0.80829   0.12171   0.00000  Uiso   1.00
C250   C     0.52602   0.82861   0.02744   0.00000  Uiso   1.00
C251   C     0.63057   0.90473   0.25470   0.00000  Uiso   1.00
C252   C     0.62696   0.96586   0.33987   0.00000  Uiso   1.00
C253   C     0.65115   0.05825   0.34538   0.00000  Uiso   1.00
H254   H     0.67730   0.87964   0.03161   0.00000  Uiso   1.00
H255   H     0.72054   0.70415   0.04429   0.00000  Uiso   1.00
H256   H     0.61649   0.89284   0.90542   0.00000  Uiso   1.00
H257   H     0.70234   0.05038   0.12355   0.00000  Uiso   1.00
H258   H     0.75665   0.49630   0.09227   0.00000  Uiso   1.00
H259   H     0.53725   0.89420   0.79945   0.00000  Uiso   1.00
H260   H     0.71828   0.22641   0.25942   0.00000  Uiso   1.00
H261   H     0.58616   0.77744   0.29312   0.00000  Uiso   1.00
H262   H     0.62440   0.59634   0.32017   0.00000  Uiso   1.00
H263   H     0.52035   0.78502   0.18128   0.00000  Uiso   1.00
H264   H     0.60620   0.94256   0.39941   0.00000  Uiso   1.00
H265   H     0.67862   0.40879   0.31618   0.00000  Uiso   1.00
H266   H     0.45922   0.80670   0.02335   0.00000  Uiso   1.00
H267   H     0.64025   0.13890   0.48332   0.00000  Uiso   1.00
O268   O     0.74443   0.33524   0.21727   0.00000  Uiso   1.00
O269   O     0.45658   0.85728   0.83311   0.00000  Uiso   1.00
O270   O     0.69409   0.29313   0.43657   0.00000  Uiso   1.00
N271   N     0.73304   0.50057   0.14127   0.00000  Uiso   1.00
N272   N     0.52792   0.87256   0.86750   0.00000  Uiso   1.00
N273   N     0.69716   0.18316   0.29752   0.00000  Uiso   1.00
N274   N     0.69106   0.45348   0.26175   0.00000  Uiso   1.00
N275   N     0.48593   0.82548   0.98798   0.00000  Uiso   1.00
N276   N     0.65517   0.13608   0.41800   0.00000  Uiso   1.00
C277   C     0.84358   0.64377   0.59152   0.00000  Uiso   1.00
C278   C     0.83272   0.75329   0.63469   0.00000  Uiso   1.00
C279   C     0.80020   0.81915   0.60386   0.00000  Uiso   1.00
C280   C     0.79545   0.91628   0.65277   0.00000  Uiso   1.00
C281   C     0.77452   0.08178   0.70805   0.00000  Uiso   1.00
C282   C     0.88926   0.65079   0.55923   0.00000  Uiso   1.00
C283   C     0.90427   0.63044   0.46495   0.00000  Uiso   1.00
C284   C     0.94711   0.64127   0.45035   0.00000  Uiso   1.00
C285   C     0.01396   0.64755   0.38849   0.00000  Uiso   1.00
C286   C     0.84261   0.56520   0.67774   0.00000  Uiso   1.00
C287   C     0.81841   0.47287   0.68311   0.00000  Uiso   1.00
C288   C     0.82198   0.41162   0.76828   0.00000  Uiso   1.00
C289   C     0.81640   0.28501   0.89044   0.00000  Uiso   1.00
C290   C     0.89296   0.69914   0.73321   0.00000  Uiso   1.00
C291   C     0.85954   0.78336   0.71164   0.00000  Uiso   1.00
C292   C     0.85483   0.88041   0.76062   0.00000  Uiso   1.00
C293   C     0.82232   0.94640   0.72987   0.00000  Uiso   1.00
C294   C     0.91608   0.68086   0.63618   0.00000  Uiso   1.00
C295   C     0.95890   0.69171   0.62171   0.00000  Uiso   1.00
C296   C     0.97398   0.67139   0.52744   0.00000  Uiso   1.00
C297   C     0.86943   0.59527   0.75470   0.00000  Uiso   1.00
C298   C     0.87304   0.53414   0.83987   0.00000  Uiso   1.00
C299   C     0.84885   0.44175   0.84538   0.00000  Uiso   1.00
H300   H     0.82270   0.62036   0.53161   0.00000  Uiso   1.00
H301   H     0.77946   0.79585   0.54429   0.00000  Uiso   1.00
H302   H     0.88351   0.60716   0.40542   0.00000  Uiso   1.00
H303   H     0.79766   0.44962   0.62355   0.00000  Uiso   1.00
H304   H     0.74335   0.00370   0.59227   0.00000  Uiso   1.00
H305   H     0.96275   0.60580   0.29945   0.00000  Uiso   1.00
H306   H     0.78172   0.27359   0.75942   0.00000  Uiso   1.00
H307   H     0.91384   0.72256   0.79312   0.00000  Uiso   1.00
H308   H     0.87560   0.90366   0.82017   0.00000  Uiso   1.00
H309   H     0.97965   0.71498   0.68128   0.00000  Uiso   1.00
H310   H     0.89380   0.55744   0.89941   0.00000  Uiso   1.00
H311   H     0.82138   0.09121   0.81618   0.00000  Uiso   1.00
H312   H     0.04078   0.69330   0.52335   0.00000  Uiso   1.00
H313   H     0.85975   0.36110   0.98332   0.00000  Uiso   1.00
O314   O     0.75557   0.16476   0.71727   0.00000  Uiso   1.00
O315   O     0.04342   0.64272   0.33311   0.00000  Uiso   1.00
O316   O     0.80591   0.20687   0.93657   0.00000  Uiso   1.00
N317   N     0.76696   0.99943   0.64127   0.00000  Uiso   1.00
N318   N     0.97208   0.62744   0.36750   0.00000  Uiso   1.00
N319   N     0.80284   0.31684   0.79752   0.00000  Uiso   1.00
N320   N     0.80894   0.04652   0.76175   0.00000  Uiso   1.00
N321   N     0.01407   0.67452   0.48798   0.00000  Uiso   1.00
N322   N     0.84483   0.36392   0.91800   0.00000  Uiso   1.00
C323   C     0.34358   0.14377   0.59152   0.00000  Uiso   1.00
C324   C     0.33272   0.25329   0.63469   0.00000  Uiso   1.00
C325   C     0.30020   0.31915   0.60386   0.00000  Uiso   1.00
C326   C     0.29545   0.41628   0.65277   0.00000  Uiso   1.00
C327   C     0.27452   0.58178   0.70805   0.00000  Uiso   1.00
C328   C     0.38926   0.15079   0.55923   0.00000  Uiso   1.00
C329   C     0.40427   0.13044   0.46495   0.00000  Uiso   1.00
C330   C     0.44711   0.14127   0.45035   0.00000  Uiso   1.00
C331   C     0.51396   0.14755   0.38849   0.00000  Uiso   1.00
C332   C     0.34261   0.06520   0.67774   0.00000  Uiso   1.00
C333   C     0.31841   0.97287   0.68311   0.00000  Uiso   1.00
C334   C     0.32198   0.91162   0.76828   0.00000  Uiso   1.00
C335   C     0.31640   0.78501   0.89044   0.00000  Uiso   1.00
C336   C     0.39296   0.19914   0.73321   0.00000  Uiso   1.00
C337   C     0.35954   0.28336   0.71164   0.00000  Uiso   1.00
C338   C     0.35483   0.38041   0.76062   0.00000  Uiso   1.00
C339   C     0.32232   0.44640   0.72987   0.00000  Uiso   1.00
C340   C     0.41608   0.18086   0.63618   0.00000  Uiso   1.00
C341   C     0.45890   0.19171   0.62171   0.00000  Uiso   1.00
C342   C     0.47398   0.17139   0.52744   0.00000  Uiso   1.00
C343   C     0.36943   0.09527   0.75470   0.00000  Uiso   1.00
C344   C     0.37304   0.03414   0.83987   0.00000  Uiso   1.00
C345   C     0.34885   0.94175   0.84538   0.00000  Uiso   1.00
H346   H     0.32270   0.12036   0.53161   0.00000  Uiso   1.00
H347   H     0.27946   0.29585   0.54429   0.00000  Uiso   1.00
H348   H     0.38351   0.10716   0.40542   0.00000  Uiso   1.00
H349   H     0.29766   0.94962   0.62355   0.00000  Uiso   1.00
H350   H     0.24335   0.50370   0.59227   0.00000  Uiso   1.00
H351   H     0.46275   0.10580   0.29945   0.00000  Uiso   1.00
H352   H     0.28172   0.77359   0.75942   0.00000  Uiso   1.00
H353   H     0.41384   0.22256   0.79312   0.00000  Uiso   1.00
H354   H     0.37560   0.40366   0.82017   0.00000  Uiso   1.00
H355   H     0.47965   0.21498   0.68128   0.00000  Uiso   1.00
H356   H     0.39380   0.05744   0.89941   0.00000  Uiso   1.00
H357   H     0.32138   0.59121   0.81618   0.00000  Uiso   1.00
H358   H     0.54078   0.19330   0.52335   0.00000  Uiso   1.00
H359   H     0.35975   0.86110   0.98332   0.00000  Uiso   1.00
O360   O     0.25557   0.66476   0.71727   0.00000  Uiso   1.00
O361   O     0.54342   0.14272   0.33311   0.00000  Uiso   1.00
O362   O     0.30591   0.70687   0.93657   0.00000  Uiso   1.00
N363   N     0.26696   0.49943   0.64127   0.00000  Uiso   1.00
N364   N     0.47208   0.12744   0.36750   0.00000  Uiso   1.00
N365   N     0.30284   0.81684   0.79752   0.00000  Uiso   1.00
N366   N     0.30894   0.54652   0.76175   0.00000  Uiso   1.00
N367   N     0.51407   0.17452   0.48798   0.00000  Uiso   1.00
N368   N     0.34483   0.86392   0.91800   0.00000  Uiso   1.00
