data_job_06065
_audit_creation_date              2018-12-19
_audit_creation_method            'Materials Studio'
_symmetry_space_group_name_H-M    'P1'
_symmetry_Int_Tables_number       1
_symmetry_cell_setting            triclinic
loop_
_symmetry_equiv_pos_as_xyz
  x,y,z
_cell_length_a                    16.8965
_cell_length_b                    16.1416
_cell_length_c                    15.8954
_cell_angle_alpha                 105.9830
_cell_angle_beta                  105.5210
_cell_angle_gamma                 106.3640
loop_
_atom_site_label
_atom_site_type_symbol
_atom_site_fract_x
_atom_site_fract_y
_atom_site_fract_z
_atom_site_U_iso_or_equiv
_atom_site_adp_type
_atom_site_occupancy
C1     C     0.17141   0.41412   0.81758   0.00000  Uiso   1.00
C2     C     0.20140   0.37641   0.73787   0.00000  Uiso   1.00
C3     C     0.15548   0.29065   0.66310   0.00000  Uiso   1.00
C4     C     0.19407   0.26903   0.59745   0.00000  Uiso   1.00
C5     C     0.22826   0.20102   0.47236   0.00000  Uiso   1.00
C6     C     0.24681   0.43642   0.90894   0.00000  Uiso   1.00
C7     C     0.23908   0.40113   0.97801   0.00000  Uiso   1.00
C8     C     0.31590   0.43003   0.05638   0.00000  Uiso   1.00
C9     C     0.42058   0.45525   0.19691   0.00000  Uiso   1.00
C10    C     0.16893   0.50772   0.81716   0.00000  Uiso   1.00
C11    C     0.09572   0.53239   0.80908   0.00000  Uiso   1.00
C12    C     0.10698   0.62133   0.81020   0.00000  Uiso   1.00
C13    C     0.09074   0.75725   0.80822   0.00000  Uiso   1.00
C14    C     0.32159   0.52821   0.83396   0.00000  Uiso   1.00
C15    C     0.28297   0.43838   0.74677   0.00000  Uiso   1.00
C16    C     0.32165   0.41688   0.68122   0.00000  Uiso   1.00
C17    C     0.27579   0.33111   0.60636   0.00000  Uiso   1.00
C18    C     0.32839   0.49838   0.91784   0.00000  Uiso   1.00
C19    C     0.40524   0.52735   0.99613   0.00000  Uiso   1.00
C20    C     0.39762   0.49211   0.06530   0.00000  Uiso   1.00
C21    C     0.25051   0.56969   0.82605   0.00000  Uiso   1.00
C22    C     0.26189   0.65861   0.82720   0.00000  Uiso   1.00
C23    C     0.18871   0.68341   0.81912   0.00000  Uiso   1.00
H24    H     0.10790   0.36588   0.81066   0.00000  Uiso   1.00
H25    H     0.09236   0.24271   0.65624   0.00000  Uiso   1.00
H26    H     0.17594   0.35318   0.97111   0.00000  Uiso   1.00
H27    H     0.03261   0.48442   0.80220   0.00000  Uiso   1.00
H28    H     0.11112   0.13347   0.48899   0.00000  Uiso   1.00
H29    H     0.28734   0.36643   0.15291   0.00000  Uiso   1.00
H30    H     0.98510   0.64317   0.79673   0.00000  Uiso   1.00
H31    H     0.38511   0.57645   0.84089   0.00000  Uiso   1.00
H32    H     0.38477   0.46484   0.68813   0.00000  Uiso   1.00
H33    H     0.46835   0.57531   0.00299   0.00000  Uiso   1.00
H34    H     0.32502   0.70655   0.83408   0.00000  Uiso   1.00
H35    H     0.34846   0.31376   0.51487   0.00000  Uiso   1.00
H36    H     0.52468   0.54672   0.17880   0.00000  Uiso   1.00
H37    H     0.22244   0.82346   0.82261   0.00000  Uiso   1.00
O38    O     0.22458   0.14638   0.40091   0.00000  Uiso   1.00
O39    O     0.45578   0.45202   0.27196   0.00000  Uiso   1.00
O40    O     0.05924   0.81509   0.80466   0.00000  Uiso   1.00
N41    N     0.16701   0.19123   0.51603   0.00000  Uiso   1.00
N42    N     0.33178   0.40902   0.13676   0.00000  Uiso   1.00
N43    N     0.04921   0.66775   0.80378   0.00000  Uiso   1.00
N44    N     0.29472   0.28824   0.52996   0.00000  Uiso   1.00
N45    N     0.45949   0.50603   0.15068   0.00000  Uiso   1.00
N46    N     0.17692   0.76476   0.81771   0.00000  Uiso   1.00
C47    C     0.81468   0.15988   0.40931   0.00000  Uiso   1.00
C48    C     0.74158   0.19387   0.37373   0.00000  Uiso   1.00
C49    C     0.67007   0.14756   0.28795   0.00000  Uiso   1.00
C50    C     0.61042   0.19022   0.26846   0.00000  Uiso   1.00
C51    C     0.49518   0.22996   0.20345   0.00000  Uiso   1.00
C52    C     0.90218   0.23758   0.43070   0.00000  Uiso   1.00
C53    C     0.96570   0.22800   0.39284   0.00000  Uiso   1.00
C54    C     0.04125   0.30746   0.42133   0.00000  Uiso   1.00
C55    C     0.17537   0.41504   0.44483   0.00000  Uiso   1.00
C56    C     0.81484   0.15657   0.50430   0.00000  Uiso   1.00
C57    C     0.80495   0.07888   0.52833   0.00000  Uiso   1.00
C58    C     0.80699   0.09014   0.61879   0.00000  Uiso   1.00
C59    C     0.80550   0.07194   0.75655   0.00000  Uiso   1.00
C60    C     0.83591   0.31802   0.52724   0.00000  Uiso   1.00
C61    C     0.75311   0.27977   0.43778   0.00000  Uiso   1.00
C62    C     0.69355   0.32252   0.41842   0.00000  Uiso   1.00
C63    C     0.62197   0.27627   0.33263   0.00000  Uiso   1.00
C64    C     0.91371   0.32347   0.49476   0.00000  Uiso   1.00
C65    C     0.98919   0.40296   0.52331   0.00000  Uiso   1.00
C66    C     0.05280   0.39351   0.48550   0.00000  Uiso   1.00
C67    C     0.82637   0.24246   0.56835   0.00000  Uiso   1.00
C68    C     0.82843   0.25385   0.65880   0.00000  Uiso   1.00
C69    C     0.81854   0.17619   0.68296   0.00000  Uiso   1.00
H70    H     0.80571   0.09301   0.35944   0.00000  Uiso   1.00
H71    H     0.66118   0.08109   0.23839   0.00000  Uiso   1.00
H72    H     0.95677   0.16152   0.34328   0.00000  Uiso   1.00
H73    H     0.79603   0.01243   0.47874   0.00000  Uiso   1.00
H74    H     0.50604   0.10576   0.13242   0.00000  Uiso   1.00
H75    H     0.12931   0.27535   0.35360   0.00000  Uiso   1.00
H76    H     0.79038   0.96096   0.63925   0.00000  Uiso   1.00
H77    H     0.84489   0.38490   0.57711   0.00000  Uiso   1.00
H78    H     0.70249   0.38899   0.46800   0.00000  Uiso   1.00
H79    H     0.99809   0.46942   0.57289   0.00000  Uiso   1.00
H80    H     0.83735   0.32033   0.70835   0.00000  Uiso   1.00
H81    H     0.53957   0.35567   0.31878   0.00000  Uiso   1.00
H82    H     0.16285   0.52526   0.53997   0.00000  Uiso   1.00
H83    H     0.82392   0.21086   0.82561   0.00000  Uiso   1.00
O84    O     0.42844   0.22815   0.14989   0.00000  Uiso   1.00
O85    O     0.24616   0.45064   0.44009   0.00000  Uiso   1.00
O86    O     0.80149   0.03816   0.81484   0.00000  Uiso   1.00
N87    N     0.53346   0.16401   0.19126   0.00000  Uiso   1.00
N88    N     0.11618   0.32257   0.39804   0.00000  Uiso   1.00
N89    N     0.79933   0.02864   0.66511   0.00000  Uiso   1.00
N90    N     0.55150   0.29848   0.29154   0.00000  Uiso   1.00
N91    N     0.13423   0.45704   0.49832   0.00000  Uiso   1.00
N92    N     0.81738   0.16311   0.76539   0.00000  Uiso   1.00
C93    C     0.41701   0.81423   0.15945   0.00000  Uiso   1.00
C94    C     0.38169   0.73724   0.19370   0.00000  Uiso   1.00
C95    C     0.29934   0.66373   0.14783   0.00000  Uiso   1.00
C96    C     0.27947   0.60057   0.19067   0.00000  Uiso   1.00
C97    C     0.21543   0.47952   0.23084   0.00000  Uiso   1.00
C98    C     0.44044   0.90600   0.23924   0.00000  Uiso   1.00
C99    C     0.40750   0.97438   0.23164   0.00000  Uiso   1.00
C100   C     0.43709   0.05328   0.31281   0.00000  Uiso   1.00
C101   C     0.46432   0.19425   0.42366   0.00000  Uiso   1.00
C102   C     0.50505   0.81218   0.15347   0.00000  Uiso   1.00
C103   C     0.52646   0.80170   0.07377   0.00000  Uiso   1.00
C104   C     0.61047   0.80164   0.08274   0.00000  Uiso   1.00
C105   C     0.73802   0.79695   0.06043   0.00000  Uiso   1.00
C106   C     0.52815   0.83279   0.31711   0.00000  Uiso   1.00
C107   C     0.44206   0.74733   0.27934   0.00000  Uiso   1.00
C108   C     0.42231   0.68426   0.32226   0.00000  Uiso   1.00
C109   C     0.33995   0.61066   0.27645   0.00000  Uiso   1.00
C110   C     0.50081   0.91608   0.32487   0.00000  Uiso   1.00
C111   C     0.53047   0.99491   0.40607   0.00000  Uiso   1.00
C112   C     0.49757   0.06338   0.39860   0.00000  Uiso   1.00
C113   C     0.56543   0.82226   0.23911   0.00000  Uiso   1.00
C114   C     0.64943   0.82223   0.24820   0.00000  Uiso   1.00
C115   C     0.67095   0.81174   0.16853   0.00000  Uiso   1.00
H116   H     0.37000   0.80639   0.09279   0.00000  Uiso   1.00
H117   H     0.25263   0.65596   0.08156   0.00000  Uiso   1.00
H118   H     0.36079   0.96656   0.16536   0.00000  Uiso   1.00
H119   H     0.47972   0.79390   0.00752   0.00000  Uiso   1.00
H120   H     0.14912   0.49364   0.10690   0.00000  Uiso   1.00
H121   H     0.37718   0.14857   0.28357   0.00000  Uiso   1.00
H122   H     0.62799   0.78450   0.95074   0.00000  Uiso   1.00
H123   H     0.57516   0.84064   0.38379   0.00000  Uiso   1.00
H124   H     0.46904   0.69208   0.38853   0.00000  Uiso   1.00
H125   H     0.57719   0.00268   0.47232   0.00000  Uiso   1.00
H126   H     0.69613   0.83003   0.31448   0.00000  Uiso   1.00
H127   H     0.32476   0.52296   0.35604   0.00000  Uiso   1.00
H128   H     0.55282   0.17790   0.53272   0.00000  Uiso   1.00
H129   H     0.80363   0.81382   0.19988   0.00000  Uiso   1.00
O130   O     0.16342   0.40997   0.22936   0.00000  Uiso   1.00
O131   O     0.46264   0.26922   0.46114   0.00000  Uiso   1.00
O132   O     0.79169   0.79156   0.02446   0.00000  Uiso   1.00
N133   N     0.20503   0.52092   0.16487   0.00000  Uiso   1.00
N134   N     0.41824   0.13323   0.33006   0.00000  Uiso   1.00
N135   N     0.65273   0.79288   0.01889   0.00000  Uiso   1.00
N136   N     0.29954   0.53669   0.29894   0.00000  Uiso   1.00
N137   N     0.51275   0.14901   0.46412   0.00000  Uiso   1.00
N138   N     0.74724   0.80865   0.15295   0.00000  Uiso   1.00
C139   C     0.82859   0.58588   0.18242   0.00000  Uiso   1.00
C140   C     0.79860   0.62359   0.26213   0.00000  Uiso   1.00
C141   C     0.84452   0.70935   0.33690   0.00000  Uiso   1.00
C142   C     0.80593   0.73097   0.40255   0.00000  Uiso   1.00
C143   C     0.77174   0.79898   0.52764   0.00000  Uiso   1.00
C144   C     0.75319   0.56358   0.09106   0.00000  Uiso   1.00
C145   C     0.76092   0.59887   0.02199   0.00000  Uiso   1.00
C146   C     0.68410   0.56997   0.94362   0.00000  Uiso   1.00
C147   C     0.57942   0.54475   0.80309   0.00000  Uiso   1.00
C148   C     0.83107   0.49228   0.18284   0.00000  Uiso   1.00
C149   C     0.90428   0.46761   0.19092   0.00000  Uiso   1.00
C150   C     0.89302   0.37867   0.18980   0.00000  Uiso   1.00
C151   C     0.90926   0.24275   0.19178   0.00000  Uiso   1.00
C152   C     0.67841   0.47179   0.16604   0.00000  Uiso   1.00
C153   C     0.71703   0.56162   0.25323   0.00000  Uiso   1.00
C154   C     0.67835   0.58312   0.31878   0.00000  Uiso   1.00
C155   C     0.72421   0.66889   0.39364   0.00000  Uiso   1.00
C156   C     0.67161   0.50162   0.08216   0.00000  Uiso   1.00
C157   C     0.59476   0.47265   0.00387   0.00000  Uiso   1.00
C158   C     0.60238   0.50789   0.93470   0.00000  Uiso   1.00
C159   C     0.74949   0.43031   0.17395   0.00000  Uiso   1.00
C160   C     0.73811   0.34139   0.17280   0.00000  Uiso   1.00
C161   C     0.81129   0.31659   0.18088   0.00000  Uiso   1.00
H162   H     0.89210   0.63412   0.18934   0.00000  Uiso   1.00
H163   H     0.90764   0.75729   0.34376   0.00000  Uiso   1.00
H164   H     0.82406   0.64682   0.02889   0.00000  Uiso   1.00
H165   H     0.96739   0.51558   0.19780   0.00000  Uiso   1.00
H166   H     0.88888   0.86653   0.51101   0.00000  Uiso   1.00
H167   H     0.71266   0.63357   0.84709   0.00000  Uiso   1.00
H168   H     0.01490   0.35683   0.20327   0.00000  Uiso   1.00
H169   H     0.61489   0.42354   0.15911   0.00000  Uiso   1.00
H170   H     0.61523   0.53516   0.31187   0.00000  Uiso   1.00
H171   H     0.53165   0.42469   0.99701   0.00000  Uiso   1.00
H172   H     0.67498   0.29345   0.16592   0.00000  Uiso   1.00
H173   H     0.65154   0.68624   0.48513   0.00000  Uiso   1.00
H174   H     0.47532   0.45328   0.82120   0.00000  Uiso   1.00
H175   H     0.77756   0.17654   0.17738   0.00000  Uiso   1.00
O176   O     0.77542   0.85362   0.59909   0.00000  Uiso   1.00
O177   O     0.54422   0.54798   0.72804   0.00000  Uiso   1.00
O178   O     0.94076   0.18491   0.19534   0.00000  Uiso   1.00
N179   N     0.83299   0.80877   0.48397   0.00000  Uiso   1.00
N180   N     0.66822   0.59098   0.86324   0.00000  Uiso   1.00
N181   N     0.95079   0.33225   0.19622   0.00000  Uiso   1.00
N182   N     0.70528   0.71176   0.47004   0.00000  Uiso   1.00
N183   N     0.54051   0.49397   0.84932   0.00000  Uiso   1.00
N184   N     0.82308   0.23524   0.18229   0.00000  Uiso   1.00
C185   C     0.18532   0.84012   0.59069   0.00000  Uiso   1.00
C186   C     0.25842   0.80613   0.62627   0.00000  Uiso   1.00
C187   C     0.32993   0.85244   0.71205   0.00000  Uiso   1.00
C188   C     0.38958   0.80978   0.73154   0.00000  Uiso   1.00
C189   C     0.50482   0.77004   0.79655   0.00000  Uiso   1.00
C190   C     0.09782   0.76242   0.56930   0.00000  Uiso   1.00
C191   C     0.03430   0.77200   0.60716   0.00000  Uiso   1.00
C192   C     0.95875   0.69254   0.57867   0.00000  Uiso   1.00
C193   C     0.82463   0.58496   0.55517   0.00000  Uiso   1.00
C194   C     0.18516   0.84343   0.49570   0.00000  Uiso   1.00
C195   C     0.19505   0.92112   0.47167   0.00000  Uiso   1.00
C196   C     0.19301   0.90986   0.38121   0.00000  Uiso   1.00
C197   C     0.19450   0.92806   0.24345   0.00000  Uiso   1.00
C198   C     0.16409   0.68198   0.47276   0.00000  Uiso   1.00
C199   C     0.24689   0.72023   0.56222   0.00000  Uiso   1.00
C200   C     0.30645   0.67748   0.58158   0.00000  Uiso   1.00
C201   C     0.37803   0.72373   0.66737   0.00000  Uiso   1.00
C202   C     0.08629   0.67653   0.50524   0.00000  Uiso   1.00
C203   C     0.01081   0.59704   0.47669   0.00000  Uiso   1.00
C204   C     0.94720   0.60649   0.51450   0.00000  Uiso   1.00
C205   C     0.17363   0.75754   0.43165   0.00000  Uiso   1.00
C206   C     0.17157   0.74615   0.34120   0.00000  Uiso   1.00
C207   C     0.18146   0.82381   0.31704   0.00000  Uiso   1.00
H208   H     0.19429   0.90699   0.64056   0.00000  Uiso   1.00
H209   H     0.33882   0.91891   0.76161   0.00000  Uiso   1.00
H210   H     0.04323   0.83848   0.65672   0.00000  Uiso   1.00
H211   H     0.20397   0.98757   0.52126   0.00000  Uiso   1.00
H212   H     0.49397   0.89424   0.86758   0.00000  Uiso   1.00
H213   H     0.87069   0.72465   0.64640   0.00000  Uiso   1.00
H214   H     0.20962   0.03904   0.36075   0.00000  Uiso   1.00
H215   H     0.15511   0.61510   0.42289   0.00000  Uiso   1.00
H216   H     0.29751   0.61101   0.53200   0.00000  Uiso   1.00
H217   H     0.00191   0.53058   0.42711   0.00000  Uiso   1.00
H218   H     0.16265   0.67967   0.29165   0.00000  Uiso   1.00
H219   H     0.46043   0.64433   0.68122   0.00000  Uiso   1.00
H220   H     0.83715   0.47474   0.46003   0.00000  Uiso   1.00
H221   H     0.17608   0.78914   0.17439   0.00000  Uiso   1.00
O222   O     0.57156   0.77185   0.85011   0.00000  Uiso   1.00
O223   O     0.75384   0.54936   0.55991   0.00000  Uiso   1.00
O224   O     0.19851   0.96184   0.18516   0.00000  Uiso   1.00
N225   N     0.46654   0.83599   0.80874   0.00000  Uiso   1.00
N226   N     0.88382   0.67743   0.60196   0.00000  Uiso   1.00
N227   N     0.20067   0.97136   0.33489   0.00000  Uiso   1.00
N228   N     0.44850   0.70152   0.70846   0.00000  Uiso   1.00
N229   N     0.86577   0.54296   0.50168   0.00000  Uiso   1.00
N230   N     0.18262   0.83689   0.23461   0.00000  Uiso   1.00
C231   C     0.58300   0.18577   0.84055   0.00000  Uiso   1.00
C232   C     0.61831   0.26276   0.80630   0.00000  Uiso   1.00
C233   C     0.70066   0.33627   0.85217   0.00000  Uiso   1.00
C234   C     0.72053   0.39943   0.80933   0.00000  Uiso   1.00
C235   C     0.78457   0.52048   0.76915   0.00000  Uiso   1.00
C236   C     0.55956   0.09400   0.76076   0.00000  Uiso   1.00
C237   C     0.59250   0.02562   0.76836   0.00000  Uiso   1.00
C238   C     0.56291   0.94672   0.68719   0.00000  Uiso   1.00
C239   C     0.53568   0.80575   0.57634   0.00000  Uiso   1.00
C240   C     0.49495   0.18782   0.84653   0.00000  Uiso   1.00
C241   C     0.47354   0.19830   0.92623   0.00000  Uiso   1.00
C242   C     0.38953   0.19836   0.91726   0.00000  Uiso   1.00
C243   C     0.26198   0.20305   0.93957   0.00000  Uiso   1.00
C244   C     0.47185   0.16721   0.68289   0.00000  Uiso   1.00
C245   C     0.55794   0.25267   0.72066   0.00000  Uiso   1.00
C246   C     0.57769   0.31574   0.67774   0.00000  Uiso   1.00
C247   C     0.66005   0.38934   0.72355   0.00000  Uiso   1.00
C248   C     0.49919   0.08392   0.67513   0.00000  Uiso   1.00
C249   C     0.46953   0.00509   0.59393   0.00000  Uiso   1.00
C250   C     0.50243   0.93662   0.60140   0.00000  Uiso   1.00
C251   C     0.43457   0.17774   0.76089   0.00000  Uiso   1.00
C252   C     0.35057   0.17777   0.75180   0.00000  Uiso   1.00
C253   C     0.32905   0.18826   0.83147   0.00000  Uiso   1.00
H254   H     0.63000   0.19361   0.90721   0.00000  Uiso   1.00
H255   H     0.74737   0.34404   0.91844   0.00000  Uiso   1.00
H256   H     0.63921   0.03344   0.83464   0.00000  Uiso   1.00
H257   H     0.52028   0.20610   0.99248   0.00000  Uiso   1.00
H258   H     0.85088   0.50636   0.89310   0.00000  Uiso   1.00
H259   H     0.62282   0.85143   0.71643   0.00000  Uiso   1.00
H260   H     0.37201   0.21550   0.04926   0.00000  Uiso   1.00
H261   H     0.42484   0.15936   0.61621   0.00000  Uiso   1.00
H262   H     0.53096   0.30792   0.61147   0.00000  Uiso   1.00
H263   H     0.42281   0.99732   0.52768   0.00000  Uiso   1.00
H264   H     0.30387   0.16997   0.68552   0.00000  Uiso   1.00
H265   H     0.67524   0.47704   0.64396   0.00000  Uiso   1.00
H266   H     0.44718   0.82210   0.46728   0.00000  Uiso   1.00
H267   H     0.19637   0.18618   0.80012   0.00000  Uiso   1.00
O268   O     0.83658   0.59003   0.77064   0.00000  Uiso   1.00
O269   O     0.53736   0.73078   0.53886   0.00000  Uiso   1.00
O270   O     0.20831   0.20844   0.97554   0.00000  Uiso   1.00
N271   N     0.79497   0.47908   0.83513   0.00000  Uiso   1.00
N272   N     0.58176   0.86677   0.66994   0.00000  Uiso   1.00
N273   N     0.34727   0.20712   0.98111   0.00000  Uiso   1.00
N274   N     0.70046   0.46331   0.70106   0.00000  Uiso   1.00
N275   N     0.48725   0.85099   0.53588   0.00000  Uiso   1.00
N276   N     0.25276   0.19135   0.84705   0.00000  Uiso   1.00
