data_job_06789
_audit_creation_date              2018-12-19
_audit_creation_method            'Materials Studio'
_symmetry_space_group_name_H-M    'P1'
_symmetry_Int_Tables_number       1
_symmetry_cell_setting            triclinic
loop_
_symmetry_equiv_pos_as_xyz
  x,y,z
_cell_length_a                    19.8089
_cell_length_b                    23.9828
_cell_length_c                    19.9351
_cell_angle_alpha                 76.5860
_cell_angle_beta                  92.5234
_cell_angle_gamma                 86.8622
loop_
_atom_site_label
_atom_site_type_symbol
_atom_site_fract_x
_atom_site_fract_y
_atom_site_fract_z
_atom_site_U_iso_or_equiv
_atom_site_adp_type
_atom_site_occupancy
C1     C     0.26035   0.29192   0.84819   0.00000  Uiso   1.00
C2     C     0.29717   0.25988   0.91613   0.00000  Uiso   1.00
C3     C     0.29040   0.20298   0.94922   0.00000  Uiso   1.00
C4     C     0.32846   0.18162   0.01093   0.00000  Uiso   1.00
C5     C     0.37902   0.12665   0.11224   0.00000  Uiso   1.00
C6     C     0.22306   0.34459   0.86330   0.00000  Uiso   1.00
C7     C     0.15399   0.35890   0.85196   0.00000  Uiso   1.00
C8     C     0.12967   0.40886   0.86919   0.00000  Uiso   1.00
C9     C     0.06520   0.48541   0.88843   0.00000  Uiso   1.00
C10    C     0.31537   0.31467   0.79993   0.00000  Uiso   1.00
C11    C     0.32392   0.30383   0.73529   0.00000  Uiso   1.00
C12    C     0.37731   0.32861   0.69916   0.00000  Uiso   1.00
C13    C     0.45616   0.35871   0.62001   0.00000  Uiso   1.00
C14    C     0.33997   0.35520   0.89894   0.00000  Uiso   1.00
C15    C     0.34041   0.29425   0.94370   0.00000  Uiso   1.00
C16    C     0.37849   0.27298   0.00537   0.00000  Uiso   1.00
C17    C     0.37178   0.21605   0.03854   0.00000  Uiso   1.00
C18    C     0.26630   0.37896   0.89087   0.00000  Uiso   1.00
C19    C     0.24208   0.42891   0.90811   0.00000  Uiso   1.00
C20    C     0.17300   0.44329   0.89680   0.00000  Uiso   1.00
C21    C     0.35862   0.34903   0.82749   0.00000  Uiso   1.00
C22    C     0.41201   0.37384   0.79145   0.00000  Uiso   1.00
C23    C     0.42063   0.36304   0.72677   0.00000  Uiso   1.00
H24    H     0.22668   0.26517   0.82673   0.00000  Uiso   1.00
H25    H     0.25692   0.17639   0.92787   0.00000  Uiso   1.00
H26    H     0.12054   0.33230   0.83062   0.00000  Uiso   1.00
H27    H     0.29044   0.27724   0.71398   0.00000  Uiso   1.00
H28    H     0.30951   0.09313   0.05217   0.00000  Uiso   1.00
H29    H     0.02195   0.42187   0.84709   0.00000  Uiso   1.00
H30    H     0.38020   0.30577   0.60113   0.00000  Uiso   1.00
H31    H     0.37363   0.38196   0.92040   0.00000  Uiso   1.00
H32    H     0.41195   0.29959   0.02669   0.00000  Uiso   1.00
H33    H     0.27556   0.45549   0.92944   0.00000  Uiso   1.00
H34    H     0.44546   0.40043   0.81280   0.00000  Uiso   1.00
H35    H     0.43533   0.19312   0.13238   0.00000  Uiso   1.00
H36    H     0.14776   0.52187   0.92730   0.00000  Uiso   1.00
H37    H     0.50603   0.40576   0.68133   0.00000  Uiso   1.00
O38    O     0.39495   0.08684   0.16051   0.00000  Uiso   1.00
O39    O     0.01768   0.51814   0.89144   0.00000  Uiso   1.00
O40    O     0.48771   0.36581   0.56875   0.00000  Uiso   1.00
N41    N     0.33387   0.12796   0.05646   0.00000  Uiso   1.00
N42    N     0.06502   0.43531   0.86473   0.00000  Uiso   1.00
N43    N     0.39995   0.32678   0.63476   0.00000  Uiso   1.00
N44    N     0.40158   0.18177   0.09961   0.00000  Uiso   1.00
N45    N     0.13272   0.48912   0.90789   0.00000  Uiso   1.00
N46    N     0.46765   0.38058   0.67792   0.00000  Uiso   1.00
C47    C     0.72402   0.54597   0.03066   0.00000  Uiso   1.00
C48    C     0.79089   0.57483   0.02346   0.00000  Uiso   1.00
C49    C     0.82429   0.59082   0.96289   0.00000  Uiso   1.00
C50    C     0.88488   0.61666   0.96706   0.00000  Uiso   1.00
C51    C     0.98475   0.66000   0.94638   0.00000  Uiso   1.00
C52    C     0.73788   0.49054   0.08640   0.00000  Uiso   1.00
C53    C     0.72668   0.43567   0.07875   0.00000  Uiso   1.00
C54    C     0.74263   0.39055   0.13591   0.00000  Uiso   1.00
C55    C     0.76015   0.30303   0.21296   0.00000  Uiso   1.00
C56    C     0.67633   0.58449   0.06099   0.00000  Uiso   1.00
C57    C     0.61338   0.60860   0.03198   0.00000  Uiso   1.00
C58    C     0.57751   0.64257   0.06775   0.00000  Uiso   1.00
C59    C     0.49946   0.70093   0.10535   0.00000  Uiso   1.00
C60    C     0.77223   0.56340   0.14576   0.00000  Uiso   1.00
C61    C     0.81708   0.58429   0.08598   0.00000  Uiso   1.00
C62    C     0.87763   0.61011   0.09024   0.00000  Uiso   1.00
C63    C     0.91111   0.62614   0.02969   0.00000  Uiso   1.00
C64    C     0.76406   0.50000   0.14892   0.00000  Uiso   1.00
C65    C     0.78003   0.45495   0.20610   0.00000  Uiso   1.00
C66    C     0.76887   0.40003   0.19854   0.00000  Uiso   1.00
C67    C     0.70252   0.59396   0.12351   0.00000  Uiso   1.00
C68    C     0.66673   0.62789   0.15933   0.00000  Uiso   1.00
C69    C     0.60374   0.65205   0.13038   0.00000  Uiso   1.00
H70    H     0.70363   0.53859   0.98199   0.00000  Uiso   1.00
H71    H     0.80401   0.58348   0.91452   0.00000  Uiso   1.00
H72    H     0.70641   0.42835   0.03037   0.00000  Uiso   1.00
H73    H     0.59313   0.60126   0.98360   0.00000  Uiso   1.00
H74    H     0.92686   0.63741   0.86730   0.00000  Uiso   1.00
H75    H     0.72105   0.31031   0.11157   0.00000  Uiso   1.00
H76    H     0.48217   0.67492   0.01297   0.00000  Uiso   1.00
H77    H     0.79262   0.57077   0.19443   0.00000  Uiso   1.00
H78    H     0.89788   0.61743   0.13862   0.00000  Uiso   1.00
H79    H     0.80029   0.46230   0.25447   0.00000  Uiso   1.00
H80    H     0.68701   0.63521   0.20771   0.00000  Uiso   1.00
H81    H     0.00305   0.66496   0.04919   0.00000  Uiso   1.00
H82    H     0.79724   0.33786   0.29347   0.00000  Uiso   1.00
H83    H     0.55837   0.70247   0.19486   0.00000  Uiso   1.00
O84    O     0.03261   0.68128   0.91771   0.00000  Uiso   1.00
O85    O     0.76258   0.25214   0.23818   0.00000  Uiso   1.00
O86    O     0.44919   0.73050   0.10881   0.00000  Uiso   1.00
N87    N     0.93034   0.63750   0.91776   0.00000  Uiso   1.00
N88    N     0.73793   0.33168   0.14614   0.00000  Uiso   1.00
N89    N     0.51459   0.67255   0.05396   0.00000  Uiso   1.00
N90    N     0.97134   0.65232   0.01564   0.00000  Uiso   1.00
N91    N     0.77893   0.34650   0.24402   0.00000  Uiso   1.00
N92    N     0.55559   0.68738   0.15183   0.00000  Uiso   1.00
C93    C     0.97240   0.02276   0.28640   0.00000  Uiso   1.00
C94    C     0.96309   0.07586   0.31570   0.00000  Uiso   1.00
C95    C     0.90837   0.11627   0.30034   0.00000  Uiso   1.00
C96    C     0.90934   0.16177   0.33249   0.00000  Uiso   1.00
C97    C     0.88672   0.24349   0.37098   0.00000  Uiso   1.00
C98    C     0.04019   0.02697   0.25278   0.00000  Uiso   1.00
C99    C     0.05029   0.02626   0.18452   0.00000  Uiso   1.00
C100   C     0.11615   0.03059   0.16371   0.00000  Uiso   1.00
C101   C     0.21324   0.03637   0.10453   0.00000  Uiso   1.00
C102   C     0.98177   0.97160   0.34857   0.00000  Uiso   1.00
C103   C     0.94276   0.92432   0.36084   0.00000  Uiso   1.00
C104   C     0.95946   0.88203   0.42067   0.00000  Uiso   1.00
C105   C     0.96584   0.80184   0.51022   0.00000  Uiso   1.00
C106   C     0.07141   0.03171   0.37081   0.00000  Uiso   1.00
C107   C     0.01687   0.08072   0.36155   0.00000  Uiso   1.00
C108   C     0.01792   0.12617   0.39373   0.00000  Uiso   1.00
C109   C     0.96321   0.16664   0.37842   0.00000  Uiso   1.00
C110   C     0.09397   0.03183   0.29862   0.00000  Uiso   1.00
C111   C     0.15984   0.03616   0.27791   0.00000  Uiso   1.00
C112   C     0.17003   0.03546   0.20964   0.00000  Uiso   1.00
C113   C     0.03555   0.97646   0.39442   0.00000  Uiso   1.00
C114   C     0.05231   0.93423   0.45424   0.00000  Uiso   1.00
C115   C     0.01334   0.88690   0.46660   0.00000  Uiso   1.00
H116   H     0.93053   0.01898   0.25070   0.00000  Uiso   1.00
H117   H     0.86676   0.11249   0.26485   0.00000  Uiso   1.00
H118   H     0.00866   0.02249   0.14906   0.00000  Uiso   1.00
H119   H     0.90115   0.92058   0.32535   0.00000  Uiso   1.00
H120   H     0.81980   0.21833   0.30074   0.00000  Uiso   1.00
H121   H     0.11899   0.02854   0.05658   0.00000  Uiso   1.00
H122   H     0.89229   0.81363   0.42833   0.00000  Uiso   1.00
H123   H     0.11329   0.03549   0.40651   0.00000  Uiso   1.00
H124   H     0.05955   0.12992   0.42921   0.00000  Uiso   1.00
H125   H     0.20144   0.03992   0.31341   0.00000  Uiso   1.00
H126   H     0.09393   0.93800   0.48970   0.00000  Uiso   1.00
H127   H     0.97627   0.23247   0.43413   0.00000  Uiso   1.00
H128   H     0.27547   0.04268   0.18997   0.00000  Uiso   1.00
H129   H     0.04876   0.82777   0.56173   0.00000  Uiso   1.00
O130   O     0.85940   0.28722   0.37954   0.00000  Uiso   1.00
O131   O     0.25193   0.03822   0.05922   0.00000  Uiso   1.00
O132   O     0.95450   0.75626   0.54695   0.00000  Uiso   1.00
N133   N     0.86399   0.20869   0.32903   0.00000  Uiso   1.00
N134   N     0.14372   0.03126   0.10075   0.00000  Uiso   1.00
N135   N     0.93178   0.83033   0.44830   0.00000  Uiso   1.00
N136   N     0.94819   0.21630   0.40081   0.00000  Uiso   1.00
N137   N     0.22792   0.03887   0.17253   0.00000  Uiso   1.00
N138   N     0.01598   0.83794   0.52008   0.00000  Uiso   1.00
C139   C     0.51681   0.57576   0.68439   0.00000  Uiso   1.00
C140   C     0.55424   0.63070   0.67499   0.00000  Uiso   1.00
C141   C     0.55471   0.67295   0.61424   0.00000  Uiso   1.00
C142   C     0.59201   0.71995   0.61624   0.00000  Uiso   1.00
C143   C     0.64469   0.80458   0.59244   0.00000  Uiso   1.00
C144   C     0.47080   0.57593   0.74370   0.00000  Uiso   1.00
C145   C     0.40113   0.57212   0.74073   0.00000  Uiso   1.00
C146   C     0.36820   0.57300   0.80058   0.00000  Uiso   1.00
C147   C     0.29136   0.57256   0.88346   0.00000  Uiso   1.00
C148   C     0.57022   0.52637   0.71094   0.00000  Uiso   1.00
C149   C     0.58413   0.48088   0.68042   0.00000  Uiso   1.00
C150   C     0.63490   0.44003   0.71269   0.00000  Uiso   1.00
C151   C     0.71242   0.36264   0.74470   0.00000  Uiso   1.00
C152   C     0.58224   0.58410   0.79596   0.00000  Uiso   1.00
C153   C     0.58977   0.63523   0.73559   0.00000  Uiso   1.00
C154   C     0.62709   0.68217   0.73768   0.00000  Uiso   1.00
C155   C     0.62762   0.72448   0.67695   0.00000  Uiso   1.00
C156   C     0.50634   0.58046   0.80430   0.00000  Uiso   1.00
C157   C     0.47351   0.58134   0.86417   0.00000  Uiso   1.00
C158   C     0.40380   0.57754   0.86129   0.00000  Uiso   1.00
C159   C     0.60576   0.53090   0.77154   0.00000  Uiso   1.00
C160   C     0.65652   0.49011   0.80386   0.00000  Uiso   1.00
C161   C     0.67050   0.44456   0.77340   0.00000  Uiso   1.00
H162   H     0.48914   0.57223   0.63721   0.00000  Uiso   1.00
H163   H     0.52719   0.66943   0.56736   0.00000  Uiso   1.00
H164   H     0.37364   0.56861   0.69383   0.00000  Uiso   1.00
H165   H     0.55662   0.47739   0.63353   0.00000  Uiso   1.00
H166   H     0.58503   0.77919   0.51664   0.00000  Uiso   1.00
H167   H     0.26126   0.56659   0.78332   0.00000  Uiso   1.00
H168   H     0.64710   0.37423   0.65616   0.00000  Uiso   1.00
H169   H     0.60991   0.58763   0.84315   0.00000  Uiso   1.00
H170   H     0.65459   0.68567   0.78459   0.00000  Uiso   1.00
H171   H     0.50103   0.58485   0.91106   0.00000  Uiso   1.00
H172   H     0.68401   0.49363   0.85076   0.00000  Uiso   1.00
H173   H     0.68843   0.79238   0.69295   0.00000  Uiso   1.00
H174   H     0.36465   0.57977   0.95963   0.00000  Uiso   1.00
H175   H     0.75049   0.38741   0.83247   0.00000  Uiso   1.00
O176   O     0.66392   0.85001   0.56257   0.00000  Uiso   1.00
O177   O     0.23915   0.57107   0.91244   0.00000  Uiso   1.00
O178   O     0.74536   0.31870   0.74561   0.00000  Uiso   1.00
N179   N     0.60325   0.76884   0.56617   0.00000  Uiso   1.00
N180   N     0.30054   0.57007   0.81549   0.00000  Uiso   1.00
N181   N     0.66125   0.39022   0.69662   0.00000  Uiso   1.00
N182   N     0.65888   0.77593   0.66104   0.00000  Uiso   1.00
N183   N     0.35617   0.57717   0.91036   0.00000  Uiso   1.00
N184   N     0.71689   0.39732   0.79149   0.00000  Uiso   1.00
C185   C     0.08280   0.82656   0.96442   0.00000  Uiso   1.00
C186   C     0.15087   0.79257   0.98480   0.00000  Uiso   1.00
C187   C     0.16855   0.73936   0.97203   0.00000  Uiso   1.00
C188   C     0.23327   0.71537   0.99477   0.00000  Uiso   1.00
C189   C     0.33208   0.65831   0.02116   0.00000  Uiso   1.00
C190   C     0.09857   0.88497   0.92069   0.00000  Uiso   1.00
C191   C     0.07226   0.90945   0.85402   0.00000  Uiso   1.00
C192   C     0.09296   0.96324   0.82280   0.00000  Uiso   1.00
C193   C     0.11053   0.04965   0.74967   0.00000  Uiso   1.00
C194   C     0.05620   0.83779   0.03103   0.00000  Uiso   1.00
C195   C     0.99425   0.82261   0.05713   0.00000  Uiso   1.00
C196   C     0.97927   0.83670   0.11880   0.00000  Uiso   1.00
C197   C     0.93105   0.84986   0.21700   0.00000  Uiso   1.00
C198   C     0.16632   0.87859   0.02753   0.00000  Uiso   1.00
C199   C     0.19624   0.82083   0.01907   0.00000  Uiso   1.00
C200   C     0.26095   0.79691   0.04185   0.00000  Uiso   1.00
C201   C     0.27872   0.74367   0.02911   0.00000  Uiso   1.00
C202   C     0.14394   0.91323   0.95496   0.00000  Uiso   1.00
C203   C     0.16467   0.96700   0.92384   0.00000  Uiso   1.00
C204   C     0.13841   0.99155   0.85714   0.00000  Uiso   1.00
C205   C     0.10156   0.86605   0.06531   0.00000  Uiso   1.00
C206   C     0.08667   0.88017   0.12695   0.00000  Uiso   1.00
C207   C     0.02472   0.86501   0.15314   0.00000  Uiso   1.00
H208   H     0.04748   0.80457   0.93773   0.00000  Uiso   1.00
H209   H     0.13343   0.71751   0.94549   0.00000  Uiso   1.00
H210   H     0.03715   0.88757   0.82750   0.00000  Uiso   1.00
H211   H     0.95916   0.80075   0.03059   0.00000  Uiso   1.00
H212   H     0.24872   0.63345   0.96919   0.00000  Uiso   1.00
H213   H     0.04571   0.99206   0.72041   0.00000  Uiso   1.00
H214   H     0.88125   0.80898   0.14865   0.00000  Uiso   1.00
H215   H     0.20164   0.90059   0.05422   0.00000  Uiso   1.00
H216   H     0.29605   0.81879   0.06837   0.00000  Uiso   1.00
H217   H     0.19977   0.98886   0.95038   0.00000  Uiso   1.00
H218   H     0.12178   0.90204   0.15346   0.00000  Uiso   1.00
H219   H     0.38072   0.71566   0.06892   0.00000  Uiso   1.00
H220   H     0.17770   0.07427   0.82014   0.00000  Uiso   1.00
H221   H     0.01324   0.89118   0.24838   0.00000  Uiso   1.00
O222   O     0.37405   0.61903   0.02624   0.00000  Uiso   1.00
O223   O     0.10770   0.08950   0.69986   0.00000  Uiso   1.00
O224   O     0.89193   0.84930   0.26170   0.00000  Uiso   1.00
N225   N     0.26683   0.66402   0.99073   0.00000  Uiso   1.00
N226   N     0.07703   0.99929   0.75813   0.00000  Uiso   1.00
N227   N     0.92327   0.82814   0.15849   0.00000  Uiso   1.00
N228   N     0.33785   0.70826   0.04439   0.00000  Uiso   1.00
N229   N     0.14806   0.04353   0.81180   0.00000  Uiso   1.00
N230   N     0.99429   0.87237   0.21216   0.00000  Uiso   1.00
C231   C     0.29994   0.06978   0.45021   0.00000  Uiso   1.00
C232   C     0.30446   0.09056   0.51689   0.00000  Uiso   1.00
C233   C     0.25173   0.09414   0.55961   0.00000  Uiso   1.00
C234   C     0.26614   0.11423   0.61825   0.00000  Uiso   1.00
C235   C     0.26330   0.14405   0.71948   0.00000  Uiso   1.00
C236   C     0.35403   0.02046   0.45910   0.00000  Uiso   1.00
C237   C     0.34297   0.96510   0.45321   0.00000  Uiso   1.00
C238   C     0.39911   0.92619   0.46320   0.00000  Uiso   1.00
C239   C     0.47323   0.84719   0.47465   0.00000  Uiso   1.00
C240   C     0.32312   0.11839   0.39396   0.00000  Uiso   1.00
C241   C     0.28610   0.14537   0.33329   0.00000  Uiso   1.00
C242   C     0.31622   0.18891   0.28843   0.00000  Uiso   1.00
C243   C     0.34236   0.26197   0.19875   0.00000  Uiso   1.00
C244   C     0.41929   0.09910   0.47840   0.00000  Uiso   1.00
C245   C     0.36929   0.10648   0.53220   0.00000  Uiso   1.00
C246   C     0.38377   0.12658   0.59080   0.00000  Uiso   1.00
C247   C     0.33108   0.13019   0.63359   0.00000  Uiso   1.00
C248   C     0.41885   0.03638   0.47441   0.00000  Uiso   1.00
C249   C     0.47501   0.99754   0.48440   0.00000  Uiso   1.00
C250   C     0.46405   0.94214   0.47854   0.00000  Uiso   1.00
C251   C     0.38795   0.13432   0.40927   0.00000  Uiso   1.00
C252   C     0.41814   0.17782   0.36449   0.00000  Uiso   1.00
C253   C     0.38116   0.20486   0.30377   0.00000  Uiso   1.00
H254   H     0.24948   0.05737   0.43828   0.00000  Uiso   1.00
H255   H     0.20158   0.08180   0.54774   0.00000  Uiso   1.00
H256   H     0.29280   0.95279   0.44136   0.00000  Uiso   1.00
H257   H     0.23594   0.13304   0.32146   0.00000  Uiso   1.00
H258   H     0.17706   0.11589   0.67586   0.00000  Uiso   1.00
H259   H     0.36942   0.84387   0.45152   0.00000  Uiso   1.00
H260   H     0.24951   0.22395   0.19869   0.00000  Uiso   1.00
H261   H     0.46976   0.11150   0.49032   0.00000  Uiso   1.00
H262   H     0.43394   0.13890   0.60263   0.00000  Uiso   1.00
H263   H     0.52517   0.00988   0.49625   0.00000  Uiso   1.00
H264   H     0.46830   0.19013   0.37635   0.00000  Uiso   1.00
H265   H     0.36566   0.16223   0.72041   0.00000  Uiso   1.00
H266   H     0.55802   0.89021   0.49606   0.00000  Uiso   1.00
H267   H     0.43810   0.27029   0.24324   0.00000  Uiso   1.00
O268   O     0.24384   0.15610   0.77110   0.00000  Uiso   1.00
O269   O     0.49620   0.79921   0.47675   0.00000  Uiso   1.00
O270   O     0.33887   0.29787   0.14505   0.00000  Uiso   1.00
N271   N     0.22636   0.12305   0.67093   0.00000  Uiso   1.00
N272   N     0.40620   0.86872   0.46119   0.00000  Uiso   1.00
N273   N     0.29410   0.22405   0.22481   0.00000  Uiso   1.00
N274   N     0.32785   0.14799   0.69490   0.00000  Uiso   1.00
N275   N     0.50769   0.89365   0.48516   0.00000  Uiso   1.00
N276   N     0.39558   0.24899   0.24878   0.00000  Uiso   1.00
C277   C     0.52733   0.98639   0.11369   0.00000  Uiso   1.00
C278   C     0.49856   0.01404   0.04059   0.00000  Uiso   1.00
C279   C     0.50104   0.07141   0.00706   0.00000  Uiso   1.00
C280   C     0.47183   0.08829   0.94027   0.00000  Uiso   1.00
C281   C     0.43185   0.13718   0.83162   0.00000  Uiso   1.00
C282   C     0.57636   0.93686   0.10731   0.00000  Uiso   1.00
C283   C     0.64425   0.92933   0.12988   0.00000  Uiso   1.00
C284   C     0.68054   0.88124   0.11926   0.00000  Uiso   1.00
C285   C     0.76133   0.81027   0.11424   0.00000  Uiso   1.00
C286   C     0.46850   0.95890   0.15277   0.00000  Uiso   1.00
C287   C     0.44570   0.96989   0.21357   0.00000  Uiso   1.00
C288   C     0.39118   0.94033   0.24124   0.00000  Uiso   1.00
C289   C     0.30450   0.90359   0.30680   0.00000  Uiso   1.00
C290   C     0.47105   0.91435   0.05472   0.00000  Uiso   1.00
C291   C     0.46799   0.97491   0.00856   0.00000  Uiso   1.00
C292   C     0.43877   0.99171   0.94181   0.00000  Uiso   1.00
C293   C     0.44121   0.04910   0.90818   0.00000  Uiso   1.00
C294   C     0.54580   0.89773   0.07528   0.00000  Uiso   1.00
C295   C     0.58199   0.84963   0.06463   0.00000  Uiso   1.00
C296   C     0.64992   0.84204   0.08717   0.00000  Uiso   1.00
C297   C     0.43793   0.91977   0.12073   0.00000  Uiso   1.00
C298   C     0.38343   0.89019   0.14832   0.00000  Uiso   1.00
C299   C     0.36056   0.90114   0.20915   0.00000  Uiso   1.00
H300   H     0.55113   0.01685   0.13863   0.00000  Uiso   1.00
H301   H     0.52471   0.10168   0.03186   0.00000  Uiso   1.00
H302   H     0.66789   0.95962   0.15467   0.00000  Uiso   1.00
H303   H     0.46937   0.00017   0.23835   0.00000  Uiso   1.00
H304   H     0.48195   0.17847   0.89935   0.00000  Uiso   1.00
H305   H     0.78387   0.87892   0.15832   0.00000  Uiso   1.00
H306   H     0.36525   0.96442   0.33477   0.00000  Uiso   1.00
H307   H     0.44725   0.88389   0.02978   0.00000  Uiso   1.00
H308   H     0.41512   0.96142   0.91703   0.00000  Uiso   1.00
H309   H     0.55831   0.81936   0.03984   0.00000  Uiso   1.00
H310   H     0.35979   0.85991   0.12352   0.00000  Uiso   1.00
H311   H     0.39301   0.06463   0.80615   0.00000  Uiso   1.00
H312   H     0.69493   0.76508   0.06512   0.00000  Uiso   1.00
H313   H     0.27631   0.85059   0.24157   0.00000  Uiso   1.00
O314   O     0.41824   0.17495   0.78054   0.00000  Uiso   1.00
O315   O     0.81434   0.78195   0.12031   0.00000  Uiso   1.00
O316   O     0.26512   0.89413   0.35180   0.00000  Uiso   1.00
N317   N     0.46542   0.14104   0.89289   0.00000  Uiso   1.00
N318   N     0.74769   0.86098   0.13500   0.00000  Uiso   1.00
N319   N     0.35633   0.94091   0.29998   0.00000  Uiso   1.00
N320   N     0.41756   0.07978   0.84274   0.00000  Uiso   1.00
N321   N     0.69983   0.79973   0.08485   0.00000  Uiso   1.00
N322   N     0.30847   0.87966   0.24983   0.00000  Uiso   1.00
C323   C     0.96566   0.80085   0.77809   0.00000  Uiso   1.00
C324   C     0.90180   0.78014   0.81331   0.00000  Uiso   1.00
C325   C     0.88543   0.78393   0.87915   0.00000  Uiso   1.00
C326   C     0.82466   0.76253   0.90202   0.00000  Uiso   1.00
C327   C     0.73200   0.73409   0.96302   0.00000  Uiso   1.00
C328   C     0.94156   0.84287   0.71036   0.00000  Uiso   1.00
C329   C     0.95863   0.89941   0.68965   0.00000  Uiso   1.00
C330   C     0.93134   0.93081   0.62584   0.00000  Uiso   1.00
C331   C     0.90045   0.99976   0.52699   0.00000  Uiso   1.00
C332   C     0.99961   0.74888   0.75816   0.00000  Uiso   1.00
C333   C     0.06550   0.72639   0.77762   0.00000  Uiso   1.00
C334   C     0.08709   0.67866   0.75404   0.00000  Uiso   1.00
C335   C     0.14632   0.60166   0.72941   0.00000  Uiso   1.00
C336   C     0.88685   0.75609   0.70160   0.00000  Uiso   1.00
C337   C     0.85899   0.75583   0.77177   0.00000  Uiso   1.00
C338   C     0.79824   0.73441   0.79454   0.00000  Uiso   1.00
C339   C     0.78178   0.73817   0.86040   0.00000  Uiso   1.00
C340   C     0.89876   0.81856   0.66882   0.00000  Uiso   1.00
C341   C     0.87144   0.84988   0.60503   0.00000  Uiso   1.00
C342   C     0.88846   0.90645   0.58422   0.00000  Uiso   1.00
C343   C     0.95680   0.72456   0.71662   0.00000  Uiso   1.00
C344   C     0.97830   0.67686   0.69301   0.00000  Uiso   1.00
C345   C     0.04420   0.65430   0.71243   0.00000  Uiso   1.00
H346   H     0.99899   0.81979   0.81042   0.00000  Uiso   1.00
H347   H     0.91857   0.80276   0.91128   0.00000  Uiso   1.00
H348   H     0.99177   0.91821   0.72180   0.00000  Uiso   1.00
H349   H     0.09861   0.74522   0.80977   0.00000  Uiso   1.00
H350   H     0.81052   0.77318   0.00478   0.00000  Uiso   1.00
H351   H     0.96488   0.01661   0.60523   0.00000  Uiso   1.00
H352   H     0.19018   0.65182   0.79072   0.00000  Uiso   1.00
H353   H     0.85352   0.73716   0.66926   0.00000  Uiso   1.00
H354   H     0.76512   0.71559   0.76238   0.00000  Uiso   1.00
H355   H     0.83832   0.83105   0.57289   0.00000  Uiso   1.00
H356   H     0.94516   0.65806   0.66086   0.00000  Uiso   1.00
H357   H     0.68597   0.70243   0.88392   0.00000  Uiso   1.00
H358   H     0.84034   0.94587   0.48437   0.00000  Uiso   1.00
H359   H     0.06564   0.58108   0.66986   0.00000  Uiso   1.00
O360   O     0.69271   0.72513   0.00814   0.00000  Uiso   1.00
O361   O     0.89523   0.04450   0.48395   0.00000  Uiso   1.00
O362   O     0.19082   0.56590   0.72731   0.00000  Uiso   1.00
N363   N     0.79335   0.75947   0.96356   0.00000  Uiso   1.00
N364   N     0.93765   0.98708   0.59001   0.00000  Uiso   1.00
N365   N     0.14830   0.64603   0.76342   0.00000  Uiso   1.00
N366   N     0.72633   0.72141   0.89853   0.00000  Uiso   1.00
N367   N     0.87064   0.94901   0.52498   0.00000  Uiso   1.00
N368   N     0.08128   0.60797   0.69838   0.00000  Uiso   1.00
C369   C     0.69824   0.25373   0.50260   0.00000  Uiso   1.00
C370   C     0.69320   0.19871   0.47726   0.00000  Uiso   1.00
C371   C     0.74736   0.16212   0.46911   0.00000  Uiso   1.00
C372   C     0.73218   0.11398   0.44532   0.00000  Uiso   1.00
C373   C     0.73454   0.03022   0.40831   0.00000  Uiso   1.00
C374   C     0.65502   0.24696   0.56507   0.00000  Uiso   1.00
C375   C     0.67708   0.25094   0.63074   0.00000  Uiso   1.00
C376   C     0.62975   0.24342   0.68087   0.00000  Uiso   1.00
C377   C     0.57283   0.23461   0.78016   0.00000  Uiso   1.00
C378   C     0.66200   0.30152   0.44646   0.00000  Uiso   1.00
C379   C     0.68993   0.35139   0.41242   0.00000  Uiso   1.00
C380   C     0.64846   0.38982   0.36270   0.00000  Uiso   1.00
C381   C     0.60238   0.46573   0.27784   0.00000  Uiso   1.00
C382   C     0.57495   0.23330   0.47486   0.00000  Uiso   1.00
C383   C     0.62624   0.18761   0.46220   0.00000  Uiso   1.00
C384   C     0.61097   0.13952   0.43842   0.00000  Uiso   1.00
C385   C     0.66509   0.10287   0.43023   0.00000  Uiso   1.00
C386   C     0.58806   0.23586   0.55001   0.00000  Uiso   1.00
C387   C     0.54069   0.22834   0.60005   0.00000  Uiso   1.00
C388   C     0.56267   0.23231   0.66578   0.00000  Uiso   1.00
C389   C     0.59504   0.29042   0.43140   0.00000  Uiso   1.00
C390   C     0.55353   0.32878   0.38173   0.00000  Uiso   1.00
C391   C     0.58138   0.37870   0.34761   0.00000  Uiso   1.00
H392   H     0.75037   0.26237   0.51433   0.00000  Uiso   1.00
H393   H     0.79918   0.17072   0.48078   0.00000  Uiso   1.00
H394   H     0.72891   0.25954   0.64238   0.00000  Uiso   1.00
H395   H     0.74175   0.35997   0.42409   0.00000  Uiso   1.00
H396   H     0.82376   0.06421   0.43696   0.00000  Uiso   1.00
H397   H     0.67558   0.25150   0.77770   0.00000  Uiso   1.00
H398   H     0.70266   0.46328   0.31739   0.00000  Uiso   1.00
H399   H     0.52282   0.22466   0.46313   0.00000  Uiso   1.00
H400   H     0.55914   0.13094   0.42677   0.00000  Uiso   1.00
H401   H     0.48887   0.21975   0.58837   0.00000  Uiso   1.00
H402   H     0.50171   0.32018   0.37008   0.00000  Uiso   1.00
H403   H     0.62894   0.03192   0.39312   0.00000  Uiso   1.00
H404   H     0.48076   0.21921   0.73387   0.00000  Uiso   1.00
H405   H     0.50783   0.43099   0.27356   0.00000  Uiso   1.00
O406   O     0.75435   0.98709   0.39206   0.00000  Uiso   1.00
O407   O     0.55994   0.23281   0.83910   0.00000  Uiso   1.00
O408   O     0.59546   0.51065   0.23519   0.00000  Uiso   1.00
N409   N     0.77292   0.06948   0.43162   0.00000  Uiso   1.00
N410   N     0.63439   0.24457   0.75019   0.00000  Uiso   1.00
N411   N     0.65970   0.44257   0.31986   0.00000  Uiso   1.00
N412   N     0.66809   0.05210   0.40803   0.00000  Uiso   1.00
N413   N     0.52955   0.22720   0.72661   0.00000  Uiso   1.00
N414   N     0.55486   0.42520   0.29627   0.00000  Uiso   1.00
C415   C     0.81943   0.70531   0.43945   0.00000  Uiso   1.00
C416   C     0.78273   0.65038   0.44424   0.00000  Uiso   1.00
C417   C     0.77637   0.60831   0.50408   0.00000  Uiso   1.00
C418   C     0.74090   0.56129   0.49765   0.00000  Uiso   1.00
C419   C     0.68822   0.47670   0.51481   0.00000  Uiso   1.00
C420   C     0.87246   0.70491   0.38635   0.00000  Uiso   1.00
C421   C     0.94153   0.70868   0.39752   0.00000  Uiso   1.00
C422   C     0.98159   0.70757   0.34235   0.00000  Uiso   1.00
C423   C     0.06820   0.70767   0.26964   0.00000  Uiso   1.00
C424   C     0.76768   0.75470   0.40700   0.00000  Uiso   1.00
C425   C     0.74867   0.80034   0.43552   0.00000  Uiso   1.00
C426   C     0.70052   0.84116   0.39773   0.00000  Uiso   1.00
C427   C     0.62445   0.91857   0.35707   0.00000  Uiso   1.00
C428   C     0.76774   0.69664   0.32161   0.00000  Uiso   1.00
C429   C     0.75466   0.64567   0.38023   0.00000  Uiso   1.00
C430   C     0.71918   0.59871   0.37371   0.00000  Uiso   1.00
C431   C     0.71277   0.55657   0.43353   0.00000  Uiso   1.00
C432   C     0.84438   0.70019   0.32235   0.00000  Uiso   1.00
C433   C     0.88434   0.69908   0.26715   0.00000  Uiso   1.00
C434   C     0.95346   0.70285   0.27824   0.00000  Uiso   1.00
C435   C     0.73960   0.74999   0.34300   0.00000  Uiso   1.00
C436   C     0.69148   0.79074   0.30515   0.00000  Uiso   1.00
C437   C     0.67239   0.83644   0.33361   0.00000  Uiso   1.00
H438   H     0.84129   0.70898   0.48927   0.00000  Uiso   1.00
H439   H     0.79811   0.61197   0.55360   0.00000  Uiso   1.00
H440   H     0.96324   0.71233   0.44705   0.00000  Uiso   1.00
H441   H     0.77040   0.80398   0.48505   0.00000  Uiso   1.00
H442   H     0.73788   0.50232   0.59668   0.00000  Uiso   1.00
H443   H     0.08607   0.71396   0.37202   0.00000  Uiso   1.00
H444   H     0.67943   0.90722   0.45214   0.00000  Uiso   1.00
H445   H     0.74588   0.69297   0.27178   0.00000  Uiso   1.00
H446   H     0.69746   0.59507   0.32417   0.00000  Uiso   1.00
H447   H     0.86260   0.69544   0.21763   0.00000  Uiso   1.00
H448   H     0.66976   0.78708   0.25563   0.00000  Uiso   1.00
H449   H     0.65619   0.48861   0.41048   0.00000  Uiso   1.00
H450   H     0.00438   0.70025   0.18582   0.00000  Uiso   1.00
H451   H     0.59775   0.89351   0.26593   0.00000  Uiso   1.00
O452   O     0.66693   0.43134   0.54196   0.00000  Uiso   1.00
O453   O     0.12373   0.70903   0.24722   0.00000  Uiso   1.00
O454   O     0.59024   0.96257   0.35233   0.00000  Uiso   1.00
N455   N     0.72529   0.51253   0.54567   0.00000  Uiso   1.00
N456   N     0.05083   0.71040   0.33563   0.00000  Uiso   1.00
N457   N     0.67067   0.89108   0.41053   0.00000  Uiso   1.00
N458   N     0.68133   0.50515   0.44547   0.00000  Uiso   1.00
N459   N     0.00687   0.70302   0.23544   0.00000  Uiso   1.00
N460   N     0.62671   0.88371   0.31033   0.00000  Uiso   1.00
C461   C     0.37191   0.50729   0.21823   0.00000  Uiso   1.00
C462   C     0.30113   0.53183   0.18932   0.00000  Uiso   1.00
C463   C     0.27398   0.58680   0.18739   0.00000  Uiso   1.00
C464   C     0.20832   0.60102   0.15887   0.00000  Uiso   1.00
C465   C     0.10406   0.64511   0.11792   0.00000  Uiso   1.00
C466   C     0.36195   0.45290   0.27320   0.00000  Uiso   1.00
C467   C     0.38595   0.44151   0.34181   0.00000  Uiso   1.00
C468   C     0.37149   0.38928   0.38390   0.00000  Uiso   1.00
C469   C     0.36169   0.31081   0.47317   0.00000  Uiso   1.00
C470   C     0.40581   0.48744   0.15980   0.00000  Uiso   1.00
C471   C     0.46670   0.50509   0.13306   0.00000  Uiso   1.00
C472   C     0.48919   0.48193   0.07968   0.00000  Uiso   1.00
C473   C     0.54749   0.45710   0.99287   0.00000  Uiso   1.00
C474   C     0.30357   0.43478   0.17100   0.00000  Uiso   1.00
C475   C     0.26401   0.49244   0.16367   0.00000  Uiso   1.00
C476   C     0.19837   0.50659   0.13514   0.00000  Uiso   1.00
C477   C     0.17114   0.56157   0.13317   0.00000  Uiso   1.00
C478   C     0.32483   0.41352   0.24755   0.00000  Uiso   1.00
C479   C     0.31034   0.36129   0.28955   0.00000  Uiso   1.00
C480   C     0.33431   0.34983   0.35820   0.00000  Uiso   1.00
C481   C     0.36869   0.44806   0.13414   0.00000  Uiso   1.00
C482   C     0.39109   0.42487   0.08080   0.00000  Uiso   1.00
C483   C     0.45200   0.44248   0.05398   0.00000  Uiso   1.00
H484   H     0.40080   0.53794   0.23820   0.00000  Uiso   1.00
H485   H     0.30272   0.61726   0.20726   0.00000  Uiso   1.00
H486   H     0.41468   0.47199   0.36164   0.00000  Uiso   1.00
H487   H     0.49541   0.53556   0.15292   0.00000  Uiso   1.00
H488   H     0.17760   0.68783   0.16165   0.00000  Uiso   1.00
H489   H     0.41368   0.38151   0.48718   0.00000  Uiso   1.00
H490   H     0.58394   0.51556   0.04706   0.00000  Uiso   1.00
H491   H     0.27467   0.40412   0.15103   0.00000  Uiso   1.00
H492   H     0.16966   0.47610   0.11529   0.00000  Uiso   1.00
H493   H     0.28161   0.33083   0.26968   0.00000  Uiso   1.00
H494   H     0.36235   0.39440   0.06096   0.00000  Uiso   1.00
H495   H     0.06960   0.57326   0.08702   0.00000  Uiso   1.00
H496   H     0.30568   0.26693   0.41254   0.00000  Uiso   1.00
H497   H     0.47594   0.40098   0.97242   0.00000  Uiso   1.00
O498   O     0.05680   0.68030   0.10242   0.00000  Uiso   1.00
O499   O     0.36653   0.27842   0.52950   0.00000  Uiso   1.00
O500   O     0.58990   0.45429   0.95207   0.00000  Uiso   1.00
N501   N     0.16660   0.65099   0.14898   0.00000  Uiso   1.00
N502   N     0.38731   0.36460   0.45333   0.00000  Uiso   1.00
N503   N     0.54649   0.48992   0.04187   0.00000  Uiso   1.00
N504   N     0.10849   0.58934   0.10882   0.00000  Uiso   1.00
N505   N     0.32920   0.30295   0.41317   0.00000  Uiso   1.00
N506   N     0.48838   0.42826   0.00170   0.00000  Uiso   1.00
C507   C     0.07556   0.27574   0.72221   0.00000  Uiso   1.00
C508   C     0.09543   0.25898   0.65614   0.00000  Uiso   1.00
C509   C     0.15651   0.26876   0.62533   0.00000  Uiso   1.00
C510   C     0.16492   0.25018   0.56506   0.00000  Uiso   1.00
C511   C     0.20350   0.22835   0.46676   0.00000  Uiso   1.00
C512   C     0.00966   0.31325   0.70339   0.00000  Uiso   1.00
C513   C     0.99864   0.36865   0.71233   0.00000  Uiso   1.00
C514   C     0.93484   0.39576   0.69184   0.00000  Uiso   1.00
C515   C     0.84026   0.45816   0.66696   0.00000  Uiso   1.00
C516   C     0.05737   0.22048   0.77129   0.00000  Uiso   1.00
C517   C     0.08644   0.19788   0.83732   0.00000  Uiso   1.00
C518   C     0.06279   0.14689   0.87401   0.00000  Uiso   1.00
C519   C     0.04228   0.06525   0.95454   0.00000  Uiso   1.00
C520   C     0.98187   0.22537   0.66996   0.00000  Uiso   1.00
C521   C     0.04454   0.23162   0.62776   0.00000  Uiso   1.00
C522   C     0.05285   0.21303   0.56752   0.00000  Uiso   1.00
C523   C     0.11394   0.22277   0.53663   0.00000  Uiso   1.00
C524   C     0.95877   0.28589   0.67501   0.00000  Uiso   1.00
C525   C     0.89498   0.31292   0.65452   0.00000  Uiso   1.00
C526   C     0.88386   0.36835   0.66341   0.00000  Uiso   1.00
C527   C     0.00648   0.19312   0.74291   0.00000  Uiso   1.00
C528   C     0.98278   0.14215   0.77951   0.00000  Uiso   1.00
C529   C     0.01181   0.11948   0.84558   0.00000  Uiso   1.00
H530   H     0.11517   0.29704   0.74431   0.00000  Uiso   1.00
H531   H     0.19588   0.28994   0.64730   0.00000  Uiso   1.00
H532   H     0.03802   0.38981   0.73430   0.00000  Uiso   1.00
H533   H     0.12581   0.21907   0.85926   0.00000  Uiso   1.00
H534   H     0.26290   0.27001   0.52723   0.00000  Uiso   1.00
H535   H     0.93006   0.48059   0.71068   0.00000  Uiso   1.00
H536   H     0.11518   0.12055   0.97420   0.00000  Uiso   1.00
H537   H     0.94224   0.20407   0.64786   0.00000  Uiso   1.00
H538   H     0.01346   0.19186   0.54557   0.00000  Uiso   1.00
H539   H     0.85561   0.29174   0.63256   0.00000  Uiso   1.00
H540   H     0.94340   0.12099   0.75753   0.00000  Uiso   1.00
H541   H     0.11485   0.19041   0.44466   0.00000  Uiso   1.00
H542   H     0.78200   0.40099   0.62811   0.00000  Uiso   1.00
H543   H     0.96712   0.04095   0.89163   0.00000  Uiso   1.00
O544   O     0.23884   0.22387   0.42038   0.00000  Uiso   1.00
O545   O     0.80215   0.50014   0.66107   0.00000  Uiso   1.00
O546   O     0.04503   0.02777   0.00680   0.00000  Uiso   1.00
N547   N     0.21829   0.25294   0.52184   0.00000  Uiso   1.00
N548   N     0.90710   0.44983   0.69335   0.00000  Uiso   1.00
N549   N     0.08016   0.11322   0.93973   0.00000  Uiso   1.00
N550   N     0.13862   0.21011   0.47741   0.00000  Uiso   1.00
N551   N     0.82743   0.40699   0.64892   0.00000  Uiso   1.00
N552   N     0.00049   0.07039   0.89529   0.00000  Uiso   1.00
