data_job_06400
_audit_creation_date              2018-12-19
_audit_creation_method            'Materials Studio'
_symmetry_space_group_name_H-M    'P1'
_symmetry_Int_Tables_number       1
_symmetry_cell_setting            triclinic
loop_
_symmetry_equiv_pos_as_xyz
  x,y,z
_cell_length_a                    12.3488
_cell_length_b                    19.8241
_cell_length_c                    19.9115
_cell_angle_alpha                 63.7260
_cell_angle_beta                  79.5978
_cell_angle_gamma                 100.3443
loop_
_atom_site_label
_atom_site_type_symbol
_atom_site_fract_x
_atom_site_fract_y
_atom_site_fract_z
_atom_site_U_iso_or_equiv
_atom_site_adp_type
_atom_site_occupancy
C1     C     0.24198   0.55123   0.15492   0.00000  Uiso   1.00
C2     C     0.29729   0.63326   0.08397   0.00000  Uiso   1.00
C3     C     0.30605   0.65305   0.00665   0.00000  Uiso   1.00
C4     C     0.35971   0.73132   0.95024   0.00000  Uiso   1.00
C5     C     0.43906   0.85011   0.83699   0.00000  Uiso   1.00
C6     C     0.33417   0.53222   0.19602   0.00000  Uiso   1.00
C7     C     0.37392   0.46704   0.21292   0.00000  Uiso   1.00
C8     C     0.45862   0.46026   0.25084   0.00000  Uiso   1.00
C9     C     0.59516   0.42214   0.31160   0.00000  Uiso   1.00
C10    C     0.14912   0.55937   0.21033   0.00000  Uiso   1.00
C11    C     0.03328   0.51701   0.23928   0.00000  Uiso   1.00
C12    C     0.96218   0.53307   0.28925   0.00000  Uiso   1.00
C13    C     0.81141   0.53710   0.37223   0.00000  Uiso   1.00
C14    C     0.32170   0.65506   0.19223   0.00000  Uiso   1.00
C15    C     0.34060   0.68966   0.10424   0.00000  Uiso   1.00
C16    C     0.39425   0.76793   0.04792   0.00000  Uiso   1.00
C17    C     0.40309   0.78782   0.97053   0.00000  Uiso   1.00
C18    C     0.37747   0.58861   0.21629   0.00000  Uiso   1.00
C19    C     0.46213   0.58192   0.25419   0.00000  Uiso   1.00
C20    C     0.50200   0.51675   0.27114   0.00000  Uiso   1.00
C21    C     0.19242   0.61577   0.23059   0.00000  Uiso   1.00
C22    C     0.12149   0.63189   0.28054   0.00000  Uiso   1.00
C23    C     0.00557   0.58956   0.30955   0.00000  Uiso   1.00
H24    H     0.20827   0.50732   0.13915   0.00000  Uiso   1.00
H25    H     0.27253   0.60938   0.99100   0.00000  Uiso   1.00
H26    H     0.34038   0.42341   0.19724   0.00000  Uiso   1.00
H27    H     0.99980   0.47337   0.22358   0.00000  Uiso   1.00
H28    H     0.36291   0.74741   0.83567   0.00000  Uiso   1.00
H29    H     0.50596   0.35524   0.27057   0.00000  Uiso   1.00
H30    H     0.78777   0.46059   0.32613   0.00000  Uiso   1.00
H31    H     0.35542   0.69897   0.20800   0.00000  Uiso   1.00
H32    H     0.42776   0.81155   0.06362   0.00000  Uiso   1.00
H33    H     0.49561   0.62557   0.26987   0.00000  Uiso   1.00
H34    H     0.15503   0.67553   0.29621   0.00000  Uiso   1.00
H35    H     0.48891   0.91149   0.89462   0.00000  Uiso   1.00
H36    H     0.63195   0.51932   0.32952   0.00000  Uiso   1.00
H37    H     0.91377   0.62468   0.38507   0.00000  Uiso   1.00
O38    O     0.47088   0.90005   0.76892   0.00000  Uiso   1.00
O39    O     0.65852   0.38553   0.33950   0.00000  Uiso   1.00
O40    O     0.71629   0.52376   0.41239   0.00000  Uiso   1.00
N41    N     0.38262   0.77058   0.86936   0.00000  Uiso   1.00
N42    N     0.51637   0.40393   0.27595   0.00000  Uiso   1.00
N43    N     0.84493   0.50241   0.32791   0.00000  Uiso   1.00
N44    N     0.45041   0.85887   0.90108   0.00000  Uiso   1.00
N45    N     0.58416   0.49223   0.30767   0.00000  Uiso   1.00
N46    N     0.91273   0.59071   0.35963   0.00000  Uiso   1.00
C47    C     0.67629   0.29217   0.55126   0.00000  Uiso   1.00
C48    C     0.65600   0.28183   0.63355   0.00000  Uiso   1.00
C49    C     0.64646   0.33978   0.65347   0.00000  Uiso   1.00
C50    C     0.62798   0.31859   0.73198   0.00000  Uiso   1.00
C51    C     0.59784   0.31417   0.85116   0.00000  Uiso   1.00
C52    C     0.78468   0.26833   0.53506   0.00000  Uiso   1.00
C53    C     0.88333   0.31491   0.47217   0.00000  Uiso   1.00
C54    C     0.97317   0.28234   0.46776   0.00000  Uiso   1.00
C55    C     0.14278   0.25693   0.43399   0.00000  Uiso   1.00
C56    C     0.57735   0.22996   0.55644   0.00000  Uiso   1.00
C57    C     0.50169   0.24427   0.51151   0.00000  Uiso   1.00
C58    C     0.41699   0.17940   0.52510   0.00000  Uiso   1.00
C59    C     0.26469   0.09441   0.52453   0.00000  Uiso   1.00
C60    C     0.66045   0.15150   0.65525   0.00000  Uiso   1.00
C61    C     0.64740   0.20543   0.69003   0.00000  Uiso   1.00
C62    C     0.62893   0.18415   0.76853   0.00000  Uiso   1.00
C63    C     0.61936   0.24205   0.78857   0.00000  Uiso   1.00
C64    C     0.77608   0.19192   0.59154   0.00000  Uiso   1.00
C65    C     0.86580   0.15928   0.58722   0.00000  Uiso   1.00
C66    C     0.96455   0.20580   0.52435   0.00000  Uiso   1.00
C67    C     0.56874   0.15355   0.61292   0.00000  Uiso   1.00
C68    C     0.48416   0.08864   0.62657   0.00000  Uiso   1.00
C69    C     0.40837   0.10286   0.58168   0.00000  Uiso   1.00
H70    H     0.68300   0.35165   0.50728   0.00000  Uiso   1.00
H71    H     0.65313   0.39890   0.60974   0.00000  Uiso   1.00
H72    H     0.88996   0.37403   0.42846   0.00000  Uiso   1.00
H73    H     0.50838   0.30340   0.46781   0.00000  Uiso   1.00
H74    H     0.61626   0.41759   0.74825   0.00000  Uiso   1.00
H75    H     0.11561   0.36514   0.36599   0.00000  Uiso   1.00
H76    H     0.31097   0.21622   0.44895   0.00000  Uiso   1.00
H77    H     0.65375   0.09202   0.69923   0.00000  Uiso   1.00
H78    H     0.62227   0.12502   0.81223   0.00000  Uiso   1.00
H79    H     0.85910   0.10015   0.63094   0.00000  Uiso   1.00
H80    H     0.47752   0.02953   0.67029   0.00000  Uiso   1.00
H81    H     0.59122   0.19530   0.91259   0.00000  Uiso   1.00
H82    H     0.09057   0.14285   0.53032   0.00000  Uiso   1.00
H83    H     0.28593   0.99393   0.61330   0.00000  Uiso   1.00
O84    O     0.58360   0.33285   0.90129   0.00000  Uiso   1.00
O85    O     0.23872   0.26403   0.39977   0.00000  Uiso   1.00
O86    O     0.18305   0.06865   0.50862   0.00000  Uiso   1.00
N87    N     0.61467   0.36074   0.77142   0.00000  Uiso   1.00
N88    N     0.08153   0.31171   0.41404   0.00000  Uiso   1.00
N89    N     0.32929   0.17248   0.49159   0.00000  Uiso   1.00
N90    N     0.60119   0.24113   0.85985   0.00000  Uiso   1.00
N91    N     0.06806   0.19210   0.50247   0.00000  Uiso   1.00
N92    N     0.31581   0.05286   0.58002   0.00000  Uiso   1.00
C93    C     0.38993   0.15787   0.29258   0.00000  Uiso   1.00
C94    C     0.37949   0.08582   0.28158   0.00000  Uiso   1.00
C95    C     0.31732   0.00900   0.33810   0.00000  Uiso   1.00
C96    C     0.31856   0.95139   0.31652   0.00000  Uiso   1.00
C97    C     0.29307   0.83668   0.31092   0.00000  Uiso   1.00
C98    C     0.51859   0.19600   0.27229   0.00000  Uiso   1.00
C99    C     0.57338   0.21182   0.32099   0.00000  Uiso   1.00
C100   C     0.69171   0.24696   0.29158   0.00000  Uiso   1.00
C101   C     0.88217   0.30336   0.27154   0.00000  Uiso   1.00
C102   C     0.34899   0.21529   0.22874   0.00000  Uiso   1.00
C103   C     0.26118   0.24735   0.24081   0.00000  Uiso   1.00
C104   C     0.23673   0.29875   0.17472   0.00000  Uiso   1.00
C105   C     0.16385   0.38510   0.08705   0.00000  Uiso   1.00
C106   C     0.50267   0.19217   0.15376   0.00000  Uiso   1.00
C107   C     0.44073   0.10445   0.20618   0.00000  Uiso   1.00
C108   C     0.44205   0.04694   0.18451   0.00000  Uiso   1.00
C109   C     0.37989   0.97005   0.24098   0.00000  Uiso   1.00
C110   C     0.57983   0.21463   0.19689   0.00000  Uiso   1.00
C111   C     0.69810   0.24976   0.16740   0.00000  Uiso   1.00
C112   C     0.75305   0.26563   0.21604   0.00000  Uiso   1.00
C113   C     0.41022   0.23392   0.15333   0.00000  Uiso   1.00
C114   C     0.38591   0.28529   0.08721   0.00000  Uiso   1.00
C115   C     0.29808   0.31742   0.09918   0.00000  Uiso   1.00
H116   H     0.34227   0.14337   0.35128   0.00000  Uiso   1.00
H117   H     0.26995   0.99460   0.39645   0.00000  Uiso   1.00
H118   H     0.52597   0.19740   0.37933   0.00000  Uiso   1.00
H119   H     0.21382   0.23292   0.29917   0.00000  Uiso   1.00
H120   H     0.21682   0.83788   0.41327   0.00000  Uiso   1.00
H121   H     0.75663   0.26551   0.37718   0.00000  Uiso   1.00
H122   H     0.09840   0.34042   0.20813   0.00000  Uiso   1.00
H123   H     0.55035   0.20667   0.09505   0.00000  Uiso   1.00
H124   H     0.48944   0.06138   0.12615   0.00000  Uiso   1.00
H125   H     0.74546   0.26417   0.10904   0.00000  Uiso   1.00
H126   H     0.43331   0.29969   0.02887   0.00000  Uiso   1.00
H127   H     0.39497   0.89208   0.19389   0.00000  Uiso   1.00
H128   H     0.93478   0.31971   0.15780   0.00000  Uiso   1.00
H129   H     0.27655   0.39461   0.98875   0.00000  Uiso   1.00
O130   O     0.26211   0.76826   0.32867   0.00000  Uiso   1.00
O131   O     0.97031   0.32930   0.28132   0.00000  Uiso   1.00
O132   O     0.10673   0.42757   0.05953   0.00000  Uiso   1.00
N133   N     0.26709   0.87058   0.35737   0.00000  Uiso   1.00
N134   N     0.77178   0.27038   0.32363   0.00000  Uiso   1.00
N135   N     0.15641   0.34043   0.16558   0.00000  Uiso   1.00
N136   N     0.36295   0.89974   0.23932   0.00000  Uiso   1.00
N137   N     0.86764   0.29954   0.20559   0.00000  Uiso   1.00
N138   N     0.25227   0.36959   0.04753   0.00000  Uiso   1.00
C139   C     0.74210   0.84514   0.44796   0.00000  Uiso   1.00
C140   C     0.79740   0.91626   0.36619   0.00000  Uiso   1.00
C141   C     0.80620   0.99396   0.34631   0.00000  Uiso   1.00
C142   C     0.85985   0.05047   0.26830   0.00000  Uiso   1.00
C143   C     0.93919   0.16402   0.14986   0.00000  Uiso   1.00
C144   C     0.83427   0.80383   0.46695   0.00000  Uiso   1.00
C145   C     0.87406   0.78699   0.53179   0.00000  Uiso   1.00
C146   C     0.95873   0.74885   0.53861   0.00000  Uiso   1.00
C147   C     0.09526   0.68781   0.57663   0.00000  Uiso   1.00
C148   C     0.64919   0.78943   0.44005   0.00000  Uiso   1.00
C149   C     0.53336   0.76047   0.48229   0.00000  Uiso   1.00
C150   C     0.46221   0.71019   0.46647   0.00000  Uiso   1.00
C151   C     0.31137   0.62678   0.46273   0.00000  Uiso   1.00
C152   C     0.82171   0.80732   0.34479   0.00000  Uiso   1.00
C153   C     0.84065   0.89571   0.31015   0.00000  Uiso   1.00
C154   C     0.89428   0.95212   0.23216   0.00000  Uiso   1.00
C155   C     0.90316   0.02990   0.21216   0.00000  Uiso   1.00
C156   C     0.87751   0.78329   0.41091   0.00000  Uiso   1.00
C157   C     0.96214   0.74515   0.41764   0.00000  Uiso   1.00
C158   C     0.00205   0.72828   0.48247   0.00000  Uiso   1.00
C159   C     0.69243   0.76889   0.38401   0.00000  Uiso   1.00
C160   C     0.62145   0.71864   0.36813   0.00000  Uiso   1.00
C161   C     0.50553   0.68961   0.41034   0.00000  Uiso   1.00
H162   H     0.70843   0.86113   0.49159   0.00000  Uiso   1.00
H163   H     0.77273   0.00983   0.38969   0.00000  Uiso   1.00
H164   H     0.84057   0.80289   0.57515   0.00000  Uiso   1.00
H165   H     0.49993   0.77638   0.52565   0.00000  Uiso   1.00
H166   H     0.86313   0.16564   0.25201   0.00000  Uiso   1.00
H167   H     0.00614   0.72927   0.64307   0.00000  Uiso   1.00
H168   H     0.28783   0.67336   0.53869   0.00000  Uiso   1.00
H169   H     0.85538   0.79133   0.30116   0.00000  Uiso   1.00
H170   H     0.92774   0.93621   0.18881   0.00000  Uiso   1.00
H171   H     0.99558   0.72927   0.37427   0.00000  Uiso   1.00
H172   H     0.65494   0.70275   0.32476   0.00000  Uiso   1.00
H173   H     0.98895   0.10589   0.08896   0.00000  Uiso   1.00
H174   H     0.13195   0.66951   0.48003   0.00000  Uiso   1.00
H175   H     0.41364   0.61360   0.37564   0.00000  Uiso   1.00
O176   O     0.97102   0.23233   0.10002   0.00000  Uiso   1.00
O177   O     0.15862   0.65982   0.61308   0.00000  Uiso   1.00
O178   O     0.21622   0.58646   0.47613   0.00000  Uiso   1.00
N179   N     0.88279   0.13170   0.22905   0.00000  Uiso   1.00
N180   N     0.01651   0.72373   0.59466   0.00000  Uiso   1.00
N181   N     0.34495   0.67143   0.49709   0.00000  Uiso   1.00
N182   N     0.95049   0.09954   0.14132   0.00000  Uiso   1.00
N183   N     0.08421   0.69157   0.50693   0.00000  Uiso   1.00
N184   N     0.41265   0.63928   0.40936   0.00000  Uiso   1.00
C185   C     0.17633   0.44952   0.70789   0.00000  Uiso   1.00
C186   C     0.15598   0.36680   0.71840   0.00000  Uiso   1.00
C187   C     0.14638   0.34660   0.66084   0.00000  Uiso   1.00
C188   C     0.12786   0.26771   0.68212   0.00000  Uiso   1.00
C189   C     0.09762   0.14789   0.68684   0.00000  Uiso   1.00
C190   C     0.28476   0.46584   0.73153   0.00000  Uiso   1.00
C191   C     0.38341   0.52893   0.68501   0.00000  Uiso   1.00
C192   C     0.47329   0.53342   0.71735   0.00000  Uiso   1.00
C193   C     0.64294   0.56739   0.74247   0.00000  Uiso   1.00
C194   C     0.07744   0.44451   0.76980   0.00000  Uiso   1.00
C195   C     0.00180   0.48967   0.75547   0.00000  Uiso   1.00
C196   C     0.91714   0.47621   0.82005   0.00000  Uiso   1.00
C197   C     0.76491   0.47706   0.90460   0.00000  Uiso   1.00
C198   C     0.16052   0.34531   0.84805   0.00000  Uiso   1.00
C199   C     0.14740   0.31020   0.79452   0.00000  Uiso   1.00
C200   C     0.12888   0.23132   0.81590   0.00000  Uiso   1.00
C201   C     0.11925   0.21101   0.75838   0.00000  Uiso   1.00
C202   C     0.27617   0.40924   0.80765   0.00000  Uiso   1.00
C203   C     0.36591   0.41364   0.84007   0.00000  Uiso   1.00
C204   C     0.46468   0.47672   0.79361   0.00000  Uiso   1.00
C205   C     0.06885   0.38791   0.84593   0.00000  Uiso   1.00
C206   C     0.98430   0.37438   0.91054   0.00000  Uiso   1.00
C207   C     0.90854   0.41951   0.89631   0.00000  Uiso   1.00
H208   H     0.18303   0.49358   0.64863   0.00000  Uiso   1.00
H209   H     0.15304   0.39042   0.60193   0.00000  Uiso   1.00
H210   H     0.39003   0.57272   0.62610   0.00000  Uiso   1.00
H211   H     0.00848   0.53347   0.69656   0.00000  Uiso   1.00
H212   H     0.11605   0.25110   0.58372   0.00000  Uiso   1.00
H213   H     0.61574   0.63550   0.63470   0.00000  Uiso   1.00
H214   H     0.81116   0.55272   0.78326   0.00000  Uiso   1.00
H215   H     0.15383   0.30125   0.90732   0.00000  Uiso   1.00
H216   H     0.12224   0.18753   0.87481   0.00000  Uiso   1.00
H217   H     0.35923   0.36983   0.89898   0.00000  Uiso   1.00
H218   H     0.97768   0.33057   0.96944   0.00000  Uiso   1.00
H219   H     0.09106   0.08642   0.80520   0.00000  Uiso   1.00
H220   H     0.59075   0.47083   0.85618   0.00000  Uiso   1.00
H221   H     0.78616   0.38805   0.00474   0.00000  Uiso   1.00
O222   O     0.08334   0.09743   0.66841   0.00000  Uiso   1.00
O223   O     0.73890   0.60176   0.73529   0.00000  Uiso   1.00
O224   O     0.68330   0.49315   0.93020   0.00000  Uiso   1.00
N225   N     0.11448   0.22794   0.64031   0.00000  Uiso   1.00
N226   N     0.58167   0.58733   0.68797   0.00000  Uiso   1.00
N227   N     0.82947   0.50996   0.82687   0.00000  Uiso   1.00
N228   N     0.10103   0.13933   0.75949   0.00000  Uiso   1.00
N229   N     0.56822   0.49872   0.80714   0.00000  Uiso   1.00
N230   N     0.81602   0.42135   0.94604   0.00000  Uiso   1.00
C231   C     0.88977   0.70661   0.84291   0.00000  Uiso   1.00
C232   C     0.87939   0.71787   0.91452   0.00000  Uiso   1.00
C233   C     0.81725   0.66126   0.99108   0.00000  Uiso   1.00
C234   C     0.81854   0.68311   0.04831   0.00000  Uiso   1.00
C235   C     0.79315   0.68905   0.16236   0.00000  Uiso   1.00
C236   C     0.01842   0.72688   0.80490   0.00000  Uiso   1.00
C237   C     0.07315   0.67784   0.78928   0.00000  Uiso   1.00
C238   C     0.19148   0.70729   0.75422   0.00000  Uiso   1.00
C239   C     0.38191   0.72723   0.69803   0.00000  Uiso   1.00
C240   C     0.84883   0.77068   0.78566   0.00000  Uiso   1.00
C241   C     0.76099   0.75849   0.75384   0.00000  Uiso   1.00
C242   C     0.73656   0.82482   0.70255   0.00000  Uiso   1.00
C243   C     0.66368   0.91278   0.61649   0.00000  Uiso   1.00
C244   C     0.00259   0.84610   0.80840   0.00000  Uiso   1.00
C245   C     0.94068   0.79363   0.89578   0.00000  Uiso   1.00
C246   C     0.94206   0.81558   0.95290   0.00000  Uiso   1.00
C247   C     0.87992   0.75901   0.02953   0.00000  Uiso   1.00
C248   C     0.07970   0.80263   0.78616   0.00000  Uiso   1.00
C249   C     0.19797   0.83216   0.75110   0.00000  Uiso   1.00
C250   C     0.25287   0.78318   0.73544   0.00000  Uiso   1.00
C251   C     0.91011   0.84644   0.76691   0.00000  Uiso   1.00
C252   C     0.88581   0.91281   0.71566   0.00000  Uiso   1.00
C253   C     0.79795   0.90071   0.68378   0.00000  Uiso   1.00
H254   H     0.84208   0.64763   0.85750   0.00000  Uiso   1.00
H255   H     0.76984   0.60263   0.00556   0.00000  Uiso   1.00
H256   H     0.02571   0.61922   0.80378   0.00000  Uiso   1.00
H257   H     0.71359   0.69985   0.76835   0.00000  Uiso   1.00
H258   H     0.71682   0.58614   0.16146   0.00000  Uiso   1.00
H259   H     0.25632   0.62112   0.73598   0.00000  Uiso   1.00
H260   H     0.59816   0.79115   0.66126   0.00000  Uiso   1.00
H261   H     0.05031   0.90508   0.79380   0.00000  Uiso   1.00
H262   H     0.98949   0.87421   0.93838   0.00000  Uiso   1.00
H263   H     0.24536   0.89079   0.73660   0.00000  Uiso   1.00
H264   H     0.93325   0.97143   0.70117   0.00000  Uiso   1.00
H265   H     0.89510   0.80657   0.10693   0.00000  Uiso   1.00
H266   H     0.43460   0.84155   0.68144   0.00000  Uiso   1.00
H267   H     0.77645   0.01158   0.60673   0.00000  Uiso   1.00
O268   O     0.76223   0.67139   0.23045   0.00000  Uiso   1.00
O269   O     0.47003   0.71729   0.67222   0.00000  Uiso   1.00
O270   O     0.60654   0.94036   0.57420   0.00000  Uiso   1.00
N271   N     0.76710   0.64226   0.12878   0.00000  Uiso   1.00
N272   N     0.27151   0.67496   0.73099   0.00000  Uiso   1.00
N273   N     0.65621   0.83393   0.66112   0.00000  Uiso   1.00
N274   N     0.86303   0.76087   0.09944   0.00000  Uiso   1.00
N275   N     0.36744   0.79357   0.70165   0.00000  Uiso   1.00
N276   N     0.75214   0.95253   0.63178   0.00000  Uiso   1.00
