data_job_01584
_audit_creation_date              2018-12-19
_audit_creation_method            'Materials Studio'
_symmetry_space_group_name_H-M    'P1'
_symmetry_Int_Tables_number       1
_symmetry_cell_setting            triclinic
loop_
_symmetry_equiv_pos_as_xyz
  x,y,z
_cell_length_a                    30.2746
_cell_length_b                    7.3946
_cell_length_c                    42.6170
_cell_angle_alpha                 90.0000
_cell_angle_beta                  35.9732
_cell_angle_gamma                 90.0000
loop_
_atom_site_label
_atom_site_type_symbol
_atom_site_fract_x
_atom_site_fract_y
_atom_site_fract_z
_atom_site_U_iso_or_equiv
_atom_site_adp_type
_atom_site_occupancy
C1     C     0.30967   0.73677   0.88179   0.00000  Uiso   1.00
C2     C     0.23609   0.68306   0.93993   0.00000  Uiso   1.00
C3     C     0.19449   0.79050   0.98413   0.00000  Uiso   1.00
C4     C     0.12875   0.71666   0.03396   0.00000  Uiso   1.00
C5     C     0.01805   0.65985   0.12341   0.00000  Uiso   1.00
C6     C     0.36687   0.59265   0.85814   0.00000  Uiso   1.00
C7     C     0.43523   0.62409   0.83356   0.00000  Uiso   1.00
C8     C     0.47959   0.47414   0.81453   0.00000  Uiso   1.00
C9     C     0.57196   0.27698   0.77697   0.00000  Uiso   1.00
C10    C     0.29674   0.71381   0.85408   0.00000  Uiso   1.00
C11    C     0.30615   0.84709   0.82608   0.00000  Uiso   1.00
C12    C     0.29148   0.79913   0.80361   0.00000  Uiso   1.00
C13    C     0.27496   0.79008   0.75975   0.00000  Uiso   1.00
C14    C     0.26690   0.41458   0.89167   0.00000  Uiso   1.00
C15    C     0.21286   0.50806   0.94529   0.00000  Uiso   1.00
C16    C     0.14717   0.43404   0.99506   0.00000  Uiso   1.00
C17    C     0.10547   0.54135   0.03933   0.00000  Uiso   1.00
C18    C     0.34364   0.41766   0.86350   0.00000  Uiso   1.00
C19    C     0.38791   0.26762   0.84450   0.00000  Uiso   1.00
C20    C     0.45632   0.29882   0.81990   0.00000  Uiso   1.00
C21    C     0.27350   0.53881   0.85945   0.00000  Uiso   1.00
C22    C     0.25883   0.49062   0.83701   0.00000  Uiso   1.00
C23    C     0.26821   0.62381   0.80899   0.00000  Uiso   1.00
H24    H     0.32776   0.87301   0.87761   0.00000  Uiso   1.00
H25    H     0.21249   0.92592   0.97996   0.00000  Uiso   1.00
H26    H     0.45320   0.75953   0.82941   0.00000  Uiso   1.00
H27    H     0.32413   0.98250   0.82193   0.00000  Uiso   1.00
H28    H     0.07446   0.90738   0.09581   0.00000  Uiso   1.00
H29    H     0.58202   0.55654   0.77835   0.00000  Uiso   1.00
H30    H     0.30986   0.02672   0.76257   0.00000  Uiso   1.00
H31    H     0.24881   0.27833   0.89585   0.00000  Uiso   1.00
H32    H     0.12920   0.29861   0.99920   0.00000  Uiso   1.00
H33    H     0.36992   0.13222   0.84865   0.00000  Uiso   1.00
H34    H     0.24085   0.35519   0.84117   0.00000  Uiso   1.00
H35    H     0.00686   0.39823   0.11142   0.00000  Uiso   1.00
H36    H     0.51443   0.04739   0.79396   0.00000  Uiso   1.00
H37    H     0.24227   0.51756   0.77819   0.00000  Uiso   1.00
O38    O     0.96342   0.67685   0.17128   0.00000  Uiso   1.00
O39    O     0.62933   0.21658   0.75477   0.00000  Uiso   1.00
O40    O     0.27226   0.83343   0.73408   0.00000  Uiso   1.00
N41    N     0.07496   0.78478   0.08530   0.00000  Uiso   1.00
N42    N     0.54950   0.45677   0.78850   0.00000  Uiso   1.00
N43    N     0.29507   0.89633   0.77374   0.00000  Uiso   1.00
N44    N     0.03858   0.51081   0.09370   0.00000  Uiso   1.00
N45    N     0.51312   0.18280   0.79690   0.00000  Uiso   1.00
N46    N     0.25869   0.62236   0.78214   0.00000  Uiso   1.00
C47    C     0.80967   0.23677   0.88179   0.00000  Uiso   1.00
C48    C     0.73609   0.18306   0.93993   0.00000  Uiso   1.00
C49    C     0.69449   0.29050   0.98413   0.00000  Uiso   1.00
C50    C     0.62875   0.21666   0.03396   0.00000  Uiso   1.00
C51    C     0.51805   0.15985   0.12341   0.00000  Uiso   1.00
C52    C     0.86687   0.09265   0.85814   0.00000  Uiso   1.00
C53    C     0.93523   0.12409   0.83356   0.00000  Uiso   1.00
C54    C     0.97959   0.97414   0.81453   0.00000  Uiso   1.00
C55    C     0.07196   0.77698   0.77697   0.00000  Uiso   1.00
C56    C     0.79674   0.21381   0.85408   0.00000  Uiso   1.00
C57    C     0.80615   0.34709   0.82608   0.00000  Uiso   1.00
C58    C     0.79148   0.29913   0.80361   0.00000  Uiso   1.00
C59    C     0.77496   0.29008   0.75975   0.00000  Uiso   1.00
C60    C     0.76690   0.91458   0.89167   0.00000  Uiso   1.00
C61    C     0.71286   0.00806   0.94529   0.00000  Uiso   1.00
C62    C     0.64717   0.93404   0.99506   0.00000  Uiso   1.00
C63    C     0.60547   0.04135   0.03933   0.00000  Uiso   1.00
C64    C     0.84364   0.91766   0.86350   0.00000  Uiso   1.00
C65    C     0.88791   0.76762   0.84450   0.00000  Uiso   1.00
C66    C     0.95632   0.79882   0.81990   0.00000  Uiso   1.00
C67    C     0.77350   0.03881   0.85945   0.00000  Uiso   1.00
C68    C     0.75883   0.99062   0.83701   0.00000  Uiso   1.00
C69    C     0.76821   0.12381   0.80899   0.00000  Uiso   1.00
H70    H     0.82776   0.37301   0.87761   0.00000  Uiso   1.00
H71    H     0.71249   0.42592   0.97996   0.00000  Uiso   1.00
H72    H     0.95320   0.25953   0.82941   0.00000  Uiso   1.00
H73    H     0.82413   0.48250   0.82193   0.00000  Uiso   1.00
H74    H     0.57446   0.40738   0.09581   0.00000  Uiso   1.00
H75    H     0.08202   0.05654   0.77835   0.00000  Uiso   1.00
H76    H     0.80986   0.52672   0.76257   0.00000  Uiso   1.00
H77    H     0.74881   0.77833   0.89585   0.00000  Uiso   1.00
H78    H     0.62920   0.79861   0.99920   0.00000  Uiso   1.00
H79    H     0.86992   0.63222   0.84865   0.00000  Uiso   1.00
H80    H     0.74085   0.85519   0.84117   0.00000  Uiso   1.00
H81    H     0.50686   0.89823   0.11142   0.00000  Uiso   1.00
H82    H     0.01443   0.54739   0.79396   0.00000  Uiso   1.00
H83    H     0.74227   0.01756   0.77819   0.00000  Uiso   1.00
O84    O     0.46342   0.17685   0.17128   0.00000  Uiso   1.00
O85    O     0.12933   0.71658   0.75477   0.00000  Uiso   1.00
O86    O     0.77226   0.33343   0.73408   0.00000  Uiso   1.00
N87    N     0.57496   0.28478   0.08530   0.00000  Uiso   1.00
N88    N     0.04950   0.95677   0.78850   0.00000  Uiso   1.00
N89    N     0.79507   0.39633   0.77374   0.00000  Uiso   1.00
N90    N     0.53858   0.01081   0.09370   0.00000  Uiso   1.00
N91    N     0.01312   0.68280   0.79690   0.00000  Uiso   1.00
N92    N     0.75869   0.12236   0.78214   0.00000  Uiso   1.00
C93    C     0.69033   0.73677   0.61821   0.00000  Uiso   1.00
C94    C     0.76391   0.68306   0.56007   0.00000  Uiso   1.00
C95    C     0.80551   0.79050   0.51587   0.00000  Uiso   1.00
C96    C     0.87125   0.71666   0.46604   0.00000  Uiso   1.00
C97    C     0.98195   0.65985   0.37659   0.00000  Uiso   1.00
C98    C     0.63313   0.59265   0.64186   0.00000  Uiso   1.00
C99    C     0.56477   0.62409   0.66644   0.00000  Uiso   1.00
C100   C     0.52041   0.47414   0.68547   0.00000  Uiso   1.00
C101   C     0.42804   0.27698   0.72303   0.00000  Uiso   1.00
C102   C     0.70326   0.71381   0.64592   0.00000  Uiso   1.00
C103   C     0.69385   0.84709   0.67392   0.00000  Uiso   1.00
C104   C     0.70852   0.79913   0.69639   0.00000  Uiso   1.00
C105   C     0.72504   0.79008   0.74025   0.00000  Uiso   1.00
C106   C     0.73310   0.41458   0.60833   0.00000  Uiso   1.00
C107   C     0.78714   0.50806   0.55471   0.00000  Uiso   1.00
C108   C     0.85283   0.43404   0.50494   0.00000  Uiso   1.00
C109   C     0.89453   0.54135   0.46067   0.00000  Uiso   1.00
C110   C     0.65636   0.41766   0.63650   0.00000  Uiso   1.00
C111   C     0.61209   0.26762   0.65550   0.00000  Uiso   1.00
C112   C     0.54368   0.29882   0.68010   0.00000  Uiso   1.00
C113   C     0.72650   0.53881   0.64055   0.00000  Uiso   1.00
C114   C     0.74117   0.49062   0.66299   0.00000  Uiso   1.00
C115   C     0.73179   0.62381   0.69101   0.00000  Uiso   1.00
H116   H     0.67224   0.87301   0.62239   0.00000  Uiso   1.00
H117   H     0.78751   0.92592   0.52004   0.00000  Uiso   1.00
H118   H     0.54680   0.75953   0.67059   0.00000  Uiso   1.00
H119   H     0.67587   0.98250   0.67807   0.00000  Uiso   1.00
H120   H     0.92554   0.90738   0.40419   0.00000  Uiso   1.00
H121   H     0.41798   0.55654   0.72165   0.00000  Uiso   1.00
H122   H     0.69014   0.02672   0.73743   0.00000  Uiso   1.00
H123   H     0.75119   0.27833   0.60415   0.00000  Uiso   1.00
H124   H     0.87080   0.29861   0.50080   0.00000  Uiso   1.00
H125   H     0.63008   0.13222   0.65135   0.00000  Uiso   1.00
H126   H     0.75915   0.35519   0.65883   0.00000  Uiso   1.00
H127   H     0.99314   0.39823   0.38858   0.00000  Uiso   1.00
H128   H     0.48557   0.04739   0.70604   0.00000  Uiso   1.00
H129   H     0.75773   0.51756   0.72181   0.00000  Uiso   1.00
O130   O     0.03658   0.67685   0.32872   0.00000  Uiso   1.00
O131   O     0.37067   0.21658   0.74523   0.00000  Uiso   1.00
O132   O     0.72774   0.83343   0.76592   0.00000  Uiso   1.00
N133   N     0.92504   0.78478   0.41470   0.00000  Uiso   1.00
N134   N     0.45050   0.45677   0.71150   0.00000  Uiso   1.00
N135   N     0.70493   0.89633   0.72626   0.00000  Uiso   1.00
N136   N     0.96142   0.51081   0.40630   0.00000  Uiso   1.00
N137   N     0.48688   0.18280   0.70310   0.00000  Uiso   1.00
N138   N     0.74131   0.62236   0.71786   0.00000  Uiso   1.00
C139   C     0.19033   0.23677   0.61821   0.00000  Uiso   1.00
C140   C     0.26391   0.18306   0.56007   0.00000  Uiso   1.00
C141   C     0.30551   0.29050   0.51587   0.00000  Uiso   1.00
C142   C     0.37125   0.21666   0.46604   0.00000  Uiso   1.00
C143   C     0.48195   0.15985   0.37659   0.00000  Uiso   1.00
C144   C     0.13313   0.09265   0.64186   0.00000  Uiso   1.00
C145   C     0.06477   0.12409   0.66644   0.00000  Uiso   1.00
C146   C     0.02041   0.97414   0.68547   0.00000  Uiso   1.00
C147   C     0.92804   0.77698   0.72303   0.00000  Uiso   1.00
C148   C     0.20326   0.21381   0.64592   0.00000  Uiso   1.00
C149   C     0.19385   0.34709   0.67392   0.00000  Uiso   1.00
C150   C     0.20852   0.29913   0.69639   0.00000  Uiso   1.00
C151   C     0.22504   0.29008   0.74025   0.00000  Uiso   1.00
C152   C     0.23310   0.91458   0.60833   0.00000  Uiso   1.00
C153   C     0.28714   0.00806   0.55471   0.00000  Uiso   1.00
C154   C     0.35283   0.93404   0.50494   0.00000  Uiso   1.00
C155   C     0.39453   0.04135   0.46067   0.00000  Uiso   1.00
C156   C     0.15636   0.91766   0.63650   0.00000  Uiso   1.00
C157   C     0.11209   0.76762   0.65550   0.00000  Uiso   1.00
C158   C     0.04368   0.79882   0.68010   0.00000  Uiso   1.00
C159   C     0.22650   0.03881   0.64055   0.00000  Uiso   1.00
C160   C     0.24117   0.99062   0.66299   0.00000  Uiso   1.00
C161   C     0.23179   0.12381   0.69101   0.00000  Uiso   1.00
H162   H     0.17224   0.37301   0.62239   0.00000  Uiso   1.00
H163   H     0.28751   0.42592   0.52004   0.00000  Uiso   1.00
H164   H     0.04680   0.25953   0.67059   0.00000  Uiso   1.00
H165   H     0.17587   0.48250   0.67807   0.00000  Uiso   1.00
H166   H     0.42554   0.40738   0.40419   0.00000  Uiso   1.00
H167   H     0.91798   0.05654   0.72165   0.00000  Uiso   1.00
H168   H     0.19014   0.52672   0.73743   0.00000  Uiso   1.00
H169   H     0.25119   0.77833   0.60415   0.00000  Uiso   1.00
H170   H     0.37080   0.79861   0.50080   0.00000  Uiso   1.00
H171   H     0.13008   0.63222   0.65135   0.00000  Uiso   1.00
H172   H     0.25915   0.85519   0.65883   0.00000  Uiso   1.00
H173   H     0.49314   0.89823   0.38858   0.00000  Uiso   1.00
H174   H     0.98557   0.54739   0.70604   0.00000  Uiso   1.00
H175   H     0.25773   0.01756   0.72181   0.00000  Uiso   1.00
O176   O     0.53658   0.17685   0.32872   0.00000  Uiso   1.00
O177   O     0.87067   0.71658   0.74523   0.00000  Uiso   1.00
O178   O     0.22774   0.33343   0.76592   0.00000  Uiso   1.00
N179   N     0.42504   0.28478   0.41470   0.00000  Uiso   1.00
N180   N     0.95050   0.95677   0.71150   0.00000  Uiso   1.00
N181   N     0.20493   0.39633   0.72626   0.00000  Uiso   1.00
N182   N     0.46142   0.01081   0.40630   0.00000  Uiso   1.00
N183   N     0.98688   0.68280   0.70310   0.00000  Uiso   1.00
N184   N     0.24131   0.12236   0.71786   0.00000  Uiso   1.00
C185   C     0.69033   0.26323   0.11821   0.00000  Uiso   1.00
C186   C     0.76391   0.31694   0.06007   0.00000  Uiso   1.00
C187   C     0.80551   0.20950   0.01587   0.00000  Uiso   1.00
C188   C     0.87125   0.28334   0.96604   0.00000  Uiso   1.00
C189   C     0.98195   0.34015   0.87659   0.00000  Uiso   1.00
C190   C     0.63313   0.40735   0.14186   0.00000  Uiso   1.00
C191   C     0.56477   0.37591   0.16644   0.00000  Uiso   1.00
C192   C     0.52041   0.52586   0.18547   0.00000  Uiso   1.00
C193   C     0.42804   0.72302   0.22303   0.00000  Uiso   1.00
C194   C     0.70326   0.28619   0.14592   0.00000  Uiso   1.00
C195   C     0.69385   0.15291   0.17392   0.00000  Uiso   1.00
C196   C     0.70852   0.20087   0.19639   0.00000  Uiso   1.00
C197   C     0.72504   0.20992   0.24025   0.00000  Uiso   1.00
C198   C     0.73310   0.58542   0.10833   0.00000  Uiso   1.00
C199   C     0.78714   0.49194   0.05471   0.00000  Uiso   1.00
C200   C     0.85283   0.56596   0.00494   0.00000  Uiso   1.00
C201   C     0.89453   0.45865   0.96067   0.00000  Uiso   1.00
C202   C     0.65636   0.58234   0.13650   0.00000  Uiso   1.00
C203   C     0.61209   0.73238   0.15550   0.00000  Uiso   1.00
C204   C     0.54368   0.70118   0.18010   0.00000  Uiso   1.00
C205   C     0.72650   0.46119   0.14055   0.00000  Uiso   1.00
C206   C     0.74117   0.50938   0.16299   0.00000  Uiso   1.00
C207   C     0.73179   0.37619   0.19101   0.00000  Uiso   1.00
H208   H     0.67224   0.12699   0.12239   0.00000  Uiso   1.00
H209   H     0.78751   0.07408   0.02004   0.00000  Uiso   1.00
H210   H     0.54680   0.24047   0.17059   0.00000  Uiso   1.00
H211   H     0.67587   0.01750   0.17807   0.00000  Uiso   1.00
H212   H     0.92554   0.09262   0.90419   0.00000  Uiso   1.00
H213   H     0.41798   0.44346   0.22165   0.00000  Uiso   1.00
H214   H     0.69014   0.97328   0.23743   0.00000  Uiso   1.00
H215   H     0.75119   0.72167   0.10415   0.00000  Uiso   1.00
H216   H     0.87080   0.70139   0.00080   0.00000  Uiso   1.00
H217   H     0.63008   0.86778   0.15135   0.00000  Uiso   1.00
H218   H     0.75915   0.64481   0.15883   0.00000  Uiso   1.00
H219   H     0.99314   0.60177   0.88858   0.00000  Uiso   1.00
H220   H     0.48557   0.95261   0.20604   0.00000  Uiso   1.00
H221   H     0.75773   0.48244   0.22181   0.00000  Uiso   1.00
O222   O     0.03658   0.32315   0.82872   0.00000  Uiso   1.00
O223   O     0.37067   0.78342   0.24523   0.00000  Uiso   1.00
O224   O     0.72774   0.16657   0.26592   0.00000  Uiso   1.00
N225   N     0.92504   0.21522   0.91470   0.00000  Uiso   1.00
N226   N     0.45050   0.54323   0.21150   0.00000  Uiso   1.00
N227   N     0.70493   0.10367   0.22626   0.00000  Uiso   1.00
N228   N     0.96142   0.48919   0.90630   0.00000  Uiso   1.00
N229   N     0.48688   0.81720   0.20310   0.00000  Uiso   1.00
N230   N     0.74131   0.37764   0.21786   0.00000  Uiso   1.00
C231   C     0.19033   0.76323   0.11821   0.00000  Uiso   1.00
C232   C     0.26391   0.81694   0.06007   0.00000  Uiso   1.00
C233   C     0.30551   0.70950   0.01587   0.00000  Uiso   1.00
C234   C     0.37125   0.78334   0.96604   0.00000  Uiso   1.00
C235   C     0.48195   0.84015   0.87659   0.00000  Uiso   1.00
C236   C     0.13313   0.90735   0.14186   0.00000  Uiso   1.00
C237   C     0.06477   0.87591   0.16644   0.00000  Uiso   1.00
C238   C     0.02041   0.02586   0.18547   0.00000  Uiso   1.00
C239   C     0.92804   0.22302   0.22303   0.00000  Uiso   1.00
C240   C     0.20326   0.78619   0.14592   0.00000  Uiso   1.00
C241   C     0.19385   0.65291   0.17392   0.00000  Uiso   1.00
C242   C     0.20852   0.70087   0.19639   0.00000  Uiso   1.00
C243   C     0.22504   0.70992   0.24025   0.00000  Uiso   1.00
C244   C     0.23310   0.08542   0.10833   0.00000  Uiso   1.00
C245   C     0.28714   0.99194   0.05471   0.00000  Uiso   1.00
C246   C     0.35283   0.06596   0.00494   0.00000  Uiso   1.00
C247   C     0.39453   0.95865   0.96067   0.00000  Uiso   1.00
C248   C     0.15636   0.08234   0.13650   0.00000  Uiso   1.00
C249   C     0.11209   0.23238   0.15550   0.00000  Uiso   1.00
C250   C     0.04368   0.20118   0.18010   0.00000  Uiso   1.00
C251   C     0.22650   0.96119   0.14055   0.00000  Uiso   1.00
C252   C     0.24117   0.00938   0.16299   0.00000  Uiso   1.00
C253   C     0.23179   0.87619   0.19101   0.00000  Uiso   1.00
H254   H     0.17224   0.62699   0.12239   0.00000  Uiso   1.00
H255   H     0.28751   0.57408   0.02004   0.00000  Uiso   1.00
H256   H     0.04680   0.74047   0.17059   0.00000  Uiso   1.00
H257   H     0.17587   0.51750   0.17807   0.00000  Uiso   1.00
H258   H     0.42554   0.59262   0.90419   0.00000  Uiso   1.00
H259   H     0.91798   0.94346   0.22165   0.00000  Uiso   1.00
H260   H     0.19014   0.47328   0.23743   0.00000  Uiso   1.00
H261   H     0.25119   0.22167   0.10415   0.00000  Uiso   1.00
H262   H     0.37080   0.20139   0.00080   0.00000  Uiso   1.00
H263   H     0.13008   0.36778   0.15135   0.00000  Uiso   1.00
H264   H     0.25915   0.14481   0.15883   0.00000  Uiso   1.00
H265   H     0.49314   0.10177   0.88858   0.00000  Uiso   1.00
H266   H     0.98557   0.45261   0.20604   0.00000  Uiso   1.00
H267   H     0.25773   0.98244   0.22181   0.00000  Uiso   1.00
O268   O     0.53658   0.82315   0.82872   0.00000  Uiso   1.00
O269   O     0.87067   0.28342   0.24523   0.00000  Uiso   1.00
O270   O     0.22774   0.66657   0.26592   0.00000  Uiso   1.00
N271   N     0.42504   0.71522   0.91470   0.00000  Uiso   1.00
N272   N     0.95050   0.04323   0.21150   0.00000  Uiso   1.00
N273   N     0.20493   0.60367   0.22626   0.00000  Uiso   1.00
N274   N     0.46142   0.98919   0.90630   0.00000  Uiso   1.00
N275   N     0.98688   0.31720   0.20310   0.00000  Uiso   1.00
N276   N     0.24131   0.87764   0.21786   0.00000  Uiso   1.00
C277   C     0.30967   0.26323   0.38179   0.00000  Uiso   1.00
C278   C     0.23609   0.31694   0.43993   0.00000  Uiso   1.00
C279   C     0.19449   0.20950   0.48413   0.00000  Uiso   1.00
C280   C     0.12875   0.28334   0.53396   0.00000  Uiso   1.00
C281   C     0.01805   0.34015   0.62341   0.00000  Uiso   1.00
C282   C     0.36687   0.40735   0.35814   0.00000  Uiso   1.00
C283   C     0.43523   0.37591   0.33356   0.00000  Uiso   1.00
C284   C     0.47959   0.52586   0.31453   0.00000  Uiso   1.00
C285   C     0.57196   0.72302   0.27697   0.00000  Uiso   1.00
C286   C     0.29674   0.28619   0.35408   0.00000  Uiso   1.00
C287   C     0.30615   0.15291   0.32608   0.00000  Uiso   1.00
C288   C     0.29148   0.20087   0.30361   0.00000  Uiso   1.00
C289   C     0.27496   0.20992   0.25975   0.00000  Uiso   1.00
C290   C     0.26690   0.58542   0.39167   0.00000  Uiso   1.00
C291   C     0.21286   0.49194   0.44529   0.00000  Uiso   1.00
C292   C     0.14717   0.56596   0.49506   0.00000  Uiso   1.00
C293   C     0.10547   0.45865   0.53933   0.00000  Uiso   1.00
C294   C     0.34364   0.58234   0.36350   0.00000  Uiso   1.00
C295   C     0.38791   0.73238   0.34450   0.00000  Uiso   1.00
C296   C     0.45632   0.70118   0.31990   0.00000  Uiso   1.00
C297   C     0.27350   0.46119   0.35945   0.00000  Uiso   1.00
C298   C     0.25883   0.50938   0.33701   0.00000  Uiso   1.00
C299   C     0.26821   0.37619   0.30899   0.00000  Uiso   1.00
H300   H     0.32776   0.12699   0.37761   0.00000  Uiso   1.00
H301   H     0.21249   0.07408   0.47996   0.00000  Uiso   1.00
H302   H     0.45320   0.24047   0.32941   0.00000  Uiso   1.00
H303   H     0.32413   0.01750   0.32193   0.00000  Uiso   1.00
H304   H     0.07446   0.09262   0.59581   0.00000  Uiso   1.00
H305   H     0.58202   0.44346   0.27835   0.00000  Uiso   1.00
H306   H     0.30986   0.97328   0.26257   0.00000  Uiso   1.00
H307   H     0.24881   0.72167   0.39585   0.00000  Uiso   1.00
H308   H     0.12920   0.70139   0.49920   0.00000  Uiso   1.00
H309   H     0.36992   0.86778   0.34865   0.00000  Uiso   1.00
H310   H     0.24085   0.64481   0.34117   0.00000  Uiso   1.00
H311   H     0.00686   0.60177   0.61142   0.00000  Uiso   1.00
H312   H     0.51443   0.95261   0.29396   0.00000  Uiso   1.00
H313   H     0.24227   0.48244   0.27819   0.00000  Uiso   1.00
O314   O     0.96342   0.32315   0.67128   0.00000  Uiso   1.00
O315   O     0.62933   0.78342   0.25477   0.00000  Uiso   1.00
O316   O     0.27226   0.16657   0.23408   0.00000  Uiso   1.00
N317   N     0.07496   0.21522   0.58530   0.00000  Uiso   1.00
N318   N     0.54950   0.54323   0.28850   0.00000  Uiso   1.00
N319   N     0.29507   0.10367   0.27374   0.00000  Uiso   1.00
N320   N     0.03858   0.48919   0.59370   0.00000  Uiso   1.00
N321   N     0.51312   0.81720   0.29690   0.00000  Uiso   1.00
N322   N     0.25869   0.37764   0.28214   0.00000  Uiso   1.00
C323   C     0.80967   0.76323   0.38179   0.00000  Uiso   1.00
C324   C     0.73609   0.81694   0.43993   0.00000  Uiso   1.00
C325   C     0.69449   0.70950   0.48413   0.00000  Uiso   1.00
C326   C     0.62875   0.78334   0.53396   0.00000  Uiso   1.00
C327   C     0.51805   0.84015   0.62341   0.00000  Uiso   1.00
C328   C     0.86687   0.90735   0.35814   0.00000  Uiso   1.00
C329   C     0.93523   0.87591   0.33356   0.00000  Uiso   1.00
C330   C     0.97959   0.02586   0.31453   0.00000  Uiso   1.00
C331   C     0.07196   0.22302   0.27697   0.00000  Uiso   1.00
C332   C     0.79674   0.78619   0.35408   0.00000  Uiso   1.00
C333   C     0.80615   0.65291   0.32608   0.00000  Uiso   1.00
C334   C     0.79148   0.70087   0.30361   0.00000  Uiso   1.00
C335   C     0.77496   0.70992   0.25975   0.00000  Uiso   1.00
C336   C     0.76690   0.08542   0.39167   0.00000  Uiso   1.00
C337   C     0.71286   0.99194   0.44529   0.00000  Uiso   1.00
C338   C     0.64717   0.06596   0.49506   0.00000  Uiso   1.00
C339   C     0.60547   0.95865   0.53933   0.00000  Uiso   1.00
C340   C     0.84364   0.08234   0.36350   0.00000  Uiso   1.00
C341   C     0.88791   0.23238   0.34450   0.00000  Uiso   1.00
C342   C     0.95632   0.20118   0.31990   0.00000  Uiso   1.00
C343   C     0.77350   0.96119   0.35945   0.00000  Uiso   1.00
C344   C     0.75883   0.00938   0.33701   0.00000  Uiso   1.00
C345   C     0.76821   0.87619   0.30899   0.00000  Uiso   1.00
H346   H     0.82776   0.62699   0.37761   0.00000  Uiso   1.00
H347   H     0.71249   0.57408   0.47996   0.00000  Uiso   1.00
H348   H     0.95320   0.74047   0.32941   0.00000  Uiso   1.00
H349   H     0.82413   0.51750   0.32193   0.00000  Uiso   1.00
H350   H     0.57446   0.59262   0.59581   0.00000  Uiso   1.00
H351   H     0.08202   0.94346   0.27835   0.00000  Uiso   1.00
H352   H     0.80986   0.47328   0.26257   0.00000  Uiso   1.00
H353   H     0.74881   0.22167   0.39585   0.00000  Uiso   1.00
H354   H     0.62920   0.20139   0.49920   0.00000  Uiso   1.00
H355   H     0.86992   0.36778   0.34865   0.00000  Uiso   1.00
H356   H     0.74085   0.14481   0.34117   0.00000  Uiso   1.00
H357   H     0.50686   0.10177   0.61142   0.00000  Uiso   1.00
H358   H     0.01443   0.45261   0.29396   0.00000  Uiso   1.00
H359   H     0.74227   0.98244   0.27819   0.00000  Uiso   1.00
O360   O     0.46342   0.82315   0.67128   0.00000  Uiso   1.00
O361   O     0.12933   0.28342   0.25477   0.00000  Uiso   1.00
O362   O     0.77226   0.66657   0.23408   0.00000  Uiso   1.00
N363   N     0.57496   0.71522   0.58530   0.00000  Uiso   1.00
N364   N     0.04950   0.04323   0.28850   0.00000  Uiso   1.00
N365   N     0.79507   0.60367   0.27374   0.00000  Uiso   1.00
N366   N     0.53858   0.98919   0.59370   0.00000  Uiso   1.00
N367   N     0.01312   0.31720   0.29690   0.00000  Uiso   1.00
N368   N     0.75869   0.87764   0.28214   0.00000  Uiso   1.00
