data_job_06622
_audit_creation_date              2018-12-19
_audit_creation_method            'Materials Studio'
_symmetry_space_group_name_H-M    'P1'
_symmetry_Int_Tables_number       1
_symmetry_cell_setting            triclinic
loop_
_symmetry_equiv_pos_as_xyz
  x,y,z
_cell_length_a                    21.1700
_cell_length_b                    22.3489
_cell_length_c                    23.0980
_cell_angle_alpha                 71.2760
_cell_angle_beta                  94.2587
_cell_angle_gamma                 66.4190
loop_
_atom_site_label
_atom_site_type_symbol
_atom_site_fract_x
_atom_site_fract_y
_atom_site_fract_z
_atom_site_U_iso_or_equiv
_atom_site_adp_type
_atom_site_occupancy
C1     C     0.35661   0.93398   0.55951   0.00000  Uiso   1.00
C2     C     0.41883   0.91144   0.52889   0.00000  Uiso   1.00
C3     C     0.43969   0.95653   0.48745   0.00000  Uiso   1.00
C4     C     0.49796   0.92556   0.46460   0.00000  Uiso   1.00
C5     C     0.58906   0.90175   0.41428   0.00000  Uiso   1.00
C6     C     0.30921   0.90296   0.54210   0.00000  Uiso   1.00
C7     C     0.23789   0.94091   0.51178   0.00000  Uiso   1.00
C8     C     0.20388   0.90279   0.50006   0.00000  Uiso   1.00
C9     C     0.12477   0.86579   0.47029   0.00000  Uiso   1.00
C10    C     0.38729   0.89489   0.63023   0.00000  Uiso   1.00
C11    C     0.38162   0.92605   0.67402   0.00000  Uiso   1.00
C12    C     0.41333   0.88113   0.73650   0.00000  Uiso   1.00
C13    C     0.45547   0.83161   0.84357   0.00000  Uiso   1.00
C14    C     0.42300   0.79879   0.59260   0.00000  Uiso   1.00
C15    C     0.45489   0.83802   0.54686   0.00000  Uiso   1.00
C16    C     0.51314   0.80697   0.52406   0.00000  Uiso   1.00
C17    C     0.53409   0.85201   0.48260   0.00000  Uiso   1.00
C18    C     0.34526   0.82953   0.56007   0.00000  Uiso   1.00
C19    C     0.31134   0.79135   0.54839   0.00000  Uiso   1.00
C20    C     0.24000   0.82923   0.51806   0.00000  Uiso   1.00
C21    C     0.42335   0.82146   0.64820   0.00000  Uiso   1.00
C22    C     0.45508   0.77649   0.71062   0.00000  Uiso   1.00
C23    C     0.44946   0.80758   0.75450   0.00000  Uiso   1.00
H24    H     0.32853   0.99114   0.54552   0.00000  Uiso   1.00
H25    H     0.41177   0.01335   0.47355   0.00000  Uiso   1.00
H26    H     0.21000   0.99773   0.49789   0.00000  Uiso   1.00
H27    H     0.35371   0.98287   0.66010   0.00000  Uiso   1.00
H28    H     0.51993   0.00560   0.40167   0.00000  Uiso   1.00
H29    H     0.09449   0.97265   0.45300   0.00000  Uiso   1.00
H30    H     0.39753   0.94133   0.79505   0.00000  Uiso   1.00
H31    H     0.45108   0.74163   0.60659   0.00000  Uiso   1.00
H32    H     0.54104   0.75015   0.53798   0.00000  Uiso   1.00
H33    H     0.33927   0.73453   0.56231   0.00000  Uiso   1.00
H34    H     0.48298   0.71967   0.72452   0.00000  Uiso   1.00
H35    H     0.62485   0.79198   0.45395   0.00000  Uiso   1.00
H36    H     0.19940   0.75903   0.50528   0.00000  Uiso   1.00
H37    H     0.50245   0.72770   0.84733   0.00000  Uiso   1.00
O38    O     0.62934   0.90890   0.38155   0.00000  Uiso   1.00
O39    O     0.07117   0.86567   0.44891   0.00000  Uiso   1.00
O40    O     0.46876   0.82457   0.89767   0.00000  Uiso   1.00
N41    N     0.53229   0.95416   0.42340   0.00000  Uiso   1.00
N42    N     0.13452   0.92335   0.47138   0.00000  Uiso   1.00
N43    N     0.41782   0.89406   0.79117   0.00000  Uiso   1.00
N44    N     0.58874   0.83921   0.45154   0.00000  Uiso   1.00
N45    N     0.19098   0.80840   0.49951   0.00000  Uiso   1.00
N46    N     0.47428   0.77911   0.81931   0.00000  Uiso   1.00
C47    C     0.69374   0.36484   0.27719   0.00000  Uiso   1.00
C48    C     0.70129   0.42756   0.23269   0.00000  Uiso   1.00
C49    C     0.67856   0.45646   0.16767   0.00000  Uiso   1.00
C50    C     0.69038   0.51372   0.13538   0.00000  Uiso   1.00
C51    C     0.69706   0.60693   0.06147   0.00000  Uiso   1.00
C52    C     0.76841   0.31053   0.31564   0.00000  Uiso   1.00
C53    C     0.80212   0.24104   0.32036   0.00000  Uiso   1.00
C54    C     0.87045   0.19979   0.35792   0.00000  Uiso   1.00
C55    C     0.98132   0.11130   0.41282   0.00000  Uiso   1.00
C56    C     0.65359   0.39088   0.32319   0.00000  Uiso   1.00
C57    C     0.59076   0.38894   0.33426   0.00000  Uiso   1.00
C58    C     0.56242   0.41532   0.37818   0.00000  Uiso   1.00
C59    C     0.49502   0.45159   0.44479   0.00000  Uiso   1.00
C60    C     0.75513   0.41513   0.33549   0.00000  Uiso   1.00
C61    C     0.73464   0.45487   0.26436   0.00000  Uiso   1.00
C62    C     0.74649   0.51211   0.23217   0.00000  Uiso   1.00
C63    C     0.72379   0.54109   0.16711   0.00000  Uiso   1.00
C64    C     0.80176   0.33785   0.34731   0.00000  Uiso   1.00
C65    C     0.87005   0.29669   0.38487   0.00000  Uiso   1.00
C66    C     0.90386   0.22716   0.38964   0.00000  Uiso   1.00
C67    C     0.68694   0.41821   0.35485   0.00000  Uiso   1.00
C68    C     0.65869   0.44459   0.39876   0.00000  Uiso   1.00
C69    C     0.59584   0.44269   0.40990   0.00000  Uiso   1.00
H70    H     0.66778   0.34356   0.25254   0.00000  Uiso   1.00
H71    H     0.65276   0.43530   0.14317   0.00000  Uiso   1.00
H72    H     0.77630   0.21991   0.29586   0.00000  Uiso   1.00
H73    H     0.56497   0.36779   0.30975   0.00000  Uiso   1.00
H74    H     0.65085   0.54904   0.03589   0.00000  Uiso   1.00
H75    H     0.91132   0.09487   0.35784   0.00000  Uiso   1.00
H76    H     0.46570   0.40670   0.38714   0.00000  Uiso   1.00
H77    H     0.78110   0.43640   0.36015   0.00000  Uiso   1.00
H78    H     0.77230   0.53324   0.25669   0.00000  Uiso   1.00
H79    H     0.89584   0.31785   0.40937   0.00000  Uiso   1.00
H80    H     0.68452   0.46573   0.42326   0.00000  Uiso   1.00
H81    H     0.74787   0.62853   0.12802   0.00000  Uiso   1.00
H82    H     0.00835   0.17436   0.44998   0.00000  Uiso   1.00
H83    H     0.56273   0.48619   0.47927   0.00000  Uiso   1.00
O84    O     0.69155   0.65079   0.01195   0.00000  Uiso   1.00
O85    O     0.03327   0.05494   0.43435   0.00000  Uiso   1.00
O86    O     0.44863   0.46406   0.47279   0.00000  Uiso   1.00
N87    N     0.67487   0.55446   0.07177   0.00000  Uiso   1.00
N88    N     0.91841   0.12985   0.37277   0.00000  Uiso   1.00
N89    N     0.50180   0.42137   0.40017   0.00000  Uiso   1.00
N90    N     0.72708   0.59724   0.12135   0.00000  Uiso   1.00
N91    N     0.97062   0.17262   0.42235   0.00000  Uiso   1.00
N92    N     0.55401   0.46414   0.44975   0.00000  Uiso   1.00
C93    C     0.94953   0.69084   0.52287   0.00000  Uiso   1.00
C94    C     0.91560   0.65952   0.48817   0.00000  Uiso   1.00
C95    C     0.95162   0.60558   0.46808   0.00000  Uiso   1.00
C96    C     0.91095   0.58439   0.43716   0.00000  Uiso   1.00
C97    C     0.86953   0.53096   0.38484   0.00000  Uiso   1.00
C98    C     0.91550   0.77001   0.48355   0.00000  Uiso   1.00
C99    C     0.95143   0.80897   0.45959   0.00000  Uiso   1.00
C100   C     0.91068   0.88079   0.42478   0.00000  Uiso   1.00
C101   C     0.86910   0.99891   0.36533   0.00000  Uiso   1.00
C102   C     0.92411   0.68295   0.58372   0.00000  Uiso   1.00
C103   C     0.96729   0.64873   0.64398   0.00000  Uiso   1.00
C104   C     0.93378   0.64727   0.69351   0.00000  Uiso   1.00
C105   C     0.90557   0.63022   0.78958   0.00000  Uiso   1.00
C106   C     0.81327   0.74913   0.50366   0.00000  Uiso   1.00
C107   C     0.84159   0.69118   0.47774   0.00000  Uiso   1.00
C108   C     0.80086   0.67006   0.44684   0.00000  Uiso   1.00
C109   C     0.83681   0.61610   0.42671   0.00000  Uiso   1.00
C110   C     0.84149   0.80167   0.47312   0.00000  Uiso   1.00
C111   C     0.80067   0.87345   0.43834   0.00000  Uiso   1.00
C112   C     0.83653   0.91251   0.41433   0.00000  Uiso   1.00
C113   C     0.85010   0.71461   0.57329   0.00000  Uiso   1.00
C114   C     0.81652   0.71321   0.62273   0.00000  Uiso   1.00
C115   C     0.85964   0.67899   0.68306   0.00000  Uiso   1.00
H116   H     0.00715   0.66620   0.53098   0.00000  Uiso   1.00
H117   H     0.00890   0.58110   0.47616   0.00000  Uiso   1.00
H118   H     0.00871   0.78446   0.46767   0.00000  Uiso   1.00
H119   H     0.02456   0.62424   0.65203   0.00000  Uiso   1.00
H120   H     0.97819   0.50072   0.41076   0.00000  Uiso   1.00
H121   H     0.97779   0.92952   0.39287   0.00000  Uiso   1.00
H122   H     0.01122   0.59167   0.78164   0.00000  Uiso   1.00
H123   H     0.75564   0.77378   0.49554   0.00000  Uiso   1.00
H124   H     0.74358   0.69457   0.43877   0.00000  Uiso   1.00
H125   H     0.74340   0.89793   0.43028   0.00000  Uiso   1.00
H126   H     0.75925   0.73771   0.61464   0.00000  Uiso   1.00
H127   H     0.76285   0.59282   0.38041   0.00000  Uiso   1.00
H128   H     0.76246   0.02162   0.36253   0.00000  Uiso   1.00
H129   H     0.79588   0.68377   0.75129   0.00000  Uiso   1.00
O130   O     0.86712   0.49275   0.35886   0.00000  Uiso   1.00
O131   O     0.86661   0.05531   0.33541   0.00000  Uiso   1.00
O132   O     0.91046   0.61206   0.84545   0.00000  Uiso   1.00
N133   N     0.92916   0.53326   0.41142   0.00000  Uiso   1.00
N134   N     0.92880   0.93416   0.39469   0.00000  Uiso   1.00
N135   N     0.96004   0.61831   0.75815   0.00000  Uiso   1.00
N136   N     0.81329   0.58282   0.39509   0.00000  Uiso   1.00
N137   N     0.81292   0.98371   0.37836   0.00000  Uiso   1.00
N138   N     0.84417   0.66787   0.74182   0.00000  Uiso   1.00
C139   C     0.59189   0.33889   0.77346   0.00000  Uiso   1.00
C140   C     0.55265   0.31376   0.73616   0.00000  Uiso   1.00
C141   C     0.50913   0.35340   0.67611   0.00000  Uiso   1.00
C142   C     0.47808   0.32084   0.65008   0.00000  Uiso   1.00
C143   C     0.41534   0.29241   0.58716   0.00000  Uiso   1.00
C144   C     0.66998   0.28604   0.79051   0.00000  Uiso   1.00
C145   C     0.72511   0.30237   0.77615   0.00000  Uiso   1.00
C146   C     0.79282   0.24648   0.79588   0.00000  Uiso   1.00
C147   C     0.91224   0.17502   0.81736   0.00000  Uiso   1.00
C148   C     0.56828   0.32895   0.83522   0.00000  Uiso   1.00
C149   C     0.53793   0.38136   0.85847   0.00000  Uiso   1.00
C150   C     0.52004   0.36159   0.91585   0.00000  Uiso   1.00
C151   C     0.48157   0.35676   0.00675   0.00000  Uiso   1.00
C152   C     0.61412   0.21059   0.83404   0.00000  Uiso   1.00
C153   C     0.56472   0.24407   0.76907   0.00000  Uiso   1.00
C154   C     0.53372   0.21145   0.74313   0.00000  Uiso   1.00
C155   C     0.49017   0.25103   0.68305   0.00000  Uiso   1.00
C156   C     0.68205   0.21636   0.82341   0.00000  Uiso   1.00
C157   C     0.74970   0.16043   0.84317   0.00000  Uiso   1.00
C158   C     0.80492   0.17667   0.82884   0.00000  Uiso   1.00
C159   C     0.58036   0.25927   0.86812   0.00000  Uiso   1.00
C160   C     0.56252   0.23941   0.92549   0.00000  Uiso   1.00
C161   C     0.53214   0.29178   0.94881   0.00000  Uiso   1.00
H162   H     0.58250   0.39314   0.74784   0.00000  Uiso   1.00
H163   H     0.49981   0.40732   0.65066   0.00000  Uiso   1.00
H164   H     0.71575   0.35631   0.75069   0.00000  Uiso   1.00
H165   H     0.52860   0.43528   0.83299   0.00000  Uiso   1.00
H166   H     0.41348   0.39230   0.55741   0.00000  Uiso   1.00
H167   H     0.86881   0.28474   0.76835   0.00000  Uiso   1.00
H168   H     0.47416   0.45127   0.94190   0.00000  Uiso   1.00
H169   H     0.62352   0.15634   0.85965   0.00000  Uiso   1.00
H170   H     0.54308   0.15752   0.76860   0.00000  Uiso   1.00
H171   H     0.75902   0.10651   0.86863   0.00000  Uiso   1.00
H172   H     0.57187   0.18548   0.95093   0.00000  Uiso   1.00
H173   H     0.44860   0.18955   0.65314   0.00000  Uiso   1.00
H174   H     0.90393   0.08199   0.86408   0.00000  Uiso   1.00
H175   H     0.50928   0.24852   0.03763   0.00000  Uiso   1.00
O176   O     0.37740   0.29597   0.54335   0.00000  Uiso   1.00
O177   O     0.97478   0.15486   0.82011   0.00000  Uiso   1.00
O178   O     0.45701   0.37334   0.04780   0.00000  Uiso   1.00
N179   N     0.43277   0.34443   0.59244   0.00000  Uiso   1.00
N180   N     0.85848   0.24386   0.78965   0.00000  Uiso   1.00
N181   N     0.48953   0.39955   0.95191   0.00000  Uiso   1.00
N182   N     0.45167   0.23533   0.64395   0.00000  Uiso   1.00
N183   N     0.87738   0.13476   0.84116   0.00000  Uiso   1.00
N184   N     0.50843   0.29045   0.00342   0.00000  Uiso   1.00
C185   C     0.29168   0.13715   0.98353   0.00000  Uiso   1.00
C186   C     0.28104   0.19219   0.91923   0.00000  Uiso   1.00
C187   C     0.33175   0.18937   0.88404   0.00000  Uiso   1.00
C188   C     0.31160   0.24491   0.82636   0.00000  Uiso   1.00
C189   C     0.30547   0.32180   0.72980   0.00000  Uiso   1.00
C190   C     0.23432   0.11332   0.97673   0.00000  Uiso   1.00
C191   C     0.24575   0.04420   0.98988   0.00000  Uiso   1.00
C192   C     0.18627   0.03335   0.98061   0.00000  Uiso   1.00
C193   C     0.10761   0.98779   0.97335   0.00000  Uiso   1.00
C194   C     0.27336   0.17694   0.02734   0.00000  Uiso   1.00
C195   C     0.31761   0.16130   0.08305   0.00000  Uiso   1.00
C196   C     0.29100   0.20400   0.11640   0.00000  Uiso   1.00
C197   C     0.27296   0.25722   0.18772   0.00000  Uiso   1.00
C198   C     0.16572   0.24078   0.94370   0.00000  Uiso   1.00
C199   C     0.21262   0.24848   0.89760   0.00000  Uiso   1.00
C200   C     0.19239   0.30404   0.83996   0.00000  Uiso   1.00
C201   C     0.24306   0.30130   0.80468   0.00000  Uiso   1.00
C202   C     0.16590   0.16961   0.95509   0.00000  Uiso   1.00
C203   C     0.10639   0.15886   0.94581   0.00000  Uiso   1.00
C204   C     0.11773   0.08974   0.95894   0.00000  Uiso   1.00
C205   C     0.20495   0.23324   0.00570   0.00000  Uiso   1.00
C206   C     0.17826   0.27597   0.03898   0.00000  Uiso   1.00
C207   C     0.22246   0.26039   0.09473   0.00000  Uiso   1.00
H208   H     0.34494   0.09332   0.00038   0.00000  Uiso   1.00
H209   H     0.38469   0.14580   0.90079   0.00000  Uiso   1.00
H210   H     0.29870   0.00065   0.00663   0.00000  Uiso   1.00
H211   H     0.37055   0.11773   0.09978   0.00000  Uiso   1.00
H212   H     0.39857   0.22879   0.78083   0.00000  Uiso   1.00
H213   H     0.21726   0.92273   0.00401   0.00000  Uiso   1.00
H214   H     0.36878   0.16963   0.20045   0.00000  Uiso   1.00
H215   H     0.11245   0.28461   0.92685   0.00000  Uiso   1.00
H216   H     0.13944   0.34759   0.82323   0.00000  Uiso   1.00
H217   H     0.05346   0.20244   0.92906   0.00000  Uiso   1.00
H218   H     0.12531   0.31952   0.02222   0.00000  Uiso   1.00
H219   H     0.19952   0.39257   0.71788   0.00000  Uiso   1.00
H220   H     0.01821   0.08651   0.94106   0.00000  Uiso   1.00
H221   H     0.16973   0.33341   0.13749   0.00000  Uiso   1.00
O222   O     0.32099   0.34865   0.68251   0.00000  Uiso   1.00
O223   O     0.08312   0.94711   0.97532   0.00000  Uiso   1.00
O224   O     0.28191   0.27103   0.23304   0.00000  Uiso   1.00
N225   N     0.34803   0.25870   0.78024   0.00000  Uiso   1.00
N226   N     0.17852   0.97255   0.98889   0.00000  Uiso   1.00
N227   N     0.32016   0.20337   0.17255   0.00000  Uiso   1.00
N228   N     0.24092   0.34683   0.74637   0.00000  Uiso   1.00
N229   N     0.07141   0.06068   0.95502   0.00000  Uiso   1.00
N230   N     0.21306   0.29150   0.13868   0.00000  Uiso   1.00
C231   C     0.07193   0.63326   0.07703   0.00000  Uiso   1.00
C232   C     0.08981   0.58110   0.04436   0.00000  Uiso   1.00
C233   C     0.04421   0.58443   0.99575   0.00000  Uiso   1.00
C234   C     0.07063   0.53168   0.97221   0.00000  Uiso   1.00
C235   C     0.08782   0.45894   0.91778   0.00000  Uiso   1.00
C236   C     0.12722   0.66103   0.07048   0.00000  Uiso   1.00
C237   C     0.11307   0.73158   0.04383   0.00000  Uiso   1.00
C238   C     0.17098   0.74612   0.04228   0.00000  Uiso   1.00
C239   C     0.24625   0.79748   0.02843   0.00000  Uiso   1.00
C240   C     0.08649   0.58938   0.14683   0.00000  Uiso   1.00
C241   C     0.03811   0.59968   0.18438   0.00000  Uiso   1.00
C242   C     0.06174   0.55390   0.24712   0.00000  Uiso   1.00
C243   C     0.07378   0.49401   0.35181   0.00000  Uiso   1.00
C244   C     0.19994   0.53364   0.12167   0.00000  Uiso   1.00
C245   C     0.15934   0.52699   0.06861   0.00000  Uiso   1.00
C246   C     0.18584   0.47421   0.04514   0.00000  Uiso   1.00
C247   C     0.14028   0.47747   0.99650   0.00000  Uiso   1.00
C248   C     0.19675   0.60693   0.09472   0.00000  Uiso   1.00
C249   C     0.25469   0.62136   0.09321   0.00000  Uiso   1.00
C250   C     0.24064   0.69191   0.06657   0.00000  Uiso   1.00
C251   C     0.15602   0.53526   0.17107   0.00000  Uiso   1.00
C252   C     0.17974   0.48946   0.23376   0.00000  Uiso   1.00
C253   C     0.13140   0.49969   0.27140   0.00000  Uiso   1.00
H254   H     0.01780   0.67538   0.05815   0.00000  Uiso   1.00
H255   H     0.99041   0.62632   0.97700   0.00000  Uiso   1.00
H256   H     0.05926   0.77344   0.02507   0.00000  Uiso   1.00
H257   H     0.98431   0.64156   0.16560   0.00000  Uiso   1.00
H258   H     0.99071   0.54807   0.89770   0.00000  Uiso   1.00
H259   H     0.13588   0.85829   0.99909   0.00000  Uiso   1.00
H260   H     0.97784   0.58020   0.29542   0.00000  Uiso   1.00
H261   H     0.25407   0.49151   0.14054   0.00000  Uiso   1.00
H262   H     0.23964   0.43235   0.06391   0.00000  Uiso   1.00
H263   H     0.30849   0.57947   0.11198   0.00000  Uiso   1.00
H264   H     0.23355   0.44759   0.25251   0.00000  Uiso   1.00
H265   H     0.19299   0.39064   0.96824   0.00000  Uiso   1.00
H266   H     0.33817   0.70086   0.06963   0.00000  Uiso   1.00
H267   H     0.18013   0.42277   0.36596   0.00000  Uiso   1.00
O268   O     0.07810   0.43377   0.88105   0.00000  Uiso   1.00
O269   O     0.26856   0.84077   0.01409   0.00000  Uiso   1.00
O270   O     0.06121   0.47591   0.40287   0.00000  Uiso   1.00
N271   N     0.04029   0.51913   0.92482   0.00000  Uiso   1.00
N272   N     0.17602   0.80917   0.01961   0.00000  Uiso   1.00
N273   N     0.02827   0.54919   0.29666   0.00000  Uiso   1.00
N274   N     0.14914   0.43442   0.96278   0.00000  Uiso   1.00
N275   N     0.28487   0.72445   0.05757   0.00000  Uiso   1.00
N276   N     0.13712   0.46447   0.33462   0.00000  Uiso   1.00
C277   C     0.64339   0.06602   0.44049   0.00000  Uiso   1.00
C278   C     0.58117   0.08856   0.47111   0.00000  Uiso   1.00
C279   C     0.56031   0.04347   0.51255   0.00000  Uiso   1.00
C280   C     0.50204   0.07444   0.53540   0.00000  Uiso   1.00
C281   C     0.41094   0.09825   0.58572   0.00000  Uiso   1.00
C282   C     0.69079   0.09704   0.45790   0.00000  Uiso   1.00
C283   C     0.76211   0.05909   0.48822   0.00000  Uiso   1.00
C284   C     0.79612   0.09721   0.49994   0.00000  Uiso   1.00
C285   C     0.87523   0.13421   0.52971   0.00000  Uiso   1.00
C286   C     0.61271   0.10511   0.36977   0.00000  Uiso   1.00
C287   C     0.61838   0.07395   0.32598   0.00000  Uiso   1.00
C288   C     0.58667   0.11887   0.26350   0.00000  Uiso   1.00
C289   C     0.54453   0.16839   0.15643   0.00000  Uiso   1.00
C290   C     0.57700   0.20121   0.40740   0.00000  Uiso   1.00
C291   C     0.54511   0.16198   0.45314   0.00000  Uiso   1.00
C292   C     0.48686   0.19303   0.47594   0.00000  Uiso   1.00
C293   C     0.46591   0.14799   0.51740   0.00000  Uiso   1.00
C294   C     0.65474   0.17047   0.43993   0.00000  Uiso   1.00
C295   C     0.68866   0.20865   0.45161   0.00000  Uiso   1.00
C296   C     0.76000   0.17077   0.48194   0.00000  Uiso   1.00
C297   C     0.57665   0.17854   0.35180   0.00000  Uiso   1.00
C298   C     0.54492   0.22351   0.28938   0.00000  Uiso   1.00
C299   C     0.55054   0.19242   0.24550   0.00000  Uiso   1.00
H300   H     0.67147   0.00886   0.45448   0.00000  Uiso   1.00
H301   H     0.58823   0.98665   0.52645   0.00000  Uiso   1.00
H302   H     0.79000   0.00227   0.50211   0.00000  Uiso   1.00
H303   H     0.64629   0.01713   0.33990   0.00000  Uiso   1.00
H304   H     0.48007   0.99440   0.59833   0.00000  Uiso   1.00
H305   H     0.90551   0.02735   0.54700   0.00000  Uiso   1.00
H306   H     0.60247   0.05867   0.20495   0.00000  Uiso   1.00
H307   H     0.54892   0.25837   0.39341   0.00000  Uiso   1.00
H308   H     0.45896   0.24985   0.46202   0.00000  Uiso   1.00
H309   H     0.66073   0.26547   0.43769   0.00000  Uiso   1.00
H310   H     0.51702   0.28033   0.27548   0.00000  Uiso   1.00
H311   H     0.37515   0.20802   0.54605   0.00000  Uiso   1.00
H312   H     0.80060   0.24097   0.49472   0.00000  Uiso   1.00
H313   H     0.49755   0.27230   0.15267   0.00000  Uiso   1.00
O314   O     0.37066   0.09110   0.61845   0.00000  Uiso   1.00
O315   O     0.92883   0.13433   0.55109   0.00000  Uiso   1.00
O316   O     0.53124   0.17543   0.10233   0.00000  Uiso   1.00
N317   N     0.46771   0.04584   0.57660   0.00000  Uiso   1.00
N318   N     0.86548   0.07665   0.52862   0.00000  Uiso   1.00
N319   N     0.58218   0.10594   0.20883   0.00000  Uiso   1.00
N320   N     0.41126   0.16079   0.54846   0.00000  Uiso   1.00
N321   N     0.80902   0.19160   0.50049   0.00000  Uiso   1.00
N322   N     0.52572   0.22089   0.18069   0.00000  Uiso   1.00
C323   C     0.30626   0.63516   0.72281   0.00000  Uiso   1.00
C324   C     0.29871   0.57244   0.76731   0.00000  Uiso   1.00
C325   C     0.32144   0.54354   0.83233   0.00000  Uiso   1.00
C326   C     0.30962   0.48628   0.86462   0.00000  Uiso   1.00
C327   C     0.30294   0.39307   0.93853   0.00000  Uiso   1.00
C328   C     0.23159   0.68947   0.68436   0.00000  Uiso   1.00
C329   C     0.19788   0.75896   0.67964   0.00000  Uiso   1.00
C330   C     0.12955   0.80021   0.64208   0.00000  Uiso   1.00
C331   C     0.01868   0.88870   0.58718   0.00000  Uiso   1.00
C332   C     0.34641   0.60912   0.67681   0.00000  Uiso   1.00
C333   C     0.40924   0.61106   0.66574   0.00000  Uiso   1.00
C334   C     0.43758   0.58468   0.62182   0.00000  Uiso   1.00
C335   C     0.50498   0.54841   0.55521   0.00000  Uiso   1.00
C336   C     0.24487   0.58487   0.66451   0.00000  Uiso   1.00
C337   C     0.26536   0.54513   0.73564   0.00000  Uiso   1.00
C338   C     0.25351   0.48789   0.76783   0.00000  Uiso   1.00
C339   C     0.27621   0.45891   0.83289   0.00000  Uiso   1.00
C340   C     0.19824   0.66215   0.65269   0.00000  Uiso   1.00
C341   C     0.12995   0.70331   0.61513   0.00000  Uiso   1.00
C342   C     0.09614   0.77284   0.61036   0.00000  Uiso   1.00
C343   C     0.31306   0.58179   0.64515   0.00000  Uiso   1.00
C344   C     0.34131   0.55541   0.60124   0.00000  Uiso   1.00
C345   C     0.40416   0.55731   0.59010   0.00000  Uiso   1.00
H346   H     0.33222   0.65644   0.74746   0.00000  Uiso   1.00
H347   H     0.34724   0.56470   0.85683   0.00000  Uiso   1.00
H348   H     0.22370   0.78009   0.70414   0.00000  Uiso   1.00
H349   H     0.43503   0.63221   0.69025   0.00000  Uiso   1.00
H350   H     0.34915   0.45096   0.96411   0.00000  Uiso   1.00
H351   H     0.08868   0.90513   0.64216   0.00000  Uiso   1.00
H352   H     0.53430   0.59330   0.61286   0.00000  Uiso   1.00
H353   H     0.21890   0.56360   0.63985   0.00000  Uiso   1.00
H354   H     0.22770   0.46676   0.74331   0.00000  Uiso   1.00
H355   H     0.10416   0.68215   0.59063   0.00000  Uiso   1.00
H356   H     0.31548   0.53427   0.57674   0.00000  Uiso   1.00
H357   H     0.25213   0.37147   0.87198   0.00000  Uiso   1.00
H358   H     0.99165   0.82564   0.55002   0.00000  Uiso   1.00
H359   H     0.43727   0.51381   0.52073   0.00000  Uiso   1.00
O360   O     0.30845   0.34921   0.98805   0.00000  Uiso   1.00
O361   O     0.96673   0.94506   0.56565   0.00000  Uiso   1.00
O362   O     0.55137   0.53594   0.52721   0.00000  Uiso   1.00
N363   N     0.32513   0.44554   0.92823   0.00000  Uiso   1.00
N364   N     0.08159   0.87015   0.62723   0.00000  Uiso   1.00
N365   N     0.49820   0.57863   0.59983   0.00000  Uiso   1.00
N366   N     0.27292   0.40276   0.87865   0.00000  Uiso   1.00
N367   N     0.02938   0.82738   0.57765   0.00000  Uiso   1.00
N368   N     0.44599   0.53586   0.55025   0.00000  Uiso   1.00
C369   C     0.05047   0.30916   0.47713   0.00000  Uiso   1.00
C370   C     0.08440   0.34048   0.51183   0.00000  Uiso   1.00
C371   C     0.04838   0.39442   0.53192   0.00000  Uiso   1.00
C372   C     0.08905   0.41561   0.56284   0.00000  Uiso   1.00
C373   C     0.13047   0.46904   0.61516   0.00000  Uiso   1.00
C374   C     0.08450   0.22999   0.51645   0.00000  Uiso   1.00
C375   C     0.04857   0.19103   0.54041   0.00000  Uiso   1.00
C376   C     0.08932   0.11921   0.57522   0.00000  Uiso   1.00
C377   C     0.13090   0.00109   0.63467   0.00000  Uiso   1.00
C378   C     0.07589   0.31705   0.41628   0.00000  Uiso   1.00
C379   C     0.03271   0.35127   0.35602   0.00000  Uiso   1.00
C380   C     0.06622   0.35273   0.30649   0.00000  Uiso   1.00
C381   C     0.09443   0.36978   0.21042   0.00000  Uiso   1.00
C382   C     0.18673   0.25087   0.49634   0.00000  Uiso   1.00
C383   C     0.15841   0.30882   0.52226   0.00000  Uiso   1.00
C384   C     0.19914   0.32994   0.55316   0.00000  Uiso   1.00
C385   C     0.16319   0.38390   0.57329   0.00000  Uiso   1.00
C386   C     0.15851   0.19833   0.52688   0.00000  Uiso   1.00
C387   C     0.19933   0.12655   0.56166   0.00000  Uiso   1.00
C388   C     0.16347   0.08749   0.58567   0.00000  Uiso   1.00
C389   C     0.14990   0.28539   0.42671   0.00000  Uiso   1.00
C390   C     0.18348   0.28679   0.37727   0.00000  Uiso   1.00
C391   C     0.14036   0.32101   0.31694   0.00000  Uiso   1.00
H392   H     0.99285   0.33380   0.46902   0.00000  Uiso   1.00
H393   H     0.99110   0.41890   0.52384   0.00000  Uiso   1.00
H394   H     0.99129   0.21554   0.53233   0.00000  Uiso   1.00
H395   H     0.97544   0.37576   0.34797   0.00000  Uiso   1.00
H396   H     0.02181   0.49928   0.58924   0.00000  Uiso   1.00
H397   H     0.02221   0.07048   0.60713   0.00000  Uiso   1.00
H398   H     0.98878   0.40833   0.21836   0.00000  Uiso   1.00
H399   H     0.24436   0.22622   0.50446   0.00000  Uiso   1.00
H400   H     0.25642   0.30543   0.56123   0.00000  Uiso   1.00
H401   H     0.25660   0.10207   0.56972   0.00000  Uiso   1.00
H402   H     0.24075   0.26229   0.38536   0.00000  Uiso   1.00
H403   H     0.23715   0.40718   0.61959   0.00000  Uiso   1.00
H404   H     0.23754   0.97838   0.63747   0.00000  Uiso   1.00
H405   H     0.20412   0.31623   0.24871   0.00000  Uiso   1.00
O406   O     0.13288   0.50725   0.64114   0.00000  Uiso   1.00
O407   O     0.13339   0.94469   0.66459   0.00000  Uiso   1.00
O408   O     0.08954   0.38794   0.15455   0.00000  Uiso   1.00
N409   N     0.07084   0.46674   0.58858   0.00000  Uiso   1.00
N410   N     0.07120   0.06584   0.60531   0.00000  Uiso   1.00
N411   N     0.03996   0.38169   0.24185   0.00000  Uiso   1.00
N412   N     0.18671   0.41718   0.60491   0.00000  Uiso   1.00
N413   N     0.18708   0.01629   0.62164   0.00000  Uiso   1.00
N414   N     0.15583   0.33213   0.25818   0.00000  Uiso   1.00
C415   C     0.40811   0.66111   0.22654   0.00000  Uiso   1.00
C416   C     0.44735   0.68624   0.26384   0.00000  Uiso   1.00
C417   C     0.49087   0.64660   0.32389   0.00000  Uiso   1.00
C418   C     0.52192   0.67916   0.34992   0.00000  Uiso   1.00
C419   C     0.58466   0.70759   0.41284   0.00000  Uiso   1.00
C420   C     0.33002   0.71396   0.20949   0.00000  Uiso   1.00
C421   C     0.27489   0.69763   0.22385   0.00000  Uiso   1.00
C422   C     0.20718   0.75352   0.20412   0.00000  Uiso   1.00
C423   C     0.08776   0.82498   0.18264   0.00000  Uiso   1.00
C424   C     0.43172   0.67105   0.16478   0.00000  Uiso   1.00
C425   C     0.46207   0.61864   0.14153   0.00000  Uiso   1.00
C426   C     0.47996   0.63841   0.08415   0.00000  Uiso   1.00
C427   C     0.51843   0.64324   0.99325   0.00000  Uiso   1.00
C428   C     0.38588   0.78941   0.16596   0.00000  Uiso   1.00
C429   C     0.43528   0.75593   0.23093   0.00000  Uiso   1.00
C430   C     0.46628   0.78855   0.25687   0.00000  Uiso   1.00
C431   C     0.50983   0.74897   0.31695   0.00000  Uiso   1.00
C432   C     0.31795   0.78364   0.17659   0.00000  Uiso   1.00
C433   C     0.25030   0.83957   0.15683   0.00000  Uiso   1.00
C434   C     0.19508   0.82333   0.17116   0.00000  Uiso   1.00
C435   C     0.41964   0.74073   0.13188   0.00000  Uiso   1.00
C436   C     0.43748   0.76059   0.07451   0.00000  Uiso   1.00
C437   C     0.46786   0.70822   0.05119   0.00000  Uiso   1.00
H438   H     0.41750   0.60686   0.25216   0.00000  Uiso   1.00
H439   H     0.50019   0.59268   0.34934   0.00000  Uiso   1.00
H440   H     0.28425   0.64369   0.24931   0.00000  Uiso   1.00
H441   H     0.47140   0.56472   0.16701   0.00000  Uiso   1.00
H442   H     0.58652   0.60770   0.44259   0.00000  Uiso   1.00
H443   H     0.13119   0.71526   0.23165   0.00000  Uiso   1.00
H444   H     0.52584   0.54873   0.05810   0.00000  Uiso   1.00
H445   H     0.37648   0.84366   0.14035   0.00000  Uiso   1.00
H446   H     0.45692   0.84248   0.23140   0.00000  Uiso   1.00
H447   H     0.24098   0.89349   0.13137   0.00000  Uiso   1.00
H448   H     0.42813   0.81452   0.04907   0.00000  Uiso   1.00
H449   H     0.55140   0.81045   0.34686   0.00000  Uiso   1.00
H450   H     0.09607   0.91801   0.13592   0.00000  Uiso   1.00
H451   H     0.49072   0.75148   0.96237   0.00000  Uiso   1.00
O452   O     0.62260   0.70403   0.45665   0.00000  Uiso   1.00
O453   O     0.02522   0.84514   0.17989   0.00000  Uiso   1.00
O454   O     0.54299   0.62666   0.95220   0.00000  Uiso   1.00
N455   N     0.56723   0.65557   0.40756   0.00000  Uiso   1.00
N456   N     0.14152   0.75614   0.21035   0.00000  Uiso   1.00
N457   N     0.51047   0.60045   0.04809   0.00000  Uiso   1.00
N458   N     0.54833   0.76467   0.35605   0.00000  Uiso   1.00
N459   N     0.12262   0.86524   0.15884   0.00000  Uiso   1.00
N460   N     0.49157   0.70955   0.99658   0.00000  Uiso   1.00
C461   C     0.70832   0.86285   0.01647   0.00000  Uiso   1.00
C462   C     0.71896   0.80781   0.08077   0.00000  Uiso   1.00
C463   C     0.66825   0.81063   0.11596   0.00000  Uiso   1.00
C464   C     0.68840   0.75509   0.17364   0.00000  Uiso   1.00
C465   C     0.69453   0.67820   0.27020   0.00000  Uiso   1.00
C466   C     0.76568   0.88668   0.02327   0.00000  Uiso   1.00
C467   C     0.75425   0.95580   0.01012   0.00000  Uiso   1.00
C468   C     0.81373   0.96665   0.01939   0.00000  Uiso   1.00
C469   C     0.89239   0.01221   0.02665   0.00000  Uiso   1.00
C470   C     0.72664   0.82306   0.97266   0.00000  Uiso   1.00
C471   C     0.68239   0.83870   0.91695   0.00000  Uiso   1.00
C472   C     0.70900   0.79600   0.88360   0.00000  Uiso   1.00
C473   C     0.72704   0.74278   0.81228   0.00000  Uiso   1.00
C474   C     0.83428   0.75922   0.05630   0.00000  Uiso   1.00
C475   C     0.78738   0.75152   0.10240   0.00000  Uiso   1.00
C476   C     0.80761   0.69596   0.16004   0.00000  Uiso   1.00
C477   C     0.75694   0.69870   0.19532   0.00000  Uiso   1.00
C478   C     0.83410   0.83039   0.04491   0.00000  Uiso   1.00
C479   C     0.89361   0.84114   0.05419   0.00000  Uiso   1.00
C480   C     0.88227   0.91026   0.04106   0.00000  Uiso   1.00
C481   C     0.79505   0.76676   0.99430   0.00000  Uiso   1.00
C482   C     0.82174   0.72403   0.96102   0.00000  Uiso   1.00
C483   C     0.77754   0.73961   0.90527   0.00000  Uiso   1.00
H484   H     0.65506   0.90668   0.99962   0.00000  Uiso   1.00
H485   H     0.61531   0.85420   0.09921   0.00000  Uiso   1.00
H486   H     0.70130   0.99935   0.99337   0.00000  Uiso   1.00
H487   H     0.62945   0.88227   0.90022   0.00000  Uiso   1.00
H488   H     0.60143   0.77121   0.21917   0.00000  Uiso   1.00
H489   H     0.78274   0.07727   0.99599   0.00000  Uiso   1.00
H490   H     0.63122   0.83037   0.79955   0.00000  Uiso   1.00
H491   H     0.88755   0.71539   0.07315   0.00000  Uiso   1.00
H492   H     0.86056   0.65241   0.17677   0.00000  Uiso   1.00
H493   H     0.94654   0.79756   0.07094   0.00000  Uiso   1.00
H494   H     0.87469   0.68048   0.97778   0.00000  Uiso   1.00
H495   H     0.80048   0.60743   0.28212   0.00000  Uiso   1.00
H496   H     0.98179   0.91349   0.05894   0.00000  Uiso   1.00
H497   H     0.83027   0.66659   0.86251   0.00000  Uiso   1.00
O498   O     0.67901   0.65135   0.31749   0.00000  Uiso   1.00
O499   O     0.91688   0.05289   0.02468   0.00000  Uiso   1.00
O500   O     0.71809   0.72897   0.76696   0.00000  Uiso   1.00
N501   N     0.65197   0.74130   0.21976   0.00000  Uiso   1.00
N502   N     0.82148   0.02745   0.01111   0.00000  Uiso   1.00
N503   N     0.67984   0.79663   0.82745   0.00000  Uiso   1.00
N504   N     0.75908   0.65317   0.25363   0.00000  Uiso   1.00
N505   N     0.92859   0.93932   0.04498   0.00000  Uiso   1.00
N506   N     0.78694   0.70850   0.86132   0.00000  Uiso   1.00
C507   C     0.92807   0.36674   0.92297   0.00000  Uiso   1.00
C508   C     0.91019   0.41890   0.95564   0.00000  Uiso   1.00
C509   C     0.95579   0.41557   0.00425   0.00000  Uiso   1.00
C510   C     0.92937   0.46832   0.02779   0.00000  Uiso   1.00
C511   C     0.91218   0.54106   0.08222   0.00000  Uiso   1.00
C512   C     0.87278   0.33897   0.92952   0.00000  Uiso   1.00
C513   C     0.88693   0.26842   0.95617   0.00000  Uiso   1.00
C514   C     0.82902   0.25388   0.95772   0.00000  Uiso   1.00
C515   C     0.75375   0.20252   0.97157   0.00000  Uiso   1.00
C516   C     0.91351   0.41062   0.85317   0.00000  Uiso   1.00
C517   C     0.96189   0.40032   0.81562   0.00000  Uiso   1.00
C518   C     0.93826   0.44610   0.75288   0.00000  Uiso   1.00
C519   C     0.92622   0.50599   0.64819   0.00000  Uiso   1.00
C520   C     0.80006   0.46636   0.87833   0.00000  Uiso   1.00
C521   C     0.84066   0.47301   0.93139   0.00000  Uiso   1.00
C522   C     0.81416   0.52579   0.95486   0.00000  Uiso   1.00
C523   C     0.85972   0.52253   0.00350   0.00000  Uiso   1.00
C524   C     0.80325   0.39307   0.90528   0.00000  Uiso   1.00
C525   C     0.74531   0.37864   0.90679   0.00000  Uiso   1.00
C526   C     0.75936   0.30809   0.93343   0.00000  Uiso   1.00
C527   C     0.84398   0.46474   0.82893   0.00000  Uiso   1.00
C528   C     0.82026   0.51054   0.76624   0.00000  Uiso   1.00
C529   C     0.86860   0.50031   0.72860   0.00000  Uiso   1.00
H530   H     0.98220   0.32462   0.94185   0.00000  Uiso   1.00
H531   H     0.00959   0.37368   0.02300   0.00000  Uiso   1.00
H532   H     0.94074   0.22656   0.97493   0.00000  Uiso   1.00
H533   H     0.01569   0.35844   0.83440   0.00000  Uiso   1.00
H534   H     0.00929   0.45193   0.10230   0.00000  Uiso   1.00
H535   H     0.86412   0.14171   0.00091   0.00000  Uiso   1.00
H536   H     0.02216   0.41980   0.70458   0.00000  Uiso   1.00
H537   H     0.74593   0.50849   0.85946   0.00000  Uiso   1.00
H538   H     0.76036   0.56765   0.93609   0.00000  Uiso   1.00
H539   H     0.69151   0.42053   0.88802   0.00000  Uiso   1.00
H540   H     0.76645   0.55241   0.74749   0.00000  Uiso   1.00
H541   H     0.80701   0.60936   0.03176   0.00000  Uiso   1.00
H542   H     0.66183   0.29914   0.93037   0.00000  Uiso   1.00
H543   H     0.81987   0.57723   0.63404   0.00000  Uiso   1.00
O544   O     0.92190   0.56623   0.11895   0.00000  Uiso   1.00
O545   O     0.73144   0.15923   0.98591   0.00000  Uiso   1.00
O546   O     0.93879   0.52409   0.59713   0.00000  Uiso   1.00
N547   N     0.95971   0.48087   0.07518   0.00000  Uiso   1.00
N548   N     0.82398   0.19083   0.98039   0.00000  Uiso   1.00
N549   N     0.97173   0.45081   0.70334   0.00000  Uiso   1.00
N550   N     0.85086   0.56558   0.03722   0.00000  Uiso   1.00
N551   N     0.71513   0.27555   0.94243   0.00000  Uiso   1.00
N552   N     0.86288   0.53553   0.66538   0.00000  Uiso   1.00
