data_job_05817
_audit_creation_date              2018-12-19
_audit_creation_method            'Materials Studio'
_symmetry_space_group_name_H-M    'P1'
_symmetry_Int_Tables_number       1
_symmetry_cell_setting            triclinic
loop_
_symmetry_equiv_pos_as_xyz
  x,y,z
_cell_length_a                    47.7571
_cell_length_b                    9.2122
_cell_length_c                    14.6895
_cell_angle_alpha                 90.0000
_cell_angle_beta                  75.8196
_cell_angle_gamma                 90.0000
loop_
_atom_site_label
_atom_site_type_symbol
_atom_site_fract_x
_atom_site_fract_y
_atom_site_fract_z
_atom_site_U_iso_or_equiv
_atom_site_adp_type
_atom_site_occupancy
C1     C     0.37742   0.01534   0.54488   0.00000  Uiso   1.00
C2     C     0.35051   0.92102   0.57545   0.00000  Uiso   1.00
C3     C     0.32835   0.91072   0.52980   0.00000  Uiso   1.00
C4     C     0.30561   0.81840   0.56892   0.00000  Uiso   1.00
C5     C     0.26390   0.68404   0.60396   0.00000  Uiso   1.00
C6     C     0.37796   0.11237   0.62854   0.00000  Uiso   1.00
C7     C     0.37889   0.26295   0.62752   0.00000  Uiso   1.00
C8     C     0.37926   0.33171   0.71133   0.00000  Uiso   1.00
C9     C     0.38019   0.49441   0.82878   0.00000  Uiso   1.00
C10    C     0.40310   0.91283   0.53390   0.00000  Uiso   1.00
C11    C     0.42518   0.89567   0.45332   0.00000  Uiso   1.00
C12    C     0.44671   0.79645   0.45746   0.00000  Uiso   1.00
C13    C     0.48668   0.64935   0.42797   0.00000  Uiso   1.00
C14    C     0.37642   0.86970   0.69553   0.00000  Uiso   1.00
C15    C     0.34997   0.84192   0.65727   0.00000  Uiso   1.00
C16    C     0.32725   0.74958   0.69647   0.00000  Uiso   1.00
C17    C     0.30506   0.73915   0.65088   0.00000  Uiso   1.00
C18    C     0.37742   0.03327   0.71036   0.00000  Uiso   1.00
C19    C     0.37779   0.10182   0.79419   0.00000  Uiso   1.00
C20    C     0.37872   0.25246   0.79330   0.00000  Uiso   1.00
C21    C     0.40256   0.83372   0.61572   0.00000  Uiso   1.00
C22    C     0.42407   0.73452   0.61999   0.00000  Uiso   1.00
C23    C     0.44617   0.71720   0.53943   0.00000  Uiso   1.00
H24    H     0.37784   0.07693   0.48118   0.00000  Uiso   1.00
H25    H     0.32878   0.97197   0.46648   0.00000  Uiso   1.00
H26    H     0.37931   0.32414   0.56419   0.00000  Uiso   1.00
H27    H     0.42559   0.95690   0.39002   0.00000  Uiso   1.00
H28    H     0.27414   0.82075   0.48629   0.00000  Uiso   1.00
H29    H     0.38071   0.56332   0.69230   0.00000  Uiso   1.00
H30    H     0.47828   0.78894   0.32502   0.00000  Uiso   1.00
H31    H     0.37600   0.80811   0.75923   0.00000  Uiso   1.00
H32    H     0.32684   0.68838   0.75979   0.00000  Uiso   1.00
H33    H     0.37737   0.04056   0.85749   0.00000  Uiso   1.00
H34    H     0.42365   0.67333   0.68332   0.00000  Uiso   1.00
H35    H     0.27256   0.59058   0.72435   0.00000  Uiso   1.00
H36    H     0.37913   0.33316   0.93036   0.00000  Uiso   1.00
H37    H     0.47671   0.55877   0.56308   0.00000  Uiso   1.00
O38    O     0.24104   0.63179   0.60069   0.00000  Uiso   1.00
O39    O     0.38086   0.60602   0.87095   0.00000  Uiso   1.00
O40    O     0.50887   0.59004   0.38909   0.00000  Uiso   1.00
N41    N     0.28052   0.78299   0.54223   0.00000  Uiso   1.00
N42    N     0.38015   0.47725   0.73484   0.00000  Uiso   1.00
N43    N     0.47138   0.75329   0.39147   0.00000  Uiso   1.00
N44    N     0.27967   0.65914   0.67033   0.00000  Uiso   1.00
N45    N     0.37930   0.35340   0.86294   0.00000  Uiso   1.00
N46    N     0.47053   0.62944   0.51957   0.00000  Uiso   1.00
C47    C     0.87742   0.51534   0.54488   0.00000  Uiso   1.00
C48    C     0.85051   0.42102   0.57545   0.00000  Uiso   1.00
C49    C     0.82835   0.41072   0.52980   0.00000  Uiso   1.00
C50    C     0.80561   0.31840   0.56892   0.00000  Uiso   1.00
C51    C     0.76390   0.18404   0.60396   0.00000  Uiso   1.00
C52    C     0.87796   0.61237   0.62854   0.00000  Uiso   1.00
C53    C     0.87889   0.76295   0.62752   0.00000  Uiso   1.00
C54    C     0.87926   0.83171   0.71133   0.00000  Uiso   1.00
C55    C     0.88019   0.99441   0.82878   0.00000  Uiso   1.00
C56    C     0.90310   0.41283   0.53390   0.00000  Uiso   1.00
C57    C     0.92518   0.39567   0.45332   0.00000  Uiso   1.00
C58    C     0.94671   0.29645   0.45746   0.00000  Uiso   1.00
C59    C     0.98668   0.14935   0.42797   0.00000  Uiso   1.00
C60    C     0.87642   0.36970   0.69553   0.00000  Uiso   1.00
C61    C     0.84997   0.34192   0.65727   0.00000  Uiso   1.00
C62    C     0.82725   0.24958   0.69647   0.00000  Uiso   1.00
C63    C     0.80506   0.23915   0.65088   0.00000  Uiso   1.00
C64    C     0.87742   0.53327   0.71036   0.00000  Uiso   1.00
C65    C     0.87779   0.60182   0.79419   0.00000  Uiso   1.00
C66    C     0.87872   0.75246   0.79330   0.00000  Uiso   1.00
C67    C     0.90256   0.33372   0.61572   0.00000  Uiso   1.00
C68    C     0.92407   0.23452   0.61999   0.00000  Uiso   1.00
C69    C     0.94617   0.21720   0.53943   0.00000  Uiso   1.00
H70    H     0.87784   0.57693   0.48118   0.00000  Uiso   1.00
H71    H     0.82878   0.47197   0.46648   0.00000  Uiso   1.00
H72    H     0.87931   0.82414   0.56419   0.00000  Uiso   1.00
H73    H     0.92559   0.45690   0.39002   0.00000  Uiso   1.00
H74    H     0.77414   0.32075   0.48629   0.00000  Uiso   1.00
H75    H     0.88071   0.06332   0.69230   0.00000  Uiso   1.00
H76    H     0.97828   0.28894   0.32502   0.00000  Uiso   1.00
H77    H     0.87600   0.30811   0.75923   0.00000  Uiso   1.00
H78    H     0.82684   0.18838   0.75979   0.00000  Uiso   1.00
H79    H     0.87737   0.54056   0.85749   0.00000  Uiso   1.00
H80    H     0.92365   0.17333   0.68332   0.00000  Uiso   1.00
H81    H     0.77256   0.09058   0.72435   0.00000  Uiso   1.00
H82    H     0.87913   0.83316   0.93036   0.00000  Uiso   1.00
H83    H     0.97671   0.05877   0.56308   0.00000  Uiso   1.00
O84    O     0.74104   0.13179   0.60069   0.00000  Uiso   1.00
O85    O     0.88086   0.10602   0.87095   0.00000  Uiso   1.00
O86    O     0.00887   0.09004   0.38909   0.00000  Uiso   1.00
N87    N     0.78052   0.28299   0.54223   0.00000  Uiso   1.00
N88    N     0.88015   0.97725   0.73484   0.00000  Uiso   1.00
N89    N     0.97138   0.25329   0.39147   0.00000  Uiso   1.00
N90    N     0.77967   0.15914   0.67033   0.00000  Uiso   1.00
N91    N     0.87930   0.85340   0.86294   0.00000  Uiso   1.00
N92    N     0.97053   0.12944   0.51957   0.00000  Uiso   1.00
C93    C     0.62258   0.01534   0.95512   0.00000  Uiso   1.00
C94    C     0.64949   0.92102   0.92455   0.00000  Uiso   1.00
C95    C     0.67165   0.91072   0.97020   0.00000  Uiso   1.00
C96    C     0.69439   0.81840   0.93108   0.00000  Uiso   1.00
C97    C     0.73610   0.68404   0.89604   0.00000  Uiso   1.00
C98    C     0.62204   0.11237   0.87146   0.00000  Uiso   1.00
C99    C     0.62111   0.26295   0.87248   0.00000  Uiso   1.00
C100   C     0.62074   0.33171   0.78867   0.00000  Uiso   1.00
C101   C     0.61981   0.49441   0.67122   0.00000  Uiso   1.00
C102   C     0.59690   0.91283   0.96610   0.00000  Uiso   1.00
C103   C     0.57482   0.89567   0.04668   0.00000  Uiso   1.00
C104   C     0.55329   0.79645   0.04254   0.00000  Uiso   1.00
C105   C     0.51332   0.64935   0.07203   0.00000  Uiso   1.00
C106   C     0.62358   0.86970   0.80447   0.00000  Uiso   1.00
C107   C     0.65003   0.84192   0.84273   0.00000  Uiso   1.00
C108   C     0.67275   0.74958   0.80353   0.00000  Uiso   1.00
C109   C     0.69494   0.73915   0.84912   0.00000  Uiso   1.00
C110   C     0.62258   0.03327   0.78964   0.00000  Uiso   1.00
C111   C     0.62221   0.10182   0.70581   0.00000  Uiso   1.00
C112   C     0.62128   0.25246   0.70670   0.00000  Uiso   1.00
C113   C     0.59744   0.83372   0.88428   0.00000  Uiso   1.00
C114   C     0.57593   0.73452   0.88001   0.00000  Uiso   1.00
C115   C     0.55383   0.71720   0.96057   0.00000  Uiso   1.00
H116   H     0.62216   0.07693   0.01882   0.00000  Uiso   1.00
H117   H     0.67122   0.97197   0.03352   0.00000  Uiso   1.00
H118   H     0.62069   0.32414   0.93581   0.00000  Uiso   1.00
H119   H     0.57441   0.95690   0.10998   0.00000  Uiso   1.00
H120   H     0.72586   0.82075   0.01371   0.00000  Uiso   1.00
H121   H     0.61929   0.56332   0.80770   0.00000  Uiso   1.00
H122   H     0.52172   0.78894   0.17498   0.00000  Uiso   1.00
H123   H     0.62400   0.80811   0.74077   0.00000  Uiso   1.00
H124   H     0.67316   0.68838   0.74021   0.00000  Uiso   1.00
H125   H     0.62263   0.04056   0.64251   0.00000  Uiso   1.00
H126   H     0.57635   0.67333   0.81668   0.00000  Uiso   1.00
H127   H     0.72744   0.59058   0.77565   0.00000  Uiso   1.00
H128   H     0.62087   0.33316   0.56964   0.00000  Uiso   1.00
H129   H     0.52329   0.55877   0.93692   0.00000  Uiso   1.00
O130   O     0.75896   0.63179   0.89931   0.00000  Uiso   1.00
O131   O     0.61914   0.60602   0.62905   0.00000  Uiso   1.00
O132   O     0.49113   0.59004   0.11091   0.00000  Uiso   1.00
N133   N     0.71948   0.78299   0.95777   0.00000  Uiso   1.00
N134   N     0.61985   0.47725   0.76516   0.00000  Uiso   1.00
N135   N     0.52862   0.75329   0.10853   0.00000  Uiso   1.00
N136   N     0.72033   0.65914   0.82967   0.00000  Uiso   1.00
N137   N     0.62070   0.35340   0.63706   0.00000  Uiso   1.00
N138   N     0.52947   0.62944   0.98043   0.00000  Uiso   1.00
C139   C     0.12258   0.51534   0.95512   0.00000  Uiso   1.00
C140   C     0.14949   0.42102   0.92455   0.00000  Uiso   1.00
C141   C     0.17165   0.41072   0.97020   0.00000  Uiso   1.00
C142   C     0.19439   0.31840   0.93108   0.00000  Uiso   1.00
C143   C     0.23610   0.18404   0.89604   0.00000  Uiso   1.00
C144   C     0.12204   0.61237   0.87146   0.00000  Uiso   1.00
C145   C     0.12111   0.76295   0.87248   0.00000  Uiso   1.00
C146   C     0.12074   0.83171   0.78867   0.00000  Uiso   1.00
C147   C     0.11981   0.99441   0.67122   0.00000  Uiso   1.00
C148   C     0.09690   0.41283   0.96610   0.00000  Uiso   1.00
C149   C     0.07482   0.39567   0.04668   0.00000  Uiso   1.00
C150   C     0.05329   0.29645   0.04254   0.00000  Uiso   1.00
C151   C     0.01332   0.14935   0.07203   0.00000  Uiso   1.00
C152   C     0.12358   0.36970   0.80447   0.00000  Uiso   1.00
C153   C     0.15003   0.34192   0.84273   0.00000  Uiso   1.00
C154   C     0.17275   0.24958   0.80353   0.00000  Uiso   1.00
C155   C     0.19494   0.23915   0.84912   0.00000  Uiso   1.00
C156   C     0.12258   0.53327   0.78964   0.00000  Uiso   1.00
C157   C     0.12221   0.60182   0.70581   0.00000  Uiso   1.00
C158   C     0.12128   0.75246   0.70670   0.00000  Uiso   1.00
C159   C     0.09744   0.33372   0.88428   0.00000  Uiso   1.00
C160   C     0.07593   0.23452   0.88001   0.00000  Uiso   1.00
C161   C     0.05383   0.21720   0.96057   0.00000  Uiso   1.00
H162   H     0.12216   0.57693   0.01882   0.00000  Uiso   1.00
H163   H     0.17122   0.47197   0.03352   0.00000  Uiso   1.00
H164   H     0.12069   0.82414   0.93581   0.00000  Uiso   1.00
H165   H     0.07441   0.45690   0.10998   0.00000  Uiso   1.00
H166   H     0.22586   0.32075   0.01371   0.00000  Uiso   1.00
H167   H     0.11929   0.06332   0.80770   0.00000  Uiso   1.00
H168   H     0.02172   0.28894   0.17498   0.00000  Uiso   1.00
H169   H     0.12400   0.30811   0.74077   0.00000  Uiso   1.00
H170   H     0.17316   0.18838   0.74021   0.00000  Uiso   1.00
H171   H     0.12263   0.54056   0.64251   0.00000  Uiso   1.00
H172   H     0.07635   0.17333   0.81668   0.00000  Uiso   1.00
H173   H     0.22744   0.09058   0.77565   0.00000  Uiso   1.00
H174   H     0.12087   0.83316   0.56964   0.00000  Uiso   1.00
H175   H     0.02329   0.05877   0.93692   0.00000  Uiso   1.00
O176   O     0.25896   0.13179   0.89931   0.00000  Uiso   1.00
O177   O     0.11914   0.10602   0.62905   0.00000  Uiso   1.00
O178   O     0.99113   0.09004   0.11091   0.00000  Uiso   1.00
N179   N     0.21948   0.28299   0.95777   0.00000  Uiso   1.00
N180   N     0.11985   0.97725   0.76516   0.00000  Uiso   1.00
N181   N     0.02862   0.25329   0.10853   0.00000  Uiso   1.00
N182   N     0.22033   0.15914   0.82967   0.00000  Uiso   1.00
N183   N     0.12070   0.85340   0.63706   0.00000  Uiso   1.00
N184   N     0.02947   0.12944   0.98043   0.00000  Uiso   1.00
C185   C     0.62258   0.98466   0.45512   0.00000  Uiso   1.00
C186   C     0.64949   0.07898   0.42455   0.00000  Uiso   1.00
C187   C     0.67165   0.08928   0.47020   0.00000  Uiso   1.00
C188   C     0.69439   0.18160   0.43108   0.00000  Uiso   1.00
C189   C     0.73610   0.31596   0.39604   0.00000  Uiso   1.00
C190   C     0.62204   0.88763   0.37146   0.00000  Uiso   1.00
C191   C     0.62111   0.73705   0.37248   0.00000  Uiso   1.00
C192   C     0.62074   0.66829   0.28867   0.00000  Uiso   1.00
C193   C     0.61981   0.50559   0.17122   0.00000  Uiso   1.00
C194   C     0.59690   0.08717   0.46610   0.00000  Uiso   1.00
C195   C     0.57482   0.10433   0.54668   0.00000  Uiso   1.00
C196   C     0.55329   0.20355   0.54254   0.00000  Uiso   1.00
C197   C     0.51332   0.35065   0.57203   0.00000  Uiso   1.00
C198   C     0.62358   0.13030   0.30447   0.00000  Uiso   1.00
C199   C     0.65003   0.15808   0.34273   0.00000  Uiso   1.00
C200   C     0.67275   0.25042   0.30353   0.00000  Uiso   1.00
C201   C     0.69494   0.26085   0.34912   0.00000  Uiso   1.00
C202   C     0.62258   0.96673   0.28964   0.00000  Uiso   1.00
C203   C     0.62221   0.89818   0.20581   0.00000  Uiso   1.00
C204   C     0.62128   0.74754   0.20670   0.00000  Uiso   1.00
C205   C     0.59744   0.16628   0.38428   0.00000  Uiso   1.00
C206   C     0.57593   0.26548   0.38001   0.00000  Uiso   1.00
C207   C     0.55383   0.28280   0.46057   0.00000  Uiso   1.00
H208   H     0.62216   0.92307   0.51882   0.00000  Uiso   1.00
H209   H     0.67122   0.02803   0.53352   0.00000  Uiso   1.00
H210   H     0.62069   0.67586   0.43581   0.00000  Uiso   1.00
H211   H     0.57441   0.04310   0.60998   0.00000  Uiso   1.00
H212   H     0.72586   0.17925   0.51371   0.00000  Uiso   1.00
H213   H     0.61929   0.43668   0.30770   0.00000  Uiso   1.00
H214   H     0.52172   0.21106   0.67498   0.00000  Uiso   1.00
H215   H     0.62400   0.19189   0.24077   0.00000  Uiso   1.00
H216   H     0.67316   0.31162   0.24021   0.00000  Uiso   1.00
H217   H     0.62263   0.95944   0.14251   0.00000  Uiso   1.00
H218   H     0.57635   0.32667   0.31668   0.00000  Uiso   1.00
H219   H     0.72744   0.40942   0.27565   0.00000  Uiso   1.00
H220   H     0.62087   0.66684   0.06964   0.00000  Uiso   1.00
H221   H     0.52329   0.44123   0.43692   0.00000  Uiso   1.00
O222   O     0.75896   0.36821   0.39931   0.00000  Uiso   1.00
O223   O     0.61914   0.39398   0.12905   0.00000  Uiso   1.00
O224   O     0.49113   0.40996   0.61091   0.00000  Uiso   1.00
N225   N     0.71948   0.21701   0.45777   0.00000  Uiso   1.00
N226   N     0.61985   0.52275   0.26516   0.00000  Uiso   1.00
N227   N     0.52862   0.24671   0.60853   0.00000  Uiso   1.00
N228   N     0.72033   0.34086   0.32967   0.00000  Uiso   1.00
N229   N     0.62070   0.64660   0.13706   0.00000  Uiso   1.00
N230   N     0.52947   0.37056   0.48043   0.00000  Uiso   1.00
C231   C     0.12258   0.48466   0.45512   0.00000  Uiso   1.00
C232   C     0.14949   0.57898   0.42455   0.00000  Uiso   1.00
C233   C     0.17165   0.58928   0.47020   0.00000  Uiso   1.00
C234   C     0.19439   0.68160   0.43108   0.00000  Uiso   1.00
C235   C     0.23610   0.81596   0.39604   0.00000  Uiso   1.00
C236   C     0.12204   0.38763   0.37146   0.00000  Uiso   1.00
C237   C     0.12111   0.23705   0.37248   0.00000  Uiso   1.00
C238   C     0.12074   0.16829   0.28867   0.00000  Uiso   1.00
C239   C     0.11981   0.00559   0.17122   0.00000  Uiso   1.00
C240   C     0.09690   0.58717   0.46610   0.00000  Uiso   1.00
C241   C     0.07482   0.60433   0.54668   0.00000  Uiso   1.00
C242   C     0.05329   0.70355   0.54254   0.00000  Uiso   1.00
C243   C     0.01332   0.85065   0.57203   0.00000  Uiso   1.00
C244   C     0.12358   0.63030   0.30447   0.00000  Uiso   1.00
C245   C     0.15003   0.65808   0.34273   0.00000  Uiso   1.00
C246   C     0.17275   0.75042   0.30353   0.00000  Uiso   1.00
C247   C     0.19494   0.76085   0.34912   0.00000  Uiso   1.00
C248   C     0.12258   0.46673   0.28964   0.00000  Uiso   1.00
C249   C     0.12221   0.39818   0.20581   0.00000  Uiso   1.00
C250   C     0.12128   0.24754   0.20670   0.00000  Uiso   1.00
C251   C     0.09744   0.66628   0.38428   0.00000  Uiso   1.00
C252   C     0.07593   0.76548   0.38001   0.00000  Uiso   1.00
C253   C     0.05383   0.78280   0.46057   0.00000  Uiso   1.00
H254   H     0.12216   0.42307   0.51882   0.00000  Uiso   1.00
H255   H     0.17122   0.52803   0.53352   0.00000  Uiso   1.00
H256   H     0.12069   0.17586   0.43581   0.00000  Uiso   1.00
H257   H     0.07441   0.54310   0.60998   0.00000  Uiso   1.00
H258   H     0.22586   0.67925   0.51371   0.00000  Uiso   1.00
H259   H     0.11929   0.93668   0.30770   0.00000  Uiso   1.00
H260   H     0.02172   0.71106   0.67498   0.00000  Uiso   1.00
H261   H     0.12400   0.69189   0.24077   0.00000  Uiso   1.00
H262   H     0.17316   0.81162   0.24021   0.00000  Uiso   1.00
H263   H     0.12263   0.45944   0.14251   0.00000  Uiso   1.00
H264   H     0.07635   0.82667   0.31668   0.00000  Uiso   1.00
H265   H     0.22744   0.90942   0.27565   0.00000  Uiso   1.00
H266   H     0.12087   0.16684   0.06964   0.00000  Uiso   1.00
H267   H     0.02329   0.94123   0.43692   0.00000  Uiso   1.00
O268   O     0.25896   0.86821   0.39931   0.00000  Uiso   1.00
O269   O     0.11914   0.89398   0.12905   0.00000  Uiso   1.00
O270   O     0.99113   0.90996   0.61091   0.00000  Uiso   1.00
N271   N     0.21948   0.71701   0.45777   0.00000  Uiso   1.00
N272   N     0.11985   0.02275   0.26516   0.00000  Uiso   1.00
N273   N     0.02862   0.74671   0.60853   0.00000  Uiso   1.00
N274   N     0.22033   0.84086   0.32967   0.00000  Uiso   1.00
N275   N     0.12070   0.14660   0.13706   0.00000  Uiso   1.00
N276   N     0.02947   0.87056   0.48043   0.00000  Uiso   1.00
C277   C     0.37742   0.98466   0.04488   0.00000  Uiso   1.00
C278   C     0.35051   0.07898   0.07545   0.00000  Uiso   1.00
C279   C     0.32835   0.08928   0.02980   0.00000  Uiso   1.00
C280   C     0.30561   0.18160   0.06892   0.00000  Uiso   1.00
C281   C     0.26390   0.31596   0.10396   0.00000  Uiso   1.00
C282   C     0.37796   0.88763   0.12854   0.00000  Uiso   1.00
C283   C     0.37889   0.73705   0.12752   0.00000  Uiso   1.00
C284   C     0.37926   0.66829   0.21133   0.00000  Uiso   1.00
C285   C     0.38019   0.50559   0.32878   0.00000  Uiso   1.00
C286   C     0.40310   0.08717   0.03390   0.00000  Uiso   1.00
C287   C     0.42518   0.10433   0.95332   0.00000  Uiso   1.00
C288   C     0.44671   0.20355   0.95746   0.00000  Uiso   1.00
C289   C     0.48668   0.35065   0.92797   0.00000  Uiso   1.00
C290   C     0.37642   0.13030   0.19553   0.00000  Uiso   1.00
C291   C     0.34997   0.15808   0.15727   0.00000  Uiso   1.00
C292   C     0.32725   0.25042   0.19647   0.00000  Uiso   1.00
C293   C     0.30506   0.26085   0.15088   0.00000  Uiso   1.00
C294   C     0.37742   0.96673   0.21036   0.00000  Uiso   1.00
C295   C     0.37779   0.89818   0.29419   0.00000  Uiso   1.00
C296   C     0.37872   0.74754   0.29330   0.00000  Uiso   1.00
C297   C     0.40256   0.16628   0.11572   0.00000  Uiso   1.00
C298   C     0.42407   0.26548   0.11999   0.00000  Uiso   1.00
C299   C     0.44617   0.28280   0.03943   0.00000  Uiso   1.00
H300   H     0.37784   0.92307   0.98118   0.00000  Uiso   1.00
H301   H     0.32878   0.02803   0.96648   0.00000  Uiso   1.00
H302   H     0.37931   0.67586   0.06419   0.00000  Uiso   1.00
H303   H     0.42559   0.04310   0.89002   0.00000  Uiso   1.00
H304   H     0.27414   0.17925   0.98629   0.00000  Uiso   1.00
H305   H     0.38071   0.43668   0.19230   0.00000  Uiso   1.00
H306   H     0.47828   0.21106   0.82502   0.00000  Uiso   1.00
H307   H     0.37600   0.19189   0.25923   0.00000  Uiso   1.00
H308   H     0.32684   0.31162   0.25979   0.00000  Uiso   1.00
H309   H     0.37737   0.95944   0.35749   0.00000  Uiso   1.00
H310   H     0.42365   0.32667   0.18332   0.00000  Uiso   1.00
H311   H     0.27256   0.40942   0.22435   0.00000  Uiso   1.00
H312   H     0.37913   0.66684   0.43036   0.00000  Uiso   1.00
H313   H     0.47671   0.44123   0.06308   0.00000  Uiso   1.00
O314   O     0.24104   0.36821   0.10069   0.00000  Uiso   1.00
O315   O     0.38086   0.39398   0.37095   0.00000  Uiso   1.00
O316   O     0.50887   0.40996   0.88909   0.00000  Uiso   1.00
N317   N     0.28052   0.21701   0.04223   0.00000  Uiso   1.00
N318   N     0.38015   0.52275   0.23484   0.00000  Uiso   1.00
N319   N     0.47138   0.24671   0.89147   0.00000  Uiso   1.00
N320   N     0.27967   0.34086   0.17033   0.00000  Uiso   1.00
N321   N     0.37930   0.64660   0.36294   0.00000  Uiso   1.00
N322   N     0.47053   0.37056   0.01957   0.00000  Uiso   1.00
C323   C     0.87742   0.48466   0.04488   0.00000  Uiso   1.00
C324   C     0.85051   0.57898   0.07545   0.00000  Uiso   1.00
C325   C     0.82835   0.58928   0.02980   0.00000  Uiso   1.00
C326   C     0.80561   0.68160   0.06892   0.00000  Uiso   1.00
C327   C     0.76390   0.81596   0.10396   0.00000  Uiso   1.00
C328   C     0.87796   0.38763   0.12854   0.00000  Uiso   1.00
C329   C     0.87889   0.23705   0.12752   0.00000  Uiso   1.00
C330   C     0.87926   0.16829   0.21133   0.00000  Uiso   1.00
C331   C     0.88019   0.00559   0.32878   0.00000  Uiso   1.00
C332   C     0.90310   0.58717   0.03390   0.00000  Uiso   1.00
C333   C     0.92518   0.60433   0.95332   0.00000  Uiso   1.00
C334   C     0.94671   0.70355   0.95746   0.00000  Uiso   1.00
C335   C     0.98668   0.85065   0.92797   0.00000  Uiso   1.00
C336   C     0.87642   0.63030   0.19553   0.00000  Uiso   1.00
C337   C     0.84997   0.65808   0.15727   0.00000  Uiso   1.00
C338   C     0.82725   0.75042   0.19647   0.00000  Uiso   1.00
C339   C     0.80506   0.76085   0.15088   0.00000  Uiso   1.00
C340   C     0.87742   0.46673   0.21036   0.00000  Uiso   1.00
C341   C     0.87779   0.39818   0.29419   0.00000  Uiso   1.00
C342   C     0.87872   0.24754   0.29330   0.00000  Uiso   1.00
C343   C     0.90256   0.66628   0.11572   0.00000  Uiso   1.00
C344   C     0.92407   0.76548   0.11999   0.00000  Uiso   1.00
C345   C     0.94617   0.78280   0.03943   0.00000  Uiso   1.00
H346   H     0.87784   0.42307   0.98118   0.00000  Uiso   1.00
H347   H     0.82878   0.52803   0.96648   0.00000  Uiso   1.00
H348   H     0.87931   0.17586   0.06419   0.00000  Uiso   1.00
H349   H     0.92559   0.54310   0.89002   0.00000  Uiso   1.00
H350   H     0.77414   0.67925   0.98629   0.00000  Uiso   1.00
H351   H     0.88071   0.93668   0.19230   0.00000  Uiso   1.00
H352   H     0.97828   0.71106   0.82502   0.00000  Uiso   1.00
H353   H     0.87600   0.69189   0.25923   0.00000  Uiso   1.00
H354   H     0.82684   0.81162   0.25979   0.00000  Uiso   1.00
H355   H     0.87737   0.45944   0.35749   0.00000  Uiso   1.00
H356   H     0.92365   0.82667   0.18332   0.00000  Uiso   1.00
H357   H     0.77256   0.90942   0.22435   0.00000  Uiso   1.00
H358   H     0.87913   0.16684   0.43036   0.00000  Uiso   1.00
H359   H     0.97671   0.94123   0.06308   0.00000  Uiso   1.00
O360   O     0.74104   0.86821   0.10069   0.00000  Uiso   1.00
O361   O     0.88086   0.89398   0.37095   0.00000  Uiso   1.00
O362   O     0.00887   0.90996   0.88909   0.00000  Uiso   1.00
N363   N     0.78052   0.71701   0.04223   0.00000  Uiso   1.00
N364   N     0.88015   0.02275   0.23484   0.00000  Uiso   1.00
N365   N     0.97138   0.74671   0.89147   0.00000  Uiso   1.00
N366   N     0.77967   0.84086   0.17033   0.00000  Uiso   1.00
N367   N     0.87930   0.14660   0.36294   0.00000  Uiso   1.00
N368   N     0.97053   0.87056   0.01957   0.00000  Uiso   1.00
