data_job_03657
_audit_creation_date              2018-12-19
_audit_creation_method            'Materials Studio'
_symmetry_space_group_name_H-M    'P1'
_symmetry_Int_Tables_number       1
_symmetry_cell_setting            triclinic
loop_
_symmetry_equiv_pos_as_xyz
  x,y,z
_cell_length_a                    20.8605
_cell_length_b                    18.6939
_cell_length_c                    15.2722
_cell_angle_alpha                 90.0000
_cell_angle_beta                  90.0000
_cell_angle_gamma                 90.0000
loop_
_atom_site_label
_atom_site_type_symbol
_atom_site_fract_x
_atom_site_fract_y
_atom_site_fract_z
_atom_site_U_iso_or_equiv
_atom_site_adp_type
_atom_site_occupancy
C1     C     0.78173   0.38239   0.52744   0.00000  Uiso   1.00
C2     C     0.75102   0.33521   0.45762   0.00000  Uiso   1.00
C3     C     0.72227   0.26930   0.47204   0.00000  Uiso   1.00
C4     C     0.69698   0.23449   0.39955   0.00000  Uiso   1.00
C5     C     0.64881   0.15664   0.30389   0.00000  Uiso   1.00
C6     C     0.85047   0.39533   0.49737   0.00000  Uiso   1.00
C7     C     0.90533   0.37999   0.54522   0.00000  Uiso   1.00
C8     C     0.96375   0.39581   0.50618   0.00000  Uiso   1.00
C9     C     0.06997   0.41135   0.47225   0.00000  Uiso   1.00
C10    C     0.74796   0.45457   0.52154   0.00000  Uiso   1.00
C11    C     0.71665   0.48905   0.58971   0.00000  Uiso   1.00
C12    C     0.68877   0.55474   0.57103   0.00000  Uiso   1.00
C13    C     0.63583   0.66226   0.57463   0.00000  Uiso   1.00
C14    C     0.78792   0.43776   0.37306   0.00000  Uiso   1.00
C15    C     0.75438   0.36529   0.37376   0.00000  Uiso   1.00
C16    C     0.72912   0.33057   0.30123   0.00000  Uiso   1.00
C17    C     0.70034   0.26463   0.31554   0.00000  Uiso   1.00
C18    C     0.85383   0.42541   0.41351   0.00000  Uiso   1.00
C19    C     0.91218   0.44126   0.37440   0.00000  Uiso   1.00
C20    C     0.96712   0.42594   0.42218   0.00000  Uiso   1.00
C21    C     0.75132   0.48465   0.43768   0.00000  Uiso   1.00
C22    C     0.72349   0.55031   0.41889   0.00000  Uiso   1.00
C23    C     0.69214   0.58488   0.48702   0.00000  Uiso   1.00
H24    H     0.77912   0.35897   0.59273   0.00000  Uiso   1.00
H25    H     0.71969   0.24604   0.53695   0.00000  Uiso   1.00
H26    H     0.90271   0.35672   0.61011   0.00000  Uiso   1.00
H27    H     0.71405   0.46576   0.65459   0.00000  Uiso   1.00
H28    H     0.65530   0.13409   0.43812   0.00000  Uiso   1.00
H29    H     0.04122   0.36749   0.59240   0.00000  Uiso   1.00
H30    H     0.64340   0.59741   0.68620   0.00000  Uiso   1.00
H31    H     0.79054   0.46118   0.30777   0.00000  Uiso   1.00
H32    H     0.73173   0.35386   0.23635   0.00000  Uiso   1.00
H33    H     0.91476   0.46454   0.30951   0.00000  Uiso   1.00
H34    H     0.72610   0.57357   0.35399   0.00000  Uiso   1.00
H35    H     0.66508   0.22159   0.19414   0.00000  Uiso   1.00
H36    H     0.05100   0.45500   0.34842   0.00000  Uiso   1.00
H37    H     0.65318   0.68491   0.44222   0.00000  Uiso   1.00
O38    O     0.62132   0.10539   0.27428   0.00000  Uiso   1.00
O39    O     0.12763   0.41161   0.47670   0.00000  Uiso   1.00
O40    O     0.60569   0.71325   0.59977   0.00000  Uiso   1.00
N41    N     0.66566   0.16942   0.39050   0.00000  Uiso   1.00
N42    N     0.02647   0.38762   0.53474   0.00000  Uiso   1.00
N43    N     0.65456   0.60258   0.62245   0.00000  Uiso   1.00
N44    N     0.67092   0.21651   0.25922   0.00000  Uiso   1.00
N45    N     0.03174   0.43471   0.40346   0.00000  Uiso   1.00
N46    N     0.65982   0.64967   0.49116   0.00000  Uiso   1.00
C47    C     0.71827   0.11761   0.02744   0.00000  Uiso   1.00
C48    C     0.74898   0.16479   0.95762   0.00000  Uiso   1.00
C49    C     0.77773   0.23070   0.97204   0.00000  Uiso   1.00
C50    C     0.80302   0.26551   0.89955   0.00000  Uiso   1.00
C51    C     0.85119   0.34336   0.80389   0.00000  Uiso   1.00
C52    C     0.64953   0.10467   0.99737   0.00000  Uiso   1.00
C53    C     0.59467   0.12001   0.04522   0.00000  Uiso   1.00
C54    C     0.53625   0.10419   0.00618   0.00000  Uiso   1.00
C55    C     0.43003   0.08865   0.97225   0.00000  Uiso   1.00
C56    C     0.75204   0.04543   0.02154   0.00000  Uiso   1.00
C57    C     0.78335   0.01095   0.08971   0.00000  Uiso   1.00
C58    C     0.81123   0.94526   0.07103   0.00000  Uiso   1.00
C59    C     0.86417   0.83774   0.07463   0.00000  Uiso   1.00
C60    C     0.71208   0.06224   0.87306   0.00000  Uiso   1.00
C61    C     0.74562   0.13471   0.87376   0.00000  Uiso   1.00
C62    C     0.77088   0.16943   0.80123   0.00000  Uiso   1.00
C63    C     0.79966   0.23537   0.81554   0.00000  Uiso   1.00
C64    C     0.64617   0.07459   0.91351   0.00000  Uiso   1.00
C65    C     0.58782   0.05874   0.87440   0.00000  Uiso   1.00
C66    C     0.53288   0.07406   0.92218   0.00000  Uiso   1.00
C67    C     0.74868   0.01535   0.93768   0.00000  Uiso   1.00
C68    C     0.77651   0.94969   0.91889   0.00000  Uiso   1.00
C69    C     0.80786   0.91512   0.98702   0.00000  Uiso   1.00
H70    H     0.72088   0.14103   0.09273   0.00000  Uiso   1.00
H71    H     0.78031   0.25396   0.03695   0.00000  Uiso   1.00
H72    H     0.59729   0.14328   0.11011   0.00000  Uiso   1.00
H73    H     0.78595   0.03424   0.15459   0.00000  Uiso   1.00
H74    H     0.84470   0.36591   0.93812   0.00000  Uiso   1.00
H75    H     0.45878   0.13251   0.09240   0.00000  Uiso   1.00
H76    H     0.85660   0.90259   0.18620   0.00000  Uiso   1.00
H77    H     0.70946   0.03882   0.80777   0.00000  Uiso   1.00
H78    H     0.76827   0.14614   0.73635   0.00000  Uiso   1.00
H79    H     0.58524   0.03546   0.80951   0.00000  Uiso   1.00
H80    H     0.77390   0.92643   0.85399   0.00000  Uiso   1.00
H81    H     0.83492   0.27841   0.69414   0.00000  Uiso   1.00
H82    H     0.44900   0.04500   0.84842   0.00000  Uiso   1.00
H83    H     0.84682   0.81509   0.94222   0.00000  Uiso   1.00
O84    O     0.87868   0.39461   0.77428   0.00000  Uiso   1.00
O85    O     0.37237   0.08839   0.97670   0.00000  Uiso   1.00
O86    O     0.89431   0.78675   0.09977   0.00000  Uiso   1.00
N87    N     0.83434   0.33058   0.89050   0.00000  Uiso   1.00
N88    N     0.47353   0.11238   0.03474   0.00000  Uiso   1.00
N89    N     0.84544   0.89742   0.12245   0.00000  Uiso   1.00
N90    N     0.82908   0.28349   0.75922   0.00000  Uiso   1.00
N91    N     0.46826   0.06529   0.90346   0.00000  Uiso   1.00
N92    N     0.84018   0.85033   0.99116   0.00000  Uiso   1.00
C93    C     0.21827   0.38239   0.97256   0.00000  Uiso   1.00
C94    C     0.24898   0.33521   0.04238   0.00000  Uiso   1.00
C95    C     0.27773   0.26930   0.02796   0.00000  Uiso   1.00
C96    C     0.30302   0.23449   0.10045   0.00000  Uiso   1.00
C97    C     0.35119   0.15664   0.19611   0.00000  Uiso   1.00
C98    C     0.14953   0.39533   0.00263   0.00000  Uiso   1.00
C99    C     0.09467   0.37999   0.95478   0.00000  Uiso   1.00
C100   C     0.03625   0.39581   0.99382   0.00000  Uiso   1.00
C101   C     0.93003   0.41135   0.02775   0.00000  Uiso   1.00
C102   C     0.25204   0.45457   0.97846   0.00000  Uiso   1.00
C103   C     0.28335   0.48905   0.91029   0.00000  Uiso   1.00
C104   C     0.31123   0.55474   0.92897   0.00000  Uiso   1.00
C105   C     0.36417   0.66226   0.92537   0.00000  Uiso   1.00
C106   C     0.21208   0.43776   0.12694   0.00000  Uiso   1.00
C107   C     0.24562   0.36529   0.12624   0.00000  Uiso   1.00
C108   C     0.27088   0.33057   0.19877   0.00000  Uiso   1.00
C109   C     0.29966   0.26463   0.18446   0.00000  Uiso   1.00
C110   C     0.14617   0.42541   0.08649   0.00000  Uiso   1.00
C111   C     0.08782   0.44126   0.12560   0.00000  Uiso   1.00
C112   C     0.03288   0.42594   0.07782   0.00000  Uiso   1.00
C113   C     0.24868   0.48465   0.06232   0.00000  Uiso   1.00
C114   C     0.27651   0.55031   0.08111   0.00000  Uiso   1.00
C115   C     0.30786   0.58488   0.01298   0.00000  Uiso   1.00
H116   H     0.22088   0.35897   0.90727   0.00000  Uiso   1.00
H117   H     0.28031   0.24604   0.96305   0.00000  Uiso   1.00
H118   H     0.09729   0.35672   0.88989   0.00000  Uiso   1.00
H119   H     0.28595   0.46576   0.84541   0.00000  Uiso   1.00
H120   H     0.34470   0.13409   0.06188   0.00000  Uiso   1.00
H121   H     0.95878   0.36749   0.90760   0.00000  Uiso   1.00
H122   H     0.35660   0.59741   0.81380   0.00000  Uiso   1.00
H123   H     0.20946   0.46118   0.19223   0.00000  Uiso   1.00
H124   H     0.26827   0.35386   0.26365   0.00000  Uiso   1.00
H125   H     0.08524   0.46454   0.19049   0.00000  Uiso   1.00
H126   H     0.27390   0.57357   0.14601   0.00000  Uiso   1.00
H127   H     0.33492   0.22159   0.30586   0.00000  Uiso   1.00
H128   H     0.94900   0.45500   0.15158   0.00000  Uiso   1.00
H129   H     0.34682   0.68491   0.05778   0.00000  Uiso   1.00
O130   O     0.37868   0.10539   0.22572   0.00000  Uiso   1.00
O131   O     0.87237   0.41161   0.02330   0.00000  Uiso   1.00
O132   O     0.39431   0.71325   0.90023   0.00000  Uiso   1.00
N133   N     0.33434   0.16942   0.10950   0.00000  Uiso   1.00
N134   N     0.97353   0.38762   0.96526   0.00000  Uiso   1.00
N135   N     0.34544   0.60258   0.87755   0.00000  Uiso   1.00
N136   N     0.32908   0.21651   0.24078   0.00000  Uiso   1.00
N137   N     0.96826   0.43471   0.09654   0.00000  Uiso   1.00
N138   N     0.34018   0.64967   0.00884   0.00000  Uiso   1.00
C139   C     0.28173   0.11761   0.47256   0.00000  Uiso   1.00
C140   C     0.25102   0.16479   0.54238   0.00000  Uiso   1.00
C141   C     0.22227   0.23070   0.52796   0.00000  Uiso   1.00
C142   C     0.19698   0.26551   0.60045   0.00000  Uiso   1.00
C143   C     0.14881   0.34336   0.69611   0.00000  Uiso   1.00
C144   C     0.35047   0.10467   0.50263   0.00000  Uiso   1.00
C145   C     0.40533   0.12001   0.45478   0.00000  Uiso   1.00
C146   C     0.46375   0.10419   0.49382   0.00000  Uiso   1.00
C147   C     0.56997   0.08865   0.52775   0.00000  Uiso   1.00
C148   C     0.24796   0.04543   0.47846   0.00000  Uiso   1.00
C149   C     0.21665   0.01095   0.41029   0.00000  Uiso   1.00
C150   C     0.18877   0.94526   0.42897   0.00000  Uiso   1.00
C151   C     0.13583   0.83774   0.42537   0.00000  Uiso   1.00
C152   C     0.28792   0.06224   0.62694   0.00000  Uiso   1.00
C153   C     0.25438   0.13471   0.62624   0.00000  Uiso   1.00
C154   C     0.22912   0.16943   0.69877   0.00000  Uiso   1.00
C155   C     0.20034   0.23537   0.68446   0.00000  Uiso   1.00
C156   C     0.35383   0.07459   0.58649   0.00000  Uiso   1.00
C157   C     0.41218   0.05874   0.62560   0.00000  Uiso   1.00
C158   C     0.46712   0.07406   0.57782   0.00000  Uiso   1.00
C159   C     0.25132   0.01535   0.56232   0.00000  Uiso   1.00
C160   C     0.22349   0.94969   0.58111   0.00000  Uiso   1.00
C161   C     0.19214   0.91512   0.51298   0.00000  Uiso   1.00
H162   H     0.27912   0.14103   0.40727   0.00000  Uiso   1.00
H163   H     0.21969   0.25396   0.46305   0.00000  Uiso   1.00
H164   H     0.40271   0.14328   0.38989   0.00000  Uiso   1.00
H165   H     0.21405   0.03424   0.34541   0.00000  Uiso   1.00
H166   H     0.15530   0.36591   0.56188   0.00000  Uiso   1.00
H167   H     0.54122   0.13251   0.40760   0.00000  Uiso   1.00
H168   H     0.14340   0.90259   0.31380   0.00000  Uiso   1.00
H169   H     0.29054   0.03882   0.69223   0.00000  Uiso   1.00
H170   H     0.23173   0.14614   0.76365   0.00000  Uiso   1.00
H171   H     0.41476   0.03546   0.69049   0.00000  Uiso   1.00
H172   H     0.22610   0.92643   0.64601   0.00000  Uiso   1.00
H173   H     0.16508   0.27841   0.80586   0.00000  Uiso   1.00
H174   H     0.55100   0.04500   0.65158   0.00000  Uiso   1.00
H175   H     0.15318   0.81509   0.55778   0.00000  Uiso   1.00
O176   O     0.12132   0.39461   0.72572   0.00000  Uiso   1.00
O177   O     0.62763   0.08839   0.52330   0.00000  Uiso   1.00
O178   O     0.10569   0.78675   0.40023   0.00000  Uiso   1.00
N179   N     0.16566   0.33058   0.60950   0.00000  Uiso   1.00
N180   N     0.52647   0.11238   0.46526   0.00000  Uiso   1.00
N181   N     0.15456   0.89742   0.37755   0.00000  Uiso   1.00
N182   N     0.17092   0.28349   0.74078   0.00000  Uiso   1.00
N183   N     0.53174   0.06529   0.59654   0.00000  Uiso   1.00
N184   N     0.15982   0.85033   0.50884   0.00000  Uiso   1.00
C185   C     0.21827   0.61761   0.47256   0.00000  Uiso   1.00
C186   C     0.24898   0.66479   0.54238   0.00000  Uiso   1.00
C187   C     0.27773   0.73070   0.52796   0.00000  Uiso   1.00
C188   C     0.30302   0.76551   0.60045   0.00000  Uiso   1.00
C189   C     0.35119   0.84336   0.69611   0.00000  Uiso   1.00
C190   C     0.14953   0.60467   0.50263   0.00000  Uiso   1.00
C191   C     0.09467   0.62001   0.45478   0.00000  Uiso   1.00
C192   C     0.03625   0.60419   0.49382   0.00000  Uiso   1.00
C193   C     0.93003   0.58865   0.52775   0.00000  Uiso   1.00
C194   C     0.25204   0.54543   0.47846   0.00000  Uiso   1.00
C195   C     0.28335   0.51095   0.41029   0.00000  Uiso   1.00
C196   C     0.31123   0.44526   0.42897   0.00000  Uiso   1.00
C197   C     0.36417   0.33774   0.42537   0.00000  Uiso   1.00
C198   C     0.21208   0.56224   0.62694   0.00000  Uiso   1.00
C199   C     0.24562   0.63471   0.62624   0.00000  Uiso   1.00
C200   C     0.27088   0.66943   0.69877   0.00000  Uiso   1.00
C201   C     0.29966   0.73537   0.68446   0.00000  Uiso   1.00
C202   C     0.14617   0.57459   0.58649   0.00000  Uiso   1.00
C203   C     0.08782   0.55874   0.62560   0.00000  Uiso   1.00
C204   C     0.03288   0.57406   0.57782   0.00000  Uiso   1.00
C205   C     0.24868   0.51535   0.56232   0.00000  Uiso   1.00
C206   C     0.27651   0.44969   0.58111   0.00000  Uiso   1.00
C207   C     0.30786   0.41512   0.51298   0.00000  Uiso   1.00
H208   H     0.22088   0.64103   0.40727   0.00000  Uiso   1.00
H209   H     0.28031   0.75396   0.46305   0.00000  Uiso   1.00
H210   H     0.09729   0.64328   0.38989   0.00000  Uiso   1.00
H211   H     0.28595   0.53424   0.34541   0.00000  Uiso   1.00
H212   H     0.34470   0.86591   0.56188   0.00000  Uiso   1.00
H213   H     0.95878   0.63251   0.40760   0.00000  Uiso   1.00
H214   H     0.35660   0.40259   0.31380   0.00000  Uiso   1.00
H215   H     0.20946   0.53882   0.69223   0.00000  Uiso   1.00
H216   H     0.26827   0.64614   0.76365   0.00000  Uiso   1.00
H217   H     0.08524   0.53546   0.69049   0.00000  Uiso   1.00
H218   H     0.27390   0.42643   0.64601   0.00000  Uiso   1.00
H219   H     0.33492   0.77841   0.80586   0.00000  Uiso   1.00
H220   H     0.94900   0.54500   0.65158   0.00000  Uiso   1.00
H221   H     0.34682   0.31509   0.55778   0.00000  Uiso   1.00
O222   O     0.37868   0.89461   0.72572   0.00000  Uiso   1.00
O223   O     0.87237   0.58839   0.52330   0.00000  Uiso   1.00
O224   O     0.39431   0.28675   0.40023   0.00000  Uiso   1.00
N225   N     0.33434   0.83058   0.60950   0.00000  Uiso   1.00
N226   N     0.97353   0.61238   0.46526   0.00000  Uiso   1.00
N227   N     0.34544   0.39742   0.37755   0.00000  Uiso   1.00
N228   N     0.32908   0.78349   0.74078   0.00000  Uiso   1.00
N229   N     0.96826   0.56529   0.59654   0.00000  Uiso   1.00
N230   N     0.34018   0.35033   0.50884   0.00000  Uiso   1.00
C231   C     0.28173   0.88239   0.97256   0.00000  Uiso   1.00
C232   C     0.25102   0.83521   0.04238   0.00000  Uiso   1.00
C233   C     0.22227   0.76930   0.02796   0.00000  Uiso   1.00
C234   C     0.19698   0.73449   0.10045   0.00000  Uiso   1.00
C235   C     0.14881   0.65664   0.19611   0.00000  Uiso   1.00
C236   C     0.35047   0.89533   0.00263   0.00000  Uiso   1.00
C237   C     0.40533   0.87999   0.95478   0.00000  Uiso   1.00
C238   C     0.46375   0.89581   0.99382   0.00000  Uiso   1.00
C239   C     0.56997   0.91135   0.02775   0.00000  Uiso   1.00
C240   C     0.24796   0.95457   0.97846   0.00000  Uiso   1.00
C241   C     0.21665   0.98905   0.91029   0.00000  Uiso   1.00
C242   C     0.18877   0.05474   0.92897   0.00000  Uiso   1.00
C243   C     0.13583   0.16226   0.92537   0.00000  Uiso   1.00
C244   C     0.28792   0.93776   0.12694   0.00000  Uiso   1.00
C245   C     0.25438   0.86529   0.12624   0.00000  Uiso   1.00
C246   C     0.22912   0.83057   0.19877   0.00000  Uiso   1.00
C247   C     0.20034   0.76463   0.18446   0.00000  Uiso   1.00
C248   C     0.35383   0.92541   0.08649   0.00000  Uiso   1.00
C249   C     0.41218   0.94126   0.12560   0.00000  Uiso   1.00
C250   C     0.46712   0.92594   0.07782   0.00000  Uiso   1.00
C251   C     0.25132   0.98465   0.06232   0.00000  Uiso   1.00
C252   C     0.22349   0.05031   0.08111   0.00000  Uiso   1.00
C253   C     0.19214   0.08488   0.01298   0.00000  Uiso   1.00
H254   H     0.27912   0.85897   0.90727   0.00000  Uiso   1.00
H255   H     0.21969   0.74604   0.96305   0.00000  Uiso   1.00
H256   H     0.40271   0.85672   0.88989   0.00000  Uiso   1.00
H257   H     0.21405   0.96576   0.84541   0.00000  Uiso   1.00
H258   H     0.15530   0.63409   0.06188   0.00000  Uiso   1.00
H259   H     0.54122   0.86749   0.90760   0.00000  Uiso   1.00
H260   H     0.14340   0.09741   0.81380   0.00000  Uiso   1.00
H261   H     0.29054   0.96118   0.19223   0.00000  Uiso   1.00
H262   H     0.23173   0.85386   0.26365   0.00000  Uiso   1.00
H263   H     0.41476   0.96454   0.19049   0.00000  Uiso   1.00
H264   H     0.22610   0.07357   0.14601   0.00000  Uiso   1.00
H265   H     0.16508   0.72159   0.30586   0.00000  Uiso   1.00
H266   H     0.55100   0.95500   0.15158   0.00000  Uiso   1.00
H267   H     0.15318   0.18491   0.05778   0.00000  Uiso   1.00
O268   O     0.12132   0.60539   0.22572   0.00000  Uiso   1.00
O269   O     0.62763   0.91161   0.02330   0.00000  Uiso   1.00
O270   O     0.10569   0.21325   0.90023   0.00000  Uiso   1.00
N271   N     0.16566   0.66942   0.10950   0.00000  Uiso   1.00
N272   N     0.52647   0.88762   0.96526   0.00000  Uiso   1.00
N273   N     0.15456   0.10258   0.87755   0.00000  Uiso   1.00
N274   N     0.17092   0.71651   0.24078   0.00000  Uiso   1.00
N275   N     0.53174   0.93471   0.09654   0.00000  Uiso   1.00
N276   N     0.15982   0.14967   0.00884   0.00000  Uiso   1.00
C277   C     0.78173   0.61761   0.02744   0.00000  Uiso   1.00
C278   C     0.75102   0.66479   0.95762   0.00000  Uiso   1.00
C279   C     0.72227   0.73070   0.97204   0.00000  Uiso   1.00
C280   C     0.69698   0.76551   0.89955   0.00000  Uiso   1.00
C281   C     0.64881   0.84336   0.80389   0.00000  Uiso   1.00
C282   C     0.85047   0.60467   0.99737   0.00000  Uiso   1.00
C283   C     0.90533   0.62001   0.04522   0.00000  Uiso   1.00
C284   C     0.96375   0.60419   0.00618   0.00000  Uiso   1.00
C285   C     0.06997   0.58865   0.97225   0.00000  Uiso   1.00
C286   C     0.74796   0.54543   0.02154   0.00000  Uiso   1.00
C287   C     0.71665   0.51095   0.08971   0.00000  Uiso   1.00
C288   C     0.68877   0.44526   0.07103   0.00000  Uiso   1.00
C289   C     0.63583   0.33774   0.07463   0.00000  Uiso   1.00
C290   C     0.78792   0.56224   0.87306   0.00000  Uiso   1.00
C291   C     0.75438   0.63471   0.87376   0.00000  Uiso   1.00
C292   C     0.72912   0.66943   0.80123   0.00000  Uiso   1.00
C293   C     0.70034   0.73537   0.81554   0.00000  Uiso   1.00
C294   C     0.85383   0.57459   0.91351   0.00000  Uiso   1.00
C295   C     0.91218   0.55874   0.87440   0.00000  Uiso   1.00
C296   C     0.96712   0.57406   0.92218   0.00000  Uiso   1.00
C297   C     0.75132   0.51535   0.93768   0.00000  Uiso   1.00
C298   C     0.72349   0.44969   0.91889   0.00000  Uiso   1.00
C299   C     0.69214   0.41512   0.98702   0.00000  Uiso   1.00
H300   H     0.77912   0.64103   0.09273   0.00000  Uiso   1.00
H301   H     0.71969   0.75396   0.03695   0.00000  Uiso   1.00
H302   H     0.90271   0.64328   0.11011   0.00000  Uiso   1.00
H303   H     0.71405   0.53424   0.15459   0.00000  Uiso   1.00
H304   H     0.65530   0.86591   0.93812   0.00000  Uiso   1.00
H305   H     0.04122   0.63251   0.09240   0.00000  Uiso   1.00
H306   H     0.64340   0.40259   0.18620   0.00000  Uiso   1.00
H307   H     0.79054   0.53882   0.80777   0.00000  Uiso   1.00
H308   H     0.73173   0.64614   0.73635   0.00000  Uiso   1.00
H309   H     0.91476   0.53546   0.80951   0.00000  Uiso   1.00
H310   H     0.72610   0.42643   0.85399   0.00000  Uiso   1.00
H311   H     0.66508   0.77841   0.69414   0.00000  Uiso   1.00
H312   H     0.05100   0.54500   0.84842   0.00000  Uiso   1.00
H313   H     0.65318   0.31509   0.94222   0.00000  Uiso   1.00
O314   O     0.62132   0.89461   0.77428   0.00000  Uiso   1.00
O315   O     0.12763   0.58839   0.97670   0.00000  Uiso   1.00
O316   O     0.60569   0.28675   0.09977   0.00000  Uiso   1.00
N317   N     0.66566   0.83058   0.89050   0.00000  Uiso   1.00
N318   N     0.02647   0.61238   0.03474   0.00000  Uiso   1.00
N319   N     0.65456   0.39742   0.12245   0.00000  Uiso   1.00
N320   N     0.67092   0.78349   0.75922   0.00000  Uiso   1.00
N321   N     0.03174   0.56529   0.90346   0.00000  Uiso   1.00
N322   N     0.65982   0.35033   0.99116   0.00000  Uiso   1.00
C323   C     0.71827   0.88239   0.52744   0.00000  Uiso   1.00
C324   C     0.74898   0.83521   0.45762   0.00000  Uiso   1.00
C325   C     0.77773   0.76930   0.47204   0.00000  Uiso   1.00
C326   C     0.80302   0.73449   0.39955   0.00000  Uiso   1.00
C327   C     0.85119   0.65664   0.30389   0.00000  Uiso   1.00
C328   C     0.64953   0.89533   0.49737   0.00000  Uiso   1.00
C329   C     0.59467   0.87999   0.54522   0.00000  Uiso   1.00
C330   C     0.53625   0.89581   0.50618   0.00000  Uiso   1.00
C331   C     0.43003   0.91135   0.47225   0.00000  Uiso   1.00
C332   C     0.75204   0.95457   0.52154   0.00000  Uiso   1.00
C333   C     0.78335   0.98905   0.58971   0.00000  Uiso   1.00
C334   C     0.81123   0.05474   0.57103   0.00000  Uiso   1.00
C335   C     0.86417   0.16226   0.57463   0.00000  Uiso   1.00
C336   C     0.71208   0.93776   0.37306   0.00000  Uiso   1.00
C337   C     0.74562   0.86529   0.37376   0.00000  Uiso   1.00
C338   C     0.77088   0.83057   0.30123   0.00000  Uiso   1.00
C339   C     0.79966   0.76463   0.31554   0.00000  Uiso   1.00
C340   C     0.64617   0.92541   0.41351   0.00000  Uiso   1.00
C341   C     0.58782   0.94126   0.37440   0.00000  Uiso   1.00
C342   C     0.53288   0.92594   0.42218   0.00000  Uiso   1.00
C343   C     0.74868   0.98465   0.43768   0.00000  Uiso   1.00
C344   C     0.77651   0.05031   0.41889   0.00000  Uiso   1.00
C345   C     0.80786   0.08488   0.48702   0.00000  Uiso   1.00
H346   H     0.72088   0.85897   0.59273   0.00000  Uiso   1.00
H347   H     0.78031   0.74604   0.53695   0.00000  Uiso   1.00
H348   H     0.59729   0.85672   0.61011   0.00000  Uiso   1.00
H349   H     0.78595   0.96576   0.65459   0.00000  Uiso   1.00
H350   H     0.84470   0.63409   0.43812   0.00000  Uiso   1.00
H351   H     0.45878   0.86749   0.59240   0.00000  Uiso   1.00
H352   H     0.85660   0.09741   0.68620   0.00000  Uiso   1.00
H353   H     0.70946   0.96118   0.30777   0.00000  Uiso   1.00
H354   H     0.76827   0.85386   0.23635   0.00000  Uiso   1.00
H355   H     0.58524   0.96454   0.30951   0.00000  Uiso   1.00
H356   H     0.77390   0.07357   0.35399   0.00000  Uiso   1.00
H357   H     0.83492   0.72159   0.19414   0.00000  Uiso   1.00
H358   H     0.44900   0.95500   0.34842   0.00000  Uiso   1.00
H359   H     0.84682   0.18491   0.44222   0.00000  Uiso   1.00
O360   O     0.87868   0.60539   0.27428   0.00000  Uiso   1.00
O361   O     0.37237   0.91161   0.47670   0.00000  Uiso   1.00
O362   O     0.89431   0.21325   0.59977   0.00000  Uiso   1.00
N363   N     0.83434   0.66942   0.39050   0.00000  Uiso   1.00
N364   N     0.47353   0.88762   0.53474   0.00000  Uiso   1.00
N365   N     0.84544   0.10258   0.62245   0.00000  Uiso   1.00
N366   N     0.82908   0.71651   0.25922   0.00000  Uiso   1.00
N367   N     0.46826   0.93471   0.40346   0.00000  Uiso   1.00
N368   N     0.84018   0.14967   0.49116   0.00000  Uiso   1.00
