data_job_00643
_audit_creation_date              2018-12-19
_audit_creation_method            'Materials Studio'
_symmetry_space_group_name_H-M    'P1'
_symmetry_Int_Tables_number       1
_symmetry_cell_setting            triclinic
loop_
_symmetry_equiv_pos_as_xyz
  x,y,z
_cell_length_a                    12.6112
_cell_length_b                    20.6870
_cell_length_c                    10.0421
_cell_angle_alpha                 90.0000
_cell_angle_beta                  73.7626
_cell_angle_gamma                 90.0000
loop_
_atom_site_label
_atom_site_type_symbol
_atom_site_fract_x
_atom_site_fract_y
_atom_site_fract_z
_atom_site_U_iso_or_equiv
_atom_site_adp_type
_atom_site_occupancy
C1     C     0.26310   0.17494   0.43895   0.00000  Uiso   1.00
C2     C     0.16602   0.15405   0.38641   0.00000  Uiso   1.00
C3     C     0.07429   0.19148   0.38830   0.00000  Uiso   1.00
C4     C     0.99444   0.16359   0.33545   0.00000  Uiso   1.00
C5     C     0.84190   0.14074   0.26196   0.00000  Uiso   1.00
C6     C     0.27177   0.12475   0.54665   0.00000  Uiso   1.00
C7     C     0.26897   0.13756   0.68325   0.00000  Uiso   1.00
C8     C     0.27816   0.08499   0.76529   0.00000  Uiso   1.00
C9     C     0.28989   0.01667   0.94054   0.00000  Uiso   1.00
C10    C     0.36611   0.16644   0.31720   0.00000  Uiso   1.00
C11    C     0.44267   0.21428   0.26090   0.00000  Uiso   1.00
C12    C     0.53130   0.19681   0.14978   0.00000  Uiso   1.00
C13    C     0.68951   0.19320   0.96878   0.00000  Uiso   1.00
C14    C     0.28441   0.05883   0.34175   0.00000  Uiso   1.00
C15    C     0.17759   0.09098   0.33362   0.00000  Uiso   1.00
C16    C     0.09786   0.06302   0.28075   0.00000  Uiso   1.00
C17    C     0.00603   0.10041   0.28255   0.00000  Uiso   1.00
C18    C     0.28334   0.06169   0.49386   0.00000  Uiso   1.00
C19    C     0.29254   0.00910   0.57570   0.00000  Uiso   1.00
C20    C     0.28975   0.02182   0.71240   0.00000  Uiso   1.00
C21    C     0.37769   0.10337   0.26440   0.00000  Uiso   1.00
C22    C     0.46623   0.08582   0.15335   0.00000  Uiso   1.00
C23    C     0.54289   0.13363   0.09689   0.00000  Uiso   1.00
H24    H     0.25409   0.22403   0.48007   0.00000  Uiso   1.00
H25    H     0.06536   0.24029   0.42918   0.00000  Uiso   1.00
H26    H     0.26003   0.18637   0.72408   0.00000  Uiso   1.00
H27    H     0.43368   0.26308   0.30179   0.00000  Uiso   1.00
H28    H     0.86120   0.23048   0.34952   0.00000  Uiso   1.00
H29    H     0.27170   0.11679   0.97132   0.00000  Uiso   1.00
H30    H     0.63789   0.27856   0.08084   0.00000  Uiso   1.00
H31    H     0.29342   0.00973   0.30064   0.00000  Uiso   1.00
H32    H     0.10684   0.01422   0.23990   0.00000  Uiso   1.00
H33    H     0.30150   0.96030   0.53481   0.00000  Uiso   1.00
H34    H     0.47516   0.03701   0.11252   0.00000  Uiso   1.00
H35    H     0.89486   0.04700   0.19590   0.00000  Uiso   1.00
H36    H     0.30536   0.93331   0.81770   0.00000  Uiso   1.00
H37    H     0.67155   0.09507   0.92722   0.00000  Uiso   1.00
O38    O     0.75457   0.14555   0.23603   0.00000  Uiso   1.00
O39    O     0.29315   0.99640   0.05180   0.00000  Uiso   1.00
O40    O     0.77358   0.20863   0.88352   0.00000  Uiso   1.00
N41    N     0.89474   0.18669   0.32168   0.00000  Uiso   1.00
N42    N     0.27851   0.08039   0.90303   0.00000  Uiso   1.00
N43    N     0.62089   0.23163   0.07053   0.00000  Uiso   1.00
N44    N     0.91285   0.08796   0.23901   0.00000  Uiso   1.00
N45    N     0.29662   0.98166   0.82037   0.00000  Uiso   1.00
N46    N     0.63900   0.13289   0.98787   0.00000  Uiso   1.00
C47    C     0.73690   0.67494   0.06105   0.00000  Uiso   1.00
C48    C     0.83398   0.65405   0.11359   0.00000  Uiso   1.00
C49    C     0.92571   0.69148   0.11170   0.00000  Uiso   1.00
C50    C     0.00556   0.66359   0.16455   0.00000  Uiso   1.00
C51    C     0.15810   0.64074   0.23804   0.00000  Uiso   1.00
C52    C     0.72823   0.62475   0.95335   0.00000  Uiso   1.00
C53    C     0.73103   0.63756   0.81675   0.00000  Uiso   1.00
C54    C     0.72184   0.58499   0.73471   0.00000  Uiso   1.00
C55    C     0.71011   0.51667   0.55946   0.00000  Uiso   1.00
C56    C     0.63389   0.66644   0.18280   0.00000  Uiso   1.00
C57    C     0.55733   0.71428   0.23910   0.00000  Uiso   1.00
C58    C     0.46870   0.69681   0.35022   0.00000  Uiso   1.00
C59    C     0.31049   0.69320   0.53122   0.00000  Uiso   1.00
C60    C     0.71559   0.55883   0.15825   0.00000  Uiso   1.00
C61    C     0.82241   0.59098   0.16638   0.00000  Uiso   1.00
C62    C     0.90214   0.56302   0.21925   0.00000  Uiso   1.00
C63    C     0.99397   0.60041   0.21745   0.00000  Uiso   1.00
C64    C     0.71666   0.56169   0.00614   0.00000  Uiso   1.00
C65    C     0.70746   0.50910   0.92430   0.00000  Uiso   1.00
C66    C     0.71025   0.52182   0.78760   0.00000  Uiso   1.00
C67    C     0.62231   0.60337   0.23560   0.00000  Uiso   1.00
C68    C     0.53377   0.58582   0.34665   0.00000  Uiso   1.00
C69    C     0.45711   0.63363   0.40311   0.00000  Uiso   1.00
H70    H     0.74591   0.72403   0.01993   0.00000  Uiso   1.00
H71    H     0.93464   0.74029   0.07082   0.00000  Uiso   1.00
H72    H     0.73997   0.68637   0.77592   0.00000  Uiso   1.00
H73    H     0.56632   0.76308   0.19821   0.00000  Uiso   1.00
H74    H     0.13880   0.73048   0.15048   0.00000  Uiso   1.00
H75    H     0.72830   0.61679   0.52868   0.00000  Uiso   1.00
H76    H     0.36211   0.77856   0.41916   0.00000  Uiso   1.00
H77    H     0.70658   0.50973   0.19936   0.00000  Uiso   1.00
H78    H     0.89316   0.51422   0.26010   0.00000  Uiso   1.00
H79    H     0.69850   0.46030   0.96519   0.00000  Uiso   1.00
H80    H     0.52484   0.53701   0.38748   0.00000  Uiso   1.00
H81    H     0.10514   0.54700   0.30410   0.00000  Uiso   1.00
H82    H     0.69464   0.43331   0.68230   0.00000  Uiso   1.00
H83    H     0.32845   0.59507   0.57278   0.00000  Uiso   1.00
O84    O     0.24543   0.64555   0.26397   0.00000  Uiso   1.00
O85    O     0.70685   0.49640   0.44820   0.00000  Uiso   1.00
O86    O     0.22642   0.70863   0.61648   0.00000  Uiso   1.00
N87    N     0.10526   0.68669   0.17832   0.00000  Uiso   1.00
N88    N     0.72149   0.58039   0.59697   0.00000  Uiso   1.00
N89    N     0.37911   0.73163   0.42947   0.00000  Uiso   1.00
N90    N     0.08715   0.58796   0.26099   0.00000  Uiso   1.00
N91    N     0.70338   0.48166   0.67963   0.00000  Uiso   1.00
N92    N     0.36100   0.63289   0.51213   0.00000  Uiso   1.00
C93    C     0.73690   0.82506   0.56105   0.00000  Uiso   1.00
C94    C     0.83398   0.84595   0.61359   0.00000  Uiso   1.00
C95    C     0.92571   0.80852   0.61170   0.00000  Uiso   1.00
C96    C     0.00556   0.83641   0.66455   0.00000  Uiso   1.00
C97    C     0.15810   0.85926   0.73804   0.00000  Uiso   1.00
C98    C     0.72823   0.87525   0.45335   0.00000  Uiso   1.00
C99    C     0.73103   0.86244   0.31675   0.00000  Uiso   1.00
C100   C     0.72184   0.91501   0.23471   0.00000  Uiso   1.00
C101   C     0.71011   0.98333   0.05946   0.00000  Uiso   1.00
C102   C     0.63389   0.83356   0.68280   0.00000  Uiso   1.00
C103   C     0.55733   0.78572   0.73910   0.00000  Uiso   1.00
C104   C     0.46870   0.80319   0.85022   0.00000  Uiso   1.00
C105   C     0.31049   0.80680   0.03122   0.00000  Uiso   1.00
C106   C     0.71559   0.94117   0.65825   0.00000  Uiso   1.00
C107   C     0.82241   0.90902   0.66638   0.00000  Uiso   1.00
C108   C     0.90214   0.93698   0.71925   0.00000  Uiso   1.00
C109   C     0.99397   0.89959   0.71745   0.00000  Uiso   1.00
C110   C     0.71666   0.93831   0.50614   0.00000  Uiso   1.00
C111   C     0.70746   0.99090   0.42430   0.00000  Uiso   1.00
C112   C     0.71025   0.97818   0.28760   0.00000  Uiso   1.00
C113   C     0.62231   0.89663   0.73560   0.00000  Uiso   1.00
C114   C     0.53377   0.91418   0.84665   0.00000  Uiso   1.00
C115   C     0.45711   0.86637   0.90311   0.00000  Uiso   1.00
H116   H     0.74591   0.77597   0.51993   0.00000  Uiso   1.00
H117   H     0.93464   0.75971   0.57082   0.00000  Uiso   1.00
H118   H     0.73997   0.81363   0.27592   0.00000  Uiso   1.00
H119   H     0.56632   0.73692   0.69821   0.00000  Uiso   1.00
H120   H     0.13880   0.76952   0.65048   0.00000  Uiso   1.00
H121   H     0.72830   0.88321   0.02868   0.00000  Uiso   1.00
H122   H     0.36211   0.72144   0.91916   0.00000  Uiso   1.00
H123   H     0.70658   0.99027   0.69936   0.00000  Uiso   1.00
H124   H     0.89316   0.98578   0.76010   0.00000  Uiso   1.00
H125   H     0.69850   0.03970   0.46519   0.00000  Uiso   1.00
H126   H     0.52484   0.96299   0.88748   0.00000  Uiso   1.00
H127   H     0.10514   0.95300   0.80410   0.00000  Uiso   1.00
H128   H     0.69464   0.06669   0.18230   0.00000  Uiso   1.00
H129   H     0.32845   0.90493   0.07278   0.00000  Uiso   1.00
O130   O     0.24543   0.85445   0.76397   0.00000  Uiso   1.00
O131   O     0.70685   0.00360   0.94820   0.00000  Uiso   1.00
O132   O     0.22642   0.79137   0.11648   0.00000  Uiso   1.00
N133   N     0.10526   0.81331   0.67832   0.00000  Uiso   1.00
N134   N     0.72149   0.91961   0.09697   0.00000  Uiso   1.00
N135   N     0.37911   0.76837   0.92947   0.00000  Uiso   1.00
N136   N     0.08715   0.91204   0.76099   0.00000  Uiso   1.00
N137   N     0.70338   0.01834   0.17963   0.00000  Uiso   1.00
N138   N     0.36100   0.86711   0.01213   0.00000  Uiso   1.00
C139   C     0.26310   0.32506   0.93895   0.00000  Uiso   1.00
C140   C     0.16602   0.34595   0.88641   0.00000  Uiso   1.00
C141   C     0.07429   0.30852   0.88830   0.00000  Uiso   1.00
C142   C     0.99444   0.33641   0.83545   0.00000  Uiso   1.00
C143   C     0.84190   0.35926   0.76196   0.00000  Uiso   1.00
C144   C     0.27177   0.37525   0.04665   0.00000  Uiso   1.00
C145   C     0.26897   0.36244   0.18325   0.00000  Uiso   1.00
C146   C     0.27816   0.41501   0.26529   0.00000  Uiso   1.00
C147   C     0.28989   0.48333   0.44054   0.00000  Uiso   1.00
C148   C     0.36611   0.33356   0.81720   0.00000  Uiso   1.00
C149   C     0.44267   0.28572   0.76090   0.00000  Uiso   1.00
C150   C     0.53130   0.30319   0.64978   0.00000  Uiso   1.00
C151   C     0.68951   0.30680   0.46878   0.00000  Uiso   1.00
C152   C     0.28441   0.44117   0.84175   0.00000  Uiso   1.00
C153   C     0.17759   0.40902   0.83362   0.00000  Uiso   1.00
C154   C     0.09786   0.43698   0.78075   0.00000  Uiso   1.00
C155   C     0.00603   0.39959   0.78255   0.00000  Uiso   1.00
C156   C     0.28334   0.43831   0.99386   0.00000  Uiso   1.00
C157   C     0.29254   0.49090   0.07570   0.00000  Uiso   1.00
C158   C     0.28975   0.47818   0.21240   0.00000  Uiso   1.00
C159   C     0.37769   0.39663   0.76440   0.00000  Uiso   1.00
C160   C     0.46623   0.41418   0.65335   0.00000  Uiso   1.00
C161   C     0.54289   0.36637   0.59689   0.00000  Uiso   1.00
H162   H     0.25409   0.27597   0.98007   0.00000  Uiso   1.00
H163   H     0.06536   0.25971   0.92918   0.00000  Uiso   1.00
H164   H     0.26003   0.31363   0.22408   0.00000  Uiso   1.00
H165   H     0.43368   0.23692   0.80179   0.00000  Uiso   1.00
H166   H     0.86120   0.26952   0.84952   0.00000  Uiso   1.00
H167   H     0.27170   0.38321   0.47132   0.00000  Uiso   1.00
H168   H     0.63789   0.22144   0.58084   0.00000  Uiso   1.00
H169   H     0.29342   0.49027   0.80064   0.00000  Uiso   1.00
H170   H     0.10684   0.48578   0.73990   0.00000  Uiso   1.00
H171   H     0.30150   0.53970   0.03481   0.00000  Uiso   1.00
H172   H     0.47516   0.46299   0.61252   0.00000  Uiso   1.00
H173   H     0.89486   0.45300   0.69590   0.00000  Uiso   1.00
H174   H     0.30536   0.56669   0.31770   0.00000  Uiso   1.00
H175   H     0.67155   0.40493   0.42722   0.00000  Uiso   1.00
O176   O     0.75457   0.35445   0.73603   0.00000  Uiso   1.00
O177   O     0.29315   0.50360   0.55180   0.00000  Uiso   1.00
O178   O     0.77358   0.29137   0.38352   0.00000  Uiso   1.00
N179   N     0.89474   0.31331   0.82168   0.00000  Uiso   1.00
N180   N     0.27851   0.41961   0.40303   0.00000  Uiso   1.00
N181   N     0.62089   0.26837   0.57053   0.00000  Uiso   1.00
N182   N     0.91285   0.41204   0.73901   0.00000  Uiso   1.00
N183   N     0.29662   0.51834   0.32037   0.00000  Uiso   1.00
N184   N     0.63900   0.36711   0.48787   0.00000  Uiso   1.00
