data_job_05042
_audit_creation_date              2018-12-19
_audit_creation_method            'Materials Studio'
_symmetry_space_group_name_H-M    'P1'
_symmetry_Int_Tables_number       1
_symmetry_cell_setting            triclinic
loop_
_symmetry_equiv_pos_as_xyz
  x,y,z
_cell_length_a                    12.6679
_cell_length_b                    8.2530
_cell_length_c                    26.7505
_cell_angle_alpha                 90.0000
_cell_angle_beta                  103.1470
_cell_angle_gamma                 90.0000
loop_
_atom_site_label
_atom_site_type_symbol
_atom_site_fract_x
_atom_site_fract_y
_atom_site_fract_z
_atom_site_U_iso_or_equiv
_atom_site_adp_type
_atom_site_occupancy
C1     C     0.85431   0.13198   0.60721   0.00000  Uiso   1.00
C2     C     0.80542   0.11905   0.54974   0.00000  Uiso   1.00
C3     C     0.79878   0.97879   0.52057   0.00000  Uiso   1.00
C4     C     0.75118   0.99216   0.46859   0.00000  Uiso   1.00
C5     C     0.68133   0.94953   0.38269   0.00000  Uiso   1.00
C6     C     0.94208   0.26164   0.61332   0.00000  Uiso   1.00
C7     C     0.05035   0.24127   0.63762   0.00000  Uiso   1.00
C8     C     0.11779   0.37469   0.63917   0.00000  Uiso   1.00
C9     C     0.26009   0.55345   0.65201   0.00000  Uiso   1.00
C10    C     0.76558   0.20246   0.63086   0.00000  Uiso   1.00
C11    C     0.72546   0.13236   0.66992   0.00000  Uiso   1.00
C12    C     0.64431   0.21597   0.68624   0.00000  Uiso   1.00
C13    C     0.51258   0.30285   0.72632   0.00000  Uiso   1.00
C14    C     0.78157   0.40514   0.56677   0.00000  Uiso   1.00
C15    C     0.76591   0.26742   0.52778   0.00000  Uiso   1.00
C16    C     0.71830   0.28101   0.47583   0.00000  Uiso   1.00
C17    C     0.71159   0.14079   0.44659   0.00000  Uiso   1.00
C18    C     0.90258   0.41000   0.59136   0.00000  Uiso   1.00
C19    C     0.96987   0.54348   0.59288   0.00000  Uiso   1.00
C20    C     0.07821   0.52332   0.61717   0.00000  Uiso   1.00
C21    C     0.72607   0.35082   0.60890   0.00000  Uiso   1.00
C22    C     0.64498   0.43457   0.62517   0.00000  Uiso   1.00
C23    C     0.60474   0.36460   0.66424   0.00000  Uiso   1.00
H24    H     0.88507   0.01648   0.62431   0.00000  Uiso   1.00
H25    H     0.82937   0.86400   0.53758   0.00000  Uiso   1.00
H26    H     0.08090   0.12645   0.65462   0.00000  Uiso   1.00
H27    H     0.75605   0.01754   0.68690   0.00000  Uiso   1.00
H28    H     0.75024   0.76039   0.43173   0.00000  Uiso   1.00
H29    H     0.28058   0.31378   0.67852   0.00000  Uiso   1.00
H30    H     0.59559   0.08414   0.74661   0.00000  Uiso   1.00
H31    H     0.75081   0.52065   0.54967   0.00000  Uiso   1.00
H32    H     0.68774   0.39584   0.45884   0.00000  Uiso   1.00
H33    H     0.93927   0.65828   0.57588   0.00000  Uiso   1.00
H34    H     0.61443   0.54938   0.60817   0.00000  Uiso   1.00
H35    H     0.63528   0.19205   0.36783   0.00000  Uiso   1.00
H36    H     0.16563   0.74544   0.61462   0.00000  Uiso   1.00
H37    H     0.48064   0.51580   0.68270   0.00000  Uiso   1.00
O38    O     0.65373   0.88503   0.34137   0.00000  Uiso   1.00
O39    O     0.34951   0.61106   0.66516   0.00000  Uiso   1.00
O40    O     0.45082   0.30977   0.75449   0.00000  Uiso   1.00
N41    N     0.73182   0.87911   0.42916   0.00000  Uiso   1.00
N42    N     0.22766   0.39649   0.65989   0.00000  Uiso   1.00
N43    N     0.58727   0.18181   0.72355   0.00000  Uiso   1.00
N44    N     0.66996   0.11138   0.39477   0.00000  Uiso   1.00
N45    N     0.16580   0.62876   0.62550   0.00000  Uiso   1.00
N46    N     0.52542   0.41408   0.68917   0.00000  Uiso   1.00
C47    C     0.14569   0.63198   0.89279   0.00000  Uiso   1.00
C48    C     0.19458   0.61905   0.95026   0.00000  Uiso   1.00
C49    C     0.20122   0.47879   0.97943   0.00000  Uiso   1.00
C50    C     0.24882   0.49216   0.03141   0.00000  Uiso   1.00
C51    C     0.31867   0.44953   0.11731   0.00000  Uiso   1.00
C52    C     0.05792   0.76164   0.88668   0.00000  Uiso   1.00
C53    C     0.94965   0.74127   0.86238   0.00000  Uiso   1.00
C54    C     0.88221   0.87469   0.86083   0.00000  Uiso   1.00
C55    C     0.73991   0.05345   0.84799   0.00000  Uiso   1.00
C56    C     0.23442   0.70246   0.86914   0.00000  Uiso   1.00
C57    C     0.27454   0.63236   0.83008   0.00000  Uiso   1.00
C58    C     0.35569   0.71597   0.81376   0.00000  Uiso   1.00
C59    C     0.48742   0.80285   0.77368   0.00000  Uiso   1.00
C60    C     0.21843   0.90514   0.93323   0.00000  Uiso   1.00
C61    C     0.23409   0.76742   0.97222   0.00000  Uiso   1.00
C62    C     0.28170   0.78101   0.02417   0.00000  Uiso   1.00
C63    C     0.28841   0.64079   0.05341   0.00000  Uiso   1.00
C64    C     0.09742   0.91000   0.90864   0.00000  Uiso   1.00
C65    C     0.03013   0.04348   0.90712   0.00000  Uiso   1.00
C66    C     0.92179   0.02332   0.88283   0.00000  Uiso   1.00
C67    C     0.27393   0.85082   0.89110   0.00000  Uiso   1.00
C68    C     0.35502   0.93457   0.87483   0.00000  Uiso   1.00
C69    C     0.39526   0.86460   0.83576   0.00000  Uiso   1.00
H70    H     0.11493   0.51648   0.87569   0.00000  Uiso   1.00
H71    H     0.17063   0.36400   0.96242   0.00000  Uiso   1.00
H72    H     0.91910   0.62645   0.84538   0.00000  Uiso   1.00
H73    H     0.24395   0.51754   0.81310   0.00000  Uiso   1.00
H74    H     0.24976   0.26039   0.06827   0.00000  Uiso   1.00
H75    H     0.71942   0.81378   0.82148   0.00000  Uiso   1.00
H76    H     0.40441   0.58414   0.75339   0.00000  Uiso   1.00
H77    H     0.24919   0.02065   0.95033   0.00000  Uiso   1.00
H78    H     0.31226   0.89584   0.04116   0.00000  Uiso   1.00
H79    H     0.06073   0.15828   0.92412   0.00000  Uiso   1.00
H80    H     0.38557   0.04938   0.89183   0.00000  Uiso   1.00
H81    H     0.36472   0.69205   0.13217   0.00000  Uiso   1.00
H82    H     0.83437   0.24544   0.88538   0.00000  Uiso   1.00
H83    H     0.51936   0.01580   0.81730   0.00000  Uiso   1.00
O84    O     0.34627   0.38503   0.15863   0.00000  Uiso   1.00
O85    O     0.65049   0.11106   0.83484   0.00000  Uiso   1.00
O86    O     0.54918   0.80977   0.74551   0.00000  Uiso   1.00
N87    N     0.26818   0.37911   0.07084   0.00000  Uiso   1.00
N88    N     0.77234   0.89649   0.84011   0.00000  Uiso   1.00
N89    N     0.41273   0.68181   0.77645   0.00000  Uiso   1.00
N90    N     0.33004   0.61138   0.10523   0.00000  Uiso   1.00
N91    N     0.83420   0.12876   0.87450   0.00000  Uiso   1.00
N92    N     0.47458   0.91408   0.81083   0.00000  Uiso   1.00
C93    C     0.14569   0.86802   0.39279   0.00000  Uiso   1.00
C94    C     0.19458   0.88095   0.45026   0.00000  Uiso   1.00
C95    C     0.20122   0.02121   0.47943   0.00000  Uiso   1.00
C96    C     0.24882   0.00784   0.53141   0.00000  Uiso   1.00
C97    C     0.31867   0.05047   0.61731   0.00000  Uiso   1.00
C98    C     0.05792   0.73836   0.38668   0.00000  Uiso   1.00
C99    C     0.94965   0.75873   0.36238   0.00000  Uiso   1.00
C100   C     0.88221   0.62531   0.36083   0.00000  Uiso   1.00
C101   C     0.73991   0.44655   0.34799   0.00000  Uiso   1.00
C102   C     0.23442   0.79754   0.36914   0.00000  Uiso   1.00
C103   C     0.27454   0.86764   0.33008   0.00000  Uiso   1.00
C104   C     0.35569   0.78403   0.31376   0.00000  Uiso   1.00
C105   C     0.48742   0.69715   0.27368   0.00000  Uiso   1.00
C106   C     0.21843   0.59486   0.43323   0.00000  Uiso   1.00
C107   C     0.23409   0.73258   0.47222   0.00000  Uiso   1.00
C108   C     0.28170   0.71899   0.52417   0.00000  Uiso   1.00
C109   C     0.28841   0.85921   0.55341   0.00000  Uiso   1.00
C110   C     0.09742   0.59000   0.40864   0.00000  Uiso   1.00
C111   C     0.03013   0.45652   0.40712   0.00000  Uiso   1.00
C112   C     0.92179   0.47668   0.38283   0.00000  Uiso   1.00
C113   C     0.27393   0.64918   0.39110   0.00000  Uiso   1.00
C114   C     0.35502   0.56543   0.37483   0.00000  Uiso   1.00
C115   C     0.39526   0.63540   0.33576   0.00000  Uiso   1.00
H116   H     0.11493   0.98352   0.37569   0.00000  Uiso   1.00
H117   H     0.17063   0.13600   0.46242   0.00000  Uiso   1.00
H118   H     0.91910   0.87355   0.34538   0.00000  Uiso   1.00
H119   H     0.24395   0.98246   0.31310   0.00000  Uiso   1.00
H120   H     0.24976   0.23961   0.56827   0.00000  Uiso   1.00
H121   H     0.71942   0.68622   0.32148   0.00000  Uiso   1.00
H122   H     0.40441   0.91586   0.25339   0.00000  Uiso   1.00
H123   H     0.24919   0.47935   0.45033   0.00000  Uiso   1.00
H124   H     0.31226   0.60416   0.54116   0.00000  Uiso   1.00
H125   H     0.06073   0.34172   0.42412   0.00000  Uiso   1.00
H126   H     0.38557   0.45062   0.39183   0.00000  Uiso   1.00
H127   H     0.36472   0.80795   0.63217   0.00000  Uiso   1.00
H128   H     0.83437   0.25456   0.38538   0.00000  Uiso   1.00
H129   H     0.51936   0.48420   0.31730   0.00000  Uiso   1.00
O130   O     0.34627   0.11497   0.65863   0.00000  Uiso   1.00
O131   O     0.65049   0.38894   0.33484   0.00000  Uiso   1.00
O132   O     0.54918   0.69023   0.24551   0.00000  Uiso   1.00
N133   N     0.26818   0.12089   0.57084   0.00000  Uiso   1.00
N134   N     0.77234   0.60351   0.34011   0.00000  Uiso   1.00
N135   N     0.41273   0.81819   0.27645   0.00000  Uiso   1.00
N136   N     0.33004   0.88862   0.60523   0.00000  Uiso   1.00
N137   N     0.83420   0.37124   0.37450   0.00000  Uiso   1.00
N138   N     0.47458   0.58592   0.31083   0.00000  Uiso   1.00
C139   C     0.85431   0.36802   0.10721   0.00000  Uiso   1.00
C140   C     0.80542   0.38095   0.04974   0.00000  Uiso   1.00
C141   C     0.79878   0.52121   0.02057   0.00000  Uiso   1.00
C142   C     0.75118   0.50784   0.96859   0.00000  Uiso   1.00
C143   C     0.68133   0.55047   0.88269   0.00000  Uiso   1.00
C144   C     0.94208   0.23836   0.11332   0.00000  Uiso   1.00
C145   C     0.05035   0.25873   0.13762   0.00000  Uiso   1.00
C146   C     0.11779   0.12531   0.13917   0.00000  Uiso   1.00
C147   C     0.26009   0.94655   0.15201   0.00000  Uiso   1.00
C148   C     0.76558   0.29754   0.13086   0.00000  Uiso   1.00
C149   C     0.72546   0.36764   0.16992   0.00000  Uiso   1.00
C150   C     0.64431   0.28403   0.18624   0.00000  Uiso   1.00
C151   C     0.51258   0.19715   0.22632   0.00000  Uiso   1.00
C152   C     0.78157   0.09486   0.06677   0.00000  Uiso   1.00
C153   C     0.76591   0.23258   0.02778   0.00000  Uiso   1.00
C154   C     0.71830   0.21899   0.97583   0.00000  Uiso   1.00
C155   C     0.71159   0.35921   0.94659   0.00000  Uiso   1.00
C156   C     0.90258   0.09000   0.09136   0.00000  Uiso   1.00
C157   C     0.96987   0.95652   0.09288   0.00000  Uiso   1.00
C158   C     0.07821   0.97668   0.11717   0.00000  Uiso   1.00
C159   C     0.72607   0.14918   0.10890   0.00000  Uiso   1.00
C160   C     0.64498   0.06543   0.12517   0.00000  Uiso   1.00
C161   C     0.60474   0.13540   0.16424   0.00000  Uiso   1.00
H162   H     0.88507   0.48352   0.12431   0.00000  Uiso   1.00
H163   H     0.82937   0.63600   0.03758   0.00000  Uiso   1.00
H164   H     0.08090   0.37355   0.15462   0.00000  Uiso   1.00
H165   H     0.75605   0.48246   0.18690   0.00000  Uiso   1.00
H166   H     0.75024   0.73961   0.93173   0.00000  Uiso   1.00
H167   H     0.28058   0.18622   0.17852   0.00000  Uiso   1.00
H168   H     0.59559   0.41586   0.24661   0.00000  Uiso   1.00
H169   H     0.75081   0.97935   0.04967   0.00000  Uiso   1.00
H170   H     0.68774   0.10416   0.95884   0.00000  Uiso   1.00
H171   H     0.93927   0.84172   0.07588   0.00000  Uiso   1.00
H172   H     0.61443   0.95062   0.10817   0.00000  Uiso   1.00
H173   H     0.63528   0.30795   0.86783   0.00000  Uiso   1.00
H174   H     0.16563   0.75456   0.11462   0.00000  Uiso   1.00
H175   H     0.48064   0.98420   0.18270   0.00000  Uiso   1.00
O176   O     0.65373   0.61497   0.84137   0.00000  Uiso   1.00
O177   O     0.34951   0.88894   0.16516   0.00000  Uiso   1.00
O178   O     0.45082   0.19023   0.25449   0.00000  Uiso   1.00
N179   N     0.73182   0.62089   0.92916   0.00000  Uiso   1.00
N180   N     0.22766   0.10351   0.15989   0.00000  Uiso   1.00
N181   N     0.58727   0.31819   0.22355   0.00000  Uiso   1.00
N182   N     0.66996   0.38862   0.89477   0.00000  Uiso   1.00
N183   N     0.16580   0.87124   0.12550   0.00000  Uiso   1.00
N184   N     0.52542   0.08592   0.18917   0.00000  Uiso   1.00
