data_job_02178
_audit_creation_date              2018-12-19
_audit_creation_method            'Materials Studio'
_symmetry_space_group_name_H-M    'P1'
_symmetry_Int_Tables_number       1
_symmetry_cell_setting            triclinic
loop_
_symmetry_equiv_pos_as_xyz
  x,y,z
_cell_length_a                    22.8673
_cell_length_b                    24.8266
_cell_length_c                    10.4476
_cell_angle_alpha                 90.0000
_cell_angle_beta                  90.0000
_cell_angle_gamma                 90.0000
loop_
_atom_site_label
_atom_site_type_symbol
_atom_site_fract_x
_atom_site_fract_y
_atom_site_fract_z
_atom_site_U_iso_or_equiv
_atom_site_adp_type
_atom_site_occupancy
C1     C     0.65763   0.38203   0.49618   0.00000  Uiso   1.00
C2     C     0.71540   0.35315   0.47160   0.00000  Uiso   1.00
C3     C     0.72965   0.32442   0.36200   0.00000  Uiso   1.00
C4     C     0.78472   0.30093   0.35798   0.00000  Uiso   1.00
C5     C     0.86843   0.25529   0.30431   0.00000  Uiso   1.00
C6     C     0.63379   0.35885   0.62089   0.00000  Uiso   1.00
C7     C     0.57942   0.33493   0.63681   0.00000  Uiso   1.00
C8     C     0.56579   0.31626   0.75847   0.00000  Uiso   1.00
C9     C     0.52278   0.27951   0.93659   0.00000  Uiso   1.00
C10    C     0.67335   0.44049   0.52475   0.00000  Uiso   1.00
C11    C     0.65222   0.48522   0.45986   0.00000  Uiso   1.00
C12    C     0.67188   0.53528   0.50059   0.00000  Uiso   1.00
C13    C     0.69028   0.62530   0.52945   0.00000  Uiso   1.00
C14    C     0.73009   0.39140   0.68394   0.00000  Uiso   1.00
C15    C     0.75476   0.35824   0.57358   0.00000  Uiso   1.00
C16    C     0.80982   0.33479   0.56973   0.00000  Uiso   1.00
C17    C     0.82415   0.30603   0.46014   0.00000  Uiso   1.00
C18    C     0.67315   0.36394   0.72287   0.00000  Uiso   1.00
C19    C     0.65959   0.34530   0.84453   0.00000  Uiso   1.00
C20    C     0.60522   0.32135   0.86063   0.00000  Uiso   1.00
C21    C     0.71271   0.44558   0.62673   0.00000  Uiso   1.00
C22    C     0.73239   0.49559   0.66758   0.00000  Uiso   1.00
C23    C     0.71131   0.54038   0.60276   0.00000  Uiso   1.00
H24    H     0.62698   0.37806   0.41680   0.00000  Uiso   1.00
H25    H     0.69918   0.32049   0.28310   0.00000  Uiso   1.00
H26    H     0.54897   0.33101   0.55787   0.00000  Uiso   1.00
H27    H     0.62176   0.48127   0.38094   0.00000  Uiso   1.00
H28    H     0.79657   0.25888   0.17987   0.00000  Uiso   1.00
H29    H     0.47984   0.28107   0.75925   0.00000  Uiso   1.00
H30    H     0.63333   0.59793   0.38616   0.00000  Uiso   1.00
H31    H     0.76073   0.39536   0.76334   0.00000  Uiso   1.00
H32    H     0.84027   0.33873   0.64866   0.00000  Uiso   1.00
H33    H     0.69006   0.34925   0.92343   0.00000  Uiso   1.00
H34    H     0.76285   0.49951   0.74650   0.00000  Uiso   1.00
H35    H     0.91108   0.27369   0.47658   0.00000  Uiso   1.00
H36    H     0.59435   0.29588   0.05595   0.00000  Uiso   1.00
H37    H     0.74785   0.61274   0.68286   0.00000  Uiso   1.00
O38    O     0.90373   0.22871   0.24655   0.00000  Uiso   1.00
O39    O     0.48819   0.25783   0.00667   0.00000  Uiso   1.00
O40    O     0.68957   0.67354   0.51718   0.00000  Uiso   1.00
N41    N     0.81261   0.27015   0.26543   0.00000  Uiso   1.00
N42    N     0.51649   0.29089   0.80710   0.00000  Uiso   1.00
N43    N     0.65998   0.58713   0.45832   0.00000  Uiso   1.00
N44    N     0.87423   0.27812   0.42508   0.00000  Uiso   1.00
N45    N     0.57811   0.29885   0.96676   0.00000  Uiso   1.00
N46    N     0.72160   0.59509   0.61798   0.00000  Uiso   1.00
C47    C     0.84237   0.61797   0.99618   0.00000  Uiso   1.00
C48    C     0.78460   0.64685   0.97160   0.00000  Uiso   1.00
C49    C     0.77035   0.67558   0.86200   0.00000  Uiso   1.00
C50    C     0.71528   0.69907   0.85798   0.00000  Uiso   1.00
C51    C     0.63157   0.74471   0.80431   0.00000  Uiso   1.00
C52    C     0.86621   0.64115   0.12089   0.00000  Uiso   1.00
C53    C     0.92058   0.66507   0.13681   0.00000  Uiso   1.00
C54    C     0.93421   0.68374   0.25847   0.00000  Uiso   1.00
C55    C     0.97722   0.72049   0.43659   0.00000  Uiso   1.00
C56    C     0.82665   0.55951   0.02475   0.00000  Uiso   1.00
C57    C     0.84778   0.51478   0.95986   0.00000  Uiso   1.00
C58    C     0.82812   0.46472   0.00059   0.00000  Uiso   1.00
C59    C     0.80972   0.37470   0.02945   0.00000  Uiso   1.00
C60    C     0.76991   0.60860   0.18394   0.00000  Uiso   1.00
C61    C     0.74524   0.64176   0.07358   0.00000  Uiso   1.00
C62    C     0.69018   0.66521   0.06973   0.00000  Uiso   1.00
C63    C     0.67585   0.69397   0.96014   0.00000  Uiso   1.00
C64    C     0.82685   0.63606   0.22287   0.00000  Uiso   1.00
C65    C     0.84041   0.65470   0.34453   0.00000  Uiso   1.00
C66    C     0.89478   0.67865   0.36063   0.00000  Uiso   1.00
C67    C     0.78729   0.55442   0.12673   0.00000  Uiso   1.00
C68    C     0.76761   0.50441   0.16758   0.00000  Uiso   1.00
C69    C     0.78869   0.45962   0.10276   0.00000  Uiso   1.00
H70    H     0.87302   0.62194   0.91680   0.00000  Uiso   1.00
H71    H     0.80082   0.67951   0.78310   0.00000  Uiso   1.00
H72    H     0.95103   0.66899   0.05787   0.00000  Uiso   1.00
H73    H     0.87824   0.51873   0.88094   0.00000  Uiso   1.00
H74    H     0.70343   0.74112   0.67987   0.00000  Uiso   1.00
H75    H     0.02016   0.71893   0.25925   0.00000  Uiso   1.00
H76    H     0.86667   0.40207   0.88616   0.00000  Uiso   1.00
H77    H     0.73927   0.60464   0.26334   0.00000  Uiso   1.00
H78    H     0.65973   0.66127   0.14866   0.00000  Uiso   1.00
H79    H     0.80994   0.65075   0.42343   0.00000  Uiso   1.00
H80    H     0.73715   0.50049   0.24650   0.00000  Uiso   1.00
H81    H     0.58892   0.72631   0.97658   0.00000  Uiso   1.00
H82    H     0.90565   0.70412   0.55595   0.00000  Uiso   1.00
H83    H     0.75215   0.38726   0.18286   0.00000  Uiso   1.00
O84    O     0.59627   0.77129   0.74655   0.00000  Uiso   1.00
O85    O     0.01181   0.74217   0.50667   0.00000  Uiso   1.00
O86    O     0.81043   0.32646   0.01718   0.00000  Uiso   1.00
N87    N     0.68739   0.72985   0.76543   0.00000  Uiso   1.00
N88    N     0.98351   0.70911   0.30710   0.00000  Uiso   1.00
N89    N     0.84002   0.41287   0.95832   0.00000  Uiso   1.00
N90    N     0.62577   0.72188   0.92508   0.00000  Uiso   1.00
N91    N     0.92189   0.70115   0.46676   0.00000  Uiso   1.00
N92    N     0.77840   0.40491   0.11798   0.00000  Uiso   1.00
C93    C     0.34237   0.88203   0.00382   0.00000  Uiso   1.00
C94    C     0.28460   0.85315   0.02840   0.00000  Uiso   1.00
C95    C     0.27035   0.82442   0.13800   0.00000  Uiso   1.00
C96    C     0.21528   0.80093   0.14202   0.00000  Uiso   1.00
C97    C     0.13157   0.75529   0.19569   0.00000  Uiso   1.00
C98    C     0.36621   0.85885   0.87911   0.00000  Uiso   1.00
C99    C     0.42058   0.83493   0.86319   0.00000  Uiso   1.00
C100   C     0.43421   0.81626   0.74153   0.00000  Uiso   1.00
C101   C     0.47722   0.77951   0.56341   0.00000  Uiso   1.00
C102   C     0.32665   0.94049   0.97525   0.00000  Uiso   1.00
C103   C     0.34778   0.98522   0.04014   0.00000  Uiso   1.00
C104   C     0.32812   0.03528   0.99941   0.00000  Uiso   1.00
C105   C     0.30972   0.12530   0.97055   0.00000  Uiso   1.00
C106   C     0.26991   0.89140   0.81606   0.00000  Uiso   1.00
C107   C     0.24524   0.85824   0.92642   0.00000  Uiso   1.00
C108   C     0.19018   0.83479   0.93027   0.00000  Uiso   1.00
C109   C     0.17585   0.80603   0.03986   0.00000  Uiso   1.00
C110   C     0.32685   0.86394   0.77713   0.00000  Uiso   1.00
C111   C     0.34041   0.84530   0.65547   0.00000  Uiso   1.00
C112   C     0.39478   0.82135   0.63937   0.00000  Uiso   1.00
C113   C     0.28729   0.94558   0.87327   0.00000  Uiso   1.00
C114   C     0.26761   0.99559   0.83242   0.00000  Uiso   1.00
C115   C     0.28869   0.04038   0.89724   0.00000  Uiso   1.00
H116   H     0.37302   0.87806   0.08320   0.00000  Uiso   1.00
H117   H     0.30082   0.82049   0.21690   0.00000  Uiso   1.00
H118   H     0.45103   0.83101   0.94213   0.00000  Uiso   1.00
H119   H     0.37824   0.98127   0.11906   0.00000  Uiso   1.00
H120   H     0.20343   0.75888   0.32013   0.00000  Uiso   1.00
H121   H     0.52016   0.78107   0.74075   0.00000  Uiso   1.00
H122   H     0.36667   0.09793   0.11384   0.00000  Uiso   1.00
H123   H     0.23927   0.89536   0.73666   0.00000  Uiso   1.00
H124   H     0.15973   0.83873   0.85134   0.00000  Uiso   1.00
H125   H     0.30994   0.84925   0.57657   0.00000  Uiso   1.00
H126   H     0.23715   0.99951   0.75350   0.00000  Uiso   1.00
H127   H     0.08892   0.77369   0.02342   0.00000  Uiso   1.00
H128   H     0.40565   0.79588   0.44405   0.00000  Uiso   1.00
H129   H     0.25215   0.11274   0.81714   0.00000  Uiso   1.00
O130   O     0.09627   0.72871   0.25345   0.00000  Uiso   1.00
O131   O     0.51181   0.75783   0.49333   0.00000  Uiso   1.00
O132   O     0.31043   0.17354   0.98282   0.00000  Uiso   1.00
N133   N     0.18739   0.77015   0.23457   0.00000  Uiso   1.00
N134   N     0.48351   0.79089   0.69290   0.00000  Uiso   1.00
N135   N     0.34002   0.08713   0.04168   0.00000  Uiso   1.00
N136   N     0.12577   0.77812   0.07492   0.00000  Uiso   1.00
N137   N     0.42189   0.79885   0.53324   0.00000  Uiso   1.00
N138   N     0.27840   0.09509   0.88202   0.00000  Uiso   1.00
C139   C     0.15763   0.11797   0.50382   0.00000  Uiso   1.00
C140   C     0.21540   0.14685   0.52840   0.00000  Uiso   1.00
C141   C     0.22965   0.17558   0.63800   0.00000  Uiso   1.00
C142   C     0.28472   0.19907   0.64202   0.00000  Uiso   1.00
C143   C     0.36843   0.24471   0.69569   0.00000  Uiso   1.00
C144   C     0.13379   0.14115   0.37911   0.00000  Uiso   1.00
C145   C     0.07942   0.16507   0.36319   0.00000  Uiso   1.00
C146   C     0.06579   0.18374   0.24153   0.00000  Uiso   1.00
C147   C     0.02278   0.22049   0.06341   0.00000  Uiso   1.00
C148   C     0.17335   0.05951   0.47525   0.00000  Uiso   1.00
C149   C     0.15222   0.01478   0.54014   0.00000  Uiso   1.00
C150   C     0.17188   0.96472   0.49941   0.00000  Uiso   1.00
C151   C     0.19028   0.87470   0.47055   0.00000  Uiso   1.00
C152   C     0.23009   0.10860   0.31606   0.00000  Uiso   1.00
C153   C     0.25476   0.14176   0.42642   0.00000  Uiso   1.00
C154   C     0.30982   0.16521   0.43027   0.00000  Uiso   1.00
C155   C     0.32415   0.19397   0.53986   0.00000  Uiso   1.00
C156   C     0.17315   0.13606   0.27713   0.00000  Uiso   1.00
C157   C     0.15959   0.15470   0.15547   0.00000  Uiso   1.00
C158   C     0.10522   0.17865   0.13937   0.00000  Uiso   1.00
C159   C     0.21271   0.05442   0.37327   0.00000  Uiso   1.00
C160   C     0.23239   0.00441   0.33242   0.00000  Uiso   1.00
C161   C     0.21131   0.95962   0.39724   0.00000  Uiso   1.00
H162   H     0.12698   0.12194   0.58320   0.00000  Uiso   1.00
H163   H     0.19918   0.17951   0.71690   0.00000  Uiso   1.00
H164   H     0.04897   0.16899   0.44213   0.00000  Uiso   1.00
H165   H     0.12176   0.01873   0.61906   0.00000  Uiso   1.00
H166   H     0.29657   0.24112   0.82013   0.00000  Uiso   1.00
H167   H     0.97984   0.21893   0.24075   0.00000  Uiso   1.00
H168   H     0.13333   0.90207   0.61384   0.00000  Uiso   1.00
H169   H     0.26073   0.10464   0.23666   0.00000  Uiso   1.00
H170   H     0.34027   0.16127   0.35134   0.00000  Uiso   1.00
H171   H     0.19006   0.15075   0.07657   0.00000  Uiso   1.00
H172   H     0.26285   0.00049   0.25350   0.00000  Uiso   1.00
H173   H     0.41108   0.22631   0.52342   0.00000  Uiso   1.00
H174   H     0.09435   0.20412   0.94405   0.00000  Uiso   1.00
H175   H     0.24785   0.88726   0.31714   0.00000  Uiso   1.00
O176   O     0.40373   0.27129   0.75345   0.00000  Uiso   1.00
O177   O     0.98819   0.24217   0.99333   0.00000  Uiso   1.00
O178   O     0.18957   0.82646   0.48282   0.00000  Uiso   1.00
N179   N     0.31261   0.22985   0.73457   0.00000  Uiso   1.00
N180   N     0.01649   0.20911   0.19290   0.00000  Uiso   1.00
N181   N     0.15998   0.91287   0.54168   0.00000  Uiso   1.00
N182   N     0.37423   0.22188   0.57492   0.00000  Uiso   1.00
N183   N     0.07811   0.20115   0.03324   0.00000  Uiso   1.00
N184   N     0.22160   0.90491   0.38202   0.00000  Uiso   1.00
C185   C     0.34237   0.61797   0.50382   0.00000  Uiso   1.00
C186   C     0.28460   0.64685   0.52840   0.00000  Uiso   1.00
C187   C     0.27035   0.67558   0.63800   0.00000  Uiso   1.00
C188   C     0.21528   0.69907   0.64202   0.00000  Uiso   1.00
C189   C     0.13157   0.74471   0.69569   0.00000  Uiso   1.00
C190   C     0.36621   0.64115   0.37911   0.00000  Uiso   1.00
C191   C     0.42058   0.66507   0.36319   0.00000  Uiso   1.00
C192   C     0.43421   0.68374   0.24153   0.00000  Uiso   1.00
C193   C     0.47722   0.72049   0.06341   0.00000  Uiso   1.00
C194   C     0.32665   0.55951   0.47525   0.00000  Uiso   1.00
C195   C     0.34778   0.51478   0.54014   0.00000  Uiso   1.00
C196   C     0.32812   0.46472   0.49941   0.00000  Uiso   1.00
C197   C     0.30972   0.37470   0.47055   0.00000  Uiso   1.00
C198   C     0.26991   0.60860   0.31606   0.00000  Uiso   1.00
C199   C     0.24524   0.64176   0.42642   0.00000  Uiso   1.00
C200   C     0.19018   0.66521   0.43027   0.00000  Uiso   1.00
C201   C     0.17585   0.69397   0.53986   0.00000  Uiso   1.00
C202   C     0.32685   0.63606   0.27713   0.00000  Uiso   1.00
C203   C     0.34041   0.65470   0.15547   0.00000  Uiso   1.00
C204   C     0.39478   0.67865   0.13937   0.00000  Uiso   1.00
C205   C     0.28729   0.55442   0.37327   0.00000  Uiso   1.00
C206   C     0.26761   0.50441   0.33242   0.00000  Uiso   1.00
C207   C     0.28869   0.45962   0.39724   0.00000  Uiso   1.00
H208   H     0.37302   0.62194   0.58320   0.00000  Uiso   1.00
H209   H     0.30082   0.67951   0.71690   0.00000  Uiso   1.00
H210   H     0.45103   0.66899   0.44213   0.00000  Uiso   1.00
H211   H     0.37824   0.51873   0.61906   0.00000  Uiso   1.00
H212   H     0.20343   0.74112   0.82013   0.00000  Uiso   1.00
H213   H     0.52016   0.71893   0.24075   0.00000  Uiso   1.00
H214   H     0.36667   0.40207   0.61384   0.00000  Uiso   1.00
H215   H     0.23927   0.60464   0.23666   0.00000  Uiso   1.00
H216   H     0.15973   0.66127   0.35134   0.00000  Uiso   1.00
H217   H     0.30994   0.65075   0.07657   0.00000  Uiso   1.00
H218   H     0.23715   0.50049   0.25350   0.00000  Uiso   1.00
H219   H     0.08892   0.72631   0.52342   0.00000  Uiso   1.00
H220   H     0.40565   0.70412   0.94405   0.00000  Uiso   1.00
H221   H     0.25215   0.38726   0.31714   0.00000  Uiso   1.00
O222   O     0.09627   0.77129   0.75345   0.00000  Uiso   1.00
O223   O     0.51181   0.74217   0.99333   0.00000  Uiso   1.00
O224   O     0.31043   0.32646   0.48282   0.00000  Uiso   1.00
N225   N     0.18739   0.72985   0.73457   0.00000  Uiso   1.00
N226   N     0.48351   0.70911   0.19290   0.00000  Uiso   1.00
N227   N     0.34002   0.41287   0.54168   0.00000  Uiso   1.00
N228   N     0.12577   0.72188   0.57492   0.00000  Uiso   1.00
N229   N     0.42189   0.70115   0.03324   0.00000  Uiso   1.00
N230   N     0.27840   0.40491   0.38202   0.00000  Uiso   1.00
C231   C     0.15763   0.38203   0.00382   0.00000  Uiso   1.00
C232   C     0.21540   0.35315   0.02840   0.00000  Uiso   1.00
C233   C     0.22965   0.32442   0.13800   0.00000  Uiso   1.00
C234   C     0.28472   0.30093   0.14202   0.00000  Uiso   1.00
C235   C     0.36843   0.25529   0.19569   0.00000  Uiso   1.00
C236   C     0.13379   0.35885   0.87911   0.00000  Uiso   1.00
C237   C     0.07942   0.33493   0.86319   0.00000  Uiso   1.00
C238   C     0.06579   0.31626   0.74153   0.00000  Uiso   1.00
C239   C     0.02278   0.27951   0.56341   0.00000  Uiso   1.00
C240   C     0.17335   0.44049   0.97525   0.00000  Uiso   1.00
C241   C     0.15222   0.48522   0.04014   0.00000  Uiso   1.00
C242   C     0.17188   0.53528   0.99941   0.00000  Uiso   1.00
C243   C     0.19028   0.62530   0.97055   0.00000  Uiso   1.00
C244   C     0.23009   0.39140   0.81606   0.00000  Uiso   1.00
C245   C     0.25476   0.35824   0.92642   0.00000  Uiso   1.00
C246   C     0.30982   0.33479   0.93027   0.00000  Uiso   1.00
C247   C     0.32415   0.30603   0.03986   0.00000  Uiso   1.00
C248   C     0.17315   0.36394   0.77713   0.00000  Uiso   1.00
C249   C     0.15959   0.34530   0.65547   0.00000  Uiso   1.00
C250   C     0.10522   0.32135   0.63937   0.00000  Uiso   1.00
C251   C     0.21271   0.44558   0.87327   0.00000  Uiso   1.00
C252   C     0.23239   0.49559   0.83242   0.00000  Uiso   1.00
C253   C     0.21131   0.54038   0.89724   0.00000  Uiso   1.00
H254   H     0.12698   0.37806   0.08320   0.00000  Uiso   1.00
H255   H     0.19918   0.32049   0.21690   0.00000  Uiso   1.00
H256   H     0.04897   0.33101   0.94213   0.00000  Uiso   1.00
H257   H     0.12176   0.48127   0.11906   0.00000  Uiso   1.00
H258   H     0.29657   0.25888   0.32013   0.00000  Uiso   1.00
H259   H     0.97984   0.28107   0.74075   0.00000  Uiso   1.00
H260   H     0.13333   0.59793   0.11384   0.00000  Uiso   1.00
H261   H     0.26073   0.39536   0.73666   0.00000  Uiso   1.00
H262   H     0.34027   0.33873   0.85134   0.00000  Uiso   1.00
H263   H     0.19006   0.34925   0.57657   0.00000  Uiso   1.00
H264   H     0.26285   0.49951   0.75350   0.00000  Uiso   1.00
H265   H     0.41108   0.27369   0.02342   0.00000  Uiso   1.00
H266   H     0.09435   0.29588   0.44405   0.00000  Uiso   1.00
H267   H     0.24785   0.61274   0.81714   0.00000  Uiso   1.00
O268   O     0.40373   0.22871   0.25345   0.00000  Uiso   1.00
O269   O     0.98819   0.25783   0.49333   0.00000  Uiso   1.00
O270   O     0.18957   0.67354   0.98282   0.00000  Uiso   1.00
N271   N     0.31261   0.27015   0.23457   0.00000  Uiso   1.00
N272   N     0.01649   0.29089   0.69290   0.00000  Uiso   1.00
N273   N     0.15998   0.58713   0.04168   0.00000  Uiso   1.00
N274   N     0.37423   0.27812   0.07492   0.00000  Uiso   1.00
N275   N     0.07811   0.29885   0.53324   0.00000  Uiso   1.00
N276   N     0.22160   0.59509   0.88202   0.00000  Uiso   1.00
C277   C     0.65763   0.11797   0.99618   0.00000  Uiso   1.00
C278   C     0.71540   0.14685   0.97160   0.00000  Uiso   1.00
C279   C     0.72965   0.17558   0.86200   0.00000  Uiso   1.00
C280   C     0.78472   0.19907   0.85798   0.00000  Uiso   1.00
C281   C     0.86843   0.24471   0.80431   0.00000  Uiso   1.00
C282   C     0.63379   0.14115   0.12089   0.00000  Uiso   1.00
C283   C     0.57942   0.16507   0.13681   0.00000  Uiso   1.00
C284   C     0.56579   0.18374   0.25847   0.00000  Uiso   1.00
C285   C     0.52278   0.22049   0.43659   0.00000  Uiso   1.00
C286   C     0.67335   0.05951   0.02475   0.00000  Uiso   1.00
C287   C     0.65222   0.01478   0.95986   0.00000  Uiso   1.00
C288   C     0.67188   0.96472   0.00059   0.00000  Uiso   1.00
C289   C     0.69028   0.87470   0.02945   0.00000  Uiso   1.00
C290   C     0.73009   0.10860   0.18394   0.00000  Uiso   1.00
C291   C     0.75476   0.14176   0.07358   0.00000  Uiso   1.00
C292   C     0.80982   0.16521   0.06973   0.00000  Uiso   1.00
C293   C     0.82415   0.19397   0.96014   0.00000  Uiso   1.00
C294   C     0.67315   0.13606   0.22287   0.00000  Uiso   1.00
C295   C     0.65959   0.15470   0.34453   0.00000  Uiso   1.00
C296   C     0.60522   0.17865   0.36063   0.00000  Uiso   1.00
C297   C     0.71271   0.05442   0.12673   0.00000  Uiso   1.00
C298   C     0.73239   0.00441   0.16758   0.00000  Uiso   1.00
C299   C     0.71131   0.95962   0.10276   0.00000  Uiso   1.00
H300   H     0.62698   0.12194   0.91680   0.00000  Uiso   1.00
H301   H     0.69918   0.17951   0.78310   0.00000  Uiso   1.00
H302   H     0.54897   0.16899   0.05787   0.00000  Uiso   1.00
H303   H     0.62176   0.01873   0.88094   0.00000  Uiso   1.00
H304   H     0.79657   0.24112   0.67987   0.00000  Uiso   1.00
H305   H     0.47984   0.21893   0.25925   0.00000  Uiso   1.00
H306   H     0.63333   0.90207   0.88616   0.00000  Uiso   1.00
H307   H     0.76073   0.10464   0.26334   0.00000  Uiso   1.00
H308   H     0.84027   0.16127   0.14866   0.00000  Uiso   1.00
H309   H     0.69006   0.15075   0.42343   0.00000  Uiso   1.00
H310   H     0.76285   0.00049   0.24650   0.00000  Uiso   1.00
H311   H     0.91108   0.22631   0.97658   0.00000  Uiso   1.00
H312   H     0.59435   0.20412   0.55595   0.00000  Uiso   1.00
H313   H     0.74785   0.88726   0.18286   0.00000  Uiso   1.00
O314   O     0.90373   0.27129   0.74655   0.00000  Uiso   1.00
O315   O     0.48819   0.24217   0.50667   0.00000  Uiso   1.00
O316   O     0.68957   0.82646   0.01718   0.00000  Uiso   1.00
N317   N     0.81261   0.22985   0.76543   0.00000  Uiso   1.00
N318   N     0.51649   0.20911   0.30710   0.00000  Uiso   1.00
N319   N     0.65998   0.91287   0.95832   0.00000  Uiso   1.00
N320   N     0.87423   0.22188   0.92508   0.00000  Uiso   1.00
N321   N     0.57811   0.20115   0.46676   0.00000  Uiso   1.00
N322   N     0.72160   0.90491   0.11798   0.00000  Uiso   1.00
C323   C     0.84237   0.88203   0.49618   0.00000  Uiso   1.00
C324   C     0.78460   0.85315   0.47160   0.00000  Uiso   1.00
C325   C     0.77035   0.82442   0.36200   0.00000  Uiso   1.00
C326   C     0.71528   0.80093   0.35798   0.00000  Uiso   1.00
C327   C     0.63157   0.75529   0.30431   0.00000  Uiso   1.00
C328   C     0.86621   0.85885   0.62089   0.00000  Uiso   1.00
C329   C     0.92058   0.83493   0.63681   0.00000  Uiso   1.00
C330   C     0.93421   0.81626   0.75847   0.00000  Uiso   1.00
C331   C     0.97722   0.77951   0.93659   0.00000  Uiso   1.00
C332   C     0.82665   0.94049   0.52475   0.00000  Uiso   1.00
C333   C     0.84778   0.98522   0.45986   0.00000  Uiso   1.00
C334   C     0.82812   0.03528   0.50059   0.00000  Uiso   1.00
C335   C     0.80972   0.12530   0.52945   0.00000  Uiso   1.00
C336   C     0.76991   0.89140   0.68394   0.00000  Uiso   1.00
C337   C     0.74524   0.85824   0.57358   0.00000  Uiso   1.00
C338   C     0.69018   0.83479   0.56973   0.00000  Uiso   1.00
C339   C     0.67585   0.80603   0.46014   0.00000  Uiso   1.00
C340   C     0.82685   0.86394   0.72287   0.00000  Uiso   1.00
C341   C     0.84041   0.84530   0.84453   0.00000  Uiso   1.00
C342   C     0.89478   0.82135   0.86063   0.00000  Uiso   1.00
C343   C     0.78729   0.94558   0.62673   0.00000  Uiso   1.00
C344   C     0.76761   0.99559   0.66758   0.00000  Uiso   1.00
C345   C     0.78869   0.04038   0.60276   0.00000  Uiso   1.00
H346   H     0.87302   0.87806   0.41680   0.00000  Uiso   1.00
H347   H     0.80082   0.82049   0.28310   0.00000  Uiso   1.00
H348   H     0.95103   0.83101   0.55787   0.00000  Uiso   1.00
H349   H     0.87824   0.98127   0.38094   0.00000  Uiso   1.00
H350   H     0.70343   0.75888   0.17987   0.00000  Uiso   1.00
H351   H     0.02016   0.78107   0.75925   0.00000  Uiso   1.00
H352   H     0.86667   0.09793   0.38616   0.00000  Uiso   1.00
H353   H     0.73927   0.89536   0.76334   0.00000  Uiso   1.00
H354   H     0.65973   0.83873   0.64866   0.00000  Uiso   1.00
H355   H     0.80994   0.84925   0.92343   0.00000  Uiso   1.00
H356   H     0.73715   0.99951   0.74650   0.00000  Uiso   1.00
H357   H     0.58892   0.77369   0.47658   0.00000  Uiso   1.00
H358   H     0.90565   0.79588   0.05595   0.00000  Uiso   1.00
H359   H     0.75215   0.11274   0.68286   0.00000  Uiso   1.00
O360   O     0.59627   0.72871   0.24655   0.00000  Uiso   1.00
O361   O     0.01181   0.75783   0.00667   0.00000  Uiso   1.00
O362   O     0.81043   0.17354   0.51718   0.00000  Uiso   1.00
N363   N     0.68739   0.77015   0.26543   0.00000  Uiso   1.00
N364   N     0.98351   0.79089   0.80710   0.00000  Uiso   1.00
N365   N     0.84002   0.08713   0.45832   0.00000  Uiso   1.00
N366   N     0.62577   0.77812   0.42508   0.00000  Uiso   1.00
N367   N     0.92189   0.79885   0.96676   0.00000  Uiso   1.00
N368   N     0.77840   0.09509   0.61798   0.00000  Uiso   1.00
