data_job_06923
_audit_creation_date              2018-12-19
_audit_creation_method            'Materials Studio'
_symmetry_space_group_name_H-M    'P1'
_symmetry_Int_Tables_number       1
_symmetry_cell_setting            triclinic
loop_
_symmetry_equiv_pos_as_xyz
  x,y,z
_cell_length_a                    21.0306
_cell_length_b                    22.3063
_cell_length_c                    23.8675
_cell_angle_alpha                 117.1314
_cell_angle_beta                  114.7244
_cell_angle_gamma                 89.8115
loop_
_atom_site_label
_atom_site_type_symbol
_atom_site_fract_x
_atom_site_fract_y
_atom_site_fract_z
_atom_site_U_iso_or_equiv
_atom_site_adp_type
_atom_site_occupancy
C1     C     0.52779   0.19515   0.03835   0.00000  Uiso   1.00
C2     C     0.51577   0.24860   0.01410   0.00000  Uiso   1.00
C3     C     0.53761   0.25246   0.96820   0.00000  Uiso   1.00
C4     C     0.52151   0.30516   0.95258   0.00000  Uiso   1.00
C5     C     0.50845   0.38101   0.91050   0.00000  Uiso   1.00
C6     C     0.56790   0.23625   0.11956   0.00000  Uiso   1.00
C7     C     0.63358   0.22971   0.16233   0.00000  Uiso   1.00
C8     C     0.66136   0.27202   0.23548   0.00000  Uiso   1.00
C9     C     0.72921   0.32865   0.35712   0.00000  Uiso   1.00
C10    C     0.45348   0.16005   0.01832   0.00000  Uiso   1.00
C11    C     0.42296   0.08945   0.97598   0.00000  Uiso   1.00
C12    C     0.35442   0.06760   0.96390   0.00000  Uiso   1.00
C13    C     0.24462   0.00593   0.92836   0.00000  Uiso   1.00
C14    C     0.46034   0.28189   0.09222   0.00000  Uiso   1.00
C15    C     0.47913   0.29571   0.04336   0.00000  Uiso   1.00
C16    C     0.46299   0.34843   0.02780   0.00000  Uiso   1.00
C17    C     0.48481   0.35236   0.98188   0.00000  Uiso   1.00
C18    C     0.53127   0.28336   0.14881   0.00000  Uiso   1.00
C19    C     0.55895   0.32568   0.22192   0.00000  Uiso   1.00
C20    C     0.62466   0.31922   0.26479   0.00000  Uiso   1.00
C21    C     0.41684   0.20717   0.04757   0.00000  Uiso   1.00
C22    C     0.34834   0.18542   0.03557   0.00000  Uiso   1.00
C23    C     0.31771   0.11480   0.99322   0.00000  Uiso   1.00
H24    H     0.55632   0.15847   0.01558   0.00000  Uiso   1.00
H25    H     0.56597   0.21599   0.94558   0.00000  Uiso   1.00
H26    H     0.66192   0.19324   0.13967   0.00000  Uiso   1.00
H27    H     0.45133   0.05300   0.95335   0.00000  Uiso   1.00
H28    H     0.56055   0.30055   0.88089   0.00000  Uiso   1.00
H29    H     0.76284   0.25257   0.29015   0.00000  Uiso   1.00
H30    H     0.31878   0.95685   0.89725   0.00000  Uiso   1.00
H31    H     0.43181   0.31857   0.11500   0.00000  Uiso   1.00
H32    H     0.43464   0.38488   0.05045   0.00000  Uiso   1.00
H33    H     0.53059   0.36213   0.24454   0.00000  Uiso   1.00
H34    H     0.32000   0.22189   0.05822   0.00000  Uiso   1.00
H35    H     0.45395   0.43763   0.96601   0.00000  Uiso   1.00
H36    H     0.65625   0.38965   0.37527   0.00000  Uiso   1.00
H37    H     0.21218   0.09393   0.98237   0.00000  Uiso   1.00
O38    O     0.51137   0.40983   0.87921   0.00000  Uiso   1.00
O39    O     0.77677   0.34688   0.41614   0.00000  Uiso   1.00
O40    O     0.19417   0.95890   0.90066   0.00000  Uiso   1.00
N41    N     0.53506   0.32370   0.90977   0.00000  Uiso   1.00
N42    N     0.72420   0.27886   0.29240   0.00000  Uiso   1.00
N43    N     0.30904   0.00238   0.92509   0.00000  Uiso   1.00
N44    N     0.47770   0.39747   0.95557   0.00000  Uiso   1.00
N45    N     0.66684   0.35262   0.33820   0.00000  Uiso   1.00
N46    N     0.25169   0.07614   0.97089   0.00000  Uiso   1.00
C47    C     0.85348   0.82639   0.31341   0.00000  Uiso   1.00
C48    C     0.90134   0.85398   0.39277   0.00000  Uiso   1.00
C49    C     0.95367   0.91550   0.43964   0.00000  Uiso   1.00
C50    C     0.99170   0.93154   0.51017   0.00000  Uiso   1.00
C51    C     0.06815   0.98105   0.62992   0.00000  Uiso   1.00
C52    C     0.86542   0.75445   0.27512   0.00000  Uiso   1.00
C53    C     0.88755   0.73228   0.22307   0.00000  Uiso   1.00
C54    C     0.89534   0.66453   0.19455   0.00000  Uiso   1.00
C55    C     0.91598   0.55950   0.13161   0.00000  Uiso   1.00
C56    C     0.77619   0.81527   0.30106   0.00000  Uiso   1.00
C57    C     0.72328   0.84424   0.27080   0.00000  Uiso   1.00
C58    C     0.65594   0.82769   0.26411   0.00000  Uiso   1.00
C59    C     0.53804   0.81711   0.24144   0.00000  Uiso   1.00
C60    C     0.82797   0.74546   0.35531   0.00000  Uiso   1.00
C61    C     0.88748   0.81002   0.41552   0.00000  Uiso   1.00
C62    C     0.92545   0.82597   0.48600   0.00000  Uiso   1.00
C63    C     0.97782   0.88751   0.53297   0.00000  Uiso   1.00
C64    C     0.85157   0.71049   0.29788   0.00000  Uiso   1.00
C65    C     0.85933   0.64275   0.26942   0.00000  Uiso   1.00
C66    C     0.88146   0.62050   0.21735   0.00000  Uiso   1.00
C67    C     0.76234   0.77132   0.32382   0.00000  Uiso   1.00
C68    C     0.69507   0.75471   0.31716   0.00000  Uiso   1.00
C69    C     0.64206   0.78366   0.28690   0.00000  Uiso   1.00
H70    H     0.86426   0.86060   0.29569   0.00000  Uiso   1.00
H71    H     0.96438   0.94950   0.42201   0.00000  Uiso   1.00
H72    H     0.89826   0.76631   0.20547   0.00000  Uiso   1.00
H73    H     0.73402   0.87826   0.25320   0.00000  Uiso   1.00
H74    H     0.06928   0.02867   0.57209   0.00000  Uiso   1.00
H75    H     0.92984   0.64239   0.11547   0.00000  Uiso   1.00
H76    H     0.58351   0.87845   0.21612   0.00000  Uiso   1.00
H77    H     0.81718   0.71124   0.37303   0.00000  Uiso   1.00
H78    H     0.91472   0.79194   0.50359   0.00000  Uiso   1.00
H79    H     0.84860   0.60875   0.28705   0.00000  Uiso   1.00
H80    H     0.68436   0.72070   0.33478   0.00000  Uiso   1.00
H81    H     0.02898   0.90079   0.63830   0.00000  Uiso   1.00
H82    H     0.88954   0.51450   0.18168   0.00000  Uiso   1.00
H83    H     0.54321   0.75057   0.28234   0.00000  Uiso   1.00
O84    O     0.11416   0.02050   0.68969   0.00000  Uiso   1.00
O85    O     0.93121   0.51372   0.09061   0.00000  Uiso   1.00
O86    O     0.47684   0.82342   0.22267   0.00000  Uiso   1.00
N87    N     0.04640   0.98750   0.56976   0.00000  Uiso   1.00
N88    N     0.91605   0.62636   0.14286   0.00000  Uiso   1.00
N89    N     0.59225   0.84704   0.23694   0.00000  Uiso   1.00
N90    N     0.02471   0.91869   0.60539   0.00000  Uiso   1.00
N91    N     0.89436   0.55755   0.17849   0.00000  Uiso   1.00
N92    N     0.57057   0.77823   0.27257   0.00000  Uiso   1.00
C93    C     0.54326   0.67800   0.73079   0.00000  Uiso   1.00
C94    C     0.50763   0.60438   0.66814   0.00000  Uiso   1.00
C95    C     0.54269   0.55151   0.64919   0.00000  Uiso   1.00
C96    C     0.50051   0.48784   0.59012   0.00000  Uiso   1.00
C97    C     0.45654   0.37510   0.49871   0.00000  Uiso   1.00
C98    C     0.52285   0.72559   0.69940   0.00000  Uiso   1.00
C99    C     0.57072   0.77464   0.70674   0.00000  Uiso   1.00
C100   C     0.54135   0.81301   0.67399   0.00000  Uiso   1.00
C101   C     0.52100   0.88849   0.63115   0.00000  Uiso   1.00
C102   C     0.50522   0.69097   0.77602   0.00000  Uiso   1.00
C103   C     0.53827   0.71094   0.84780   0.00000  Uiso   1.00
C104   C     0.49406   0.72018   0.87957   0.00000  Uiso   1.00
C105   C     0.44635   0.74192   0.95570   0.00000  Uiso   1.00
C106   C     0.40599   0.65893   0.65959   0.00000  Uiso   1.00
C107   C     0.43307   0.59402   0.62947   0.00000  Uiso   1.00
C108   C     0.39082   0.53041   0.57042   0.00000  Uiso   1.00
C109   C     0.42582   0.47746   0.55138   0.00000  Uiso   1.00
C110   C     0.44830   0.71523   0.66073   0.00000  Uiso   1.00
C111   C     0.41885   0.75354   0.62797   0.00000  Uiso   1.00
C112   C     0.46665   0.80263   0.63525   0.00000  Uiso   1.00
C113   C     0.43067   0.68062   0.73735   0.00000  Uiso   1.00
C114   C     0.38640   0.68984   0.76902   0.00000  Uiso   1.00
C115   C     0.41937   0.70981   0.84082   0.00000  Uiso   1.00
H116   H     0.60130   0.68607   0.76089   0.00000  Uiso   1.00
H117   H     0.60040   0.55955   0.67913   0.00000  Uiso   1.00
H118   H     0.62841   0.78264   0.73667   0.00000  Uiso   1.00
H119   H     0.59597   0.71895   0.87770   0.00000  Uiso   1.00
H120   H     0.56651   0.41472   0.57140   0.00000  Uiso   1.00
H121   H     0.62558   0.88514   0.69276   0.00000  Uiso   1.00
H122   H     0.55717   0.75084   0.99016   0.00000  Uiso   1.00
H123   H     0.34794   0.65087   0.62948   0.00000  Uiso   1.00
H124   H     0.33313   0.52241   0.54050   0.00000  Uiso   1.00
H125   H     0.36115   0.74551   0.59805   0.00000  Uiso   1.00
H126   H     0.32870   0.68182   0.73908   0.00000  Uiso   1.00
H127   H     0.34959   0.38458   0.45888   0.00000  Uiso   1.00
H128   H     0.40866   0.85501   0.58025   0.00000  Uiso   1.00
H129   H     0.34025   0.72070   0.87764   0.00000  Uiso   1.00
O130   O     0.45288   0.31579   0.45896   0.00000  Uiso   1.00
O131   O     0.53038   0.93298   0.61820   0.00000  Uiso   1.00
O132   O     0.44063   0.75677   0.00837   0.00000  Uiso   1.00
N133   N     0.51749   0.42525   0.55714   0.00000  Uiso   1.00
N134   N     0.57272   0.86506   0.67060   0.00000  Uiso   1.00
N135   N     0.50876   0.73952   0.94864   0.00000  Uiso   1.00
N136   N     0.40076   0.40903   0.49660   0.00000  Uiso   1.00
N137   N     0.45600   0.84885   0.61005   0.00000  Uiso   1.00
N138   N     0.39204   0.72330   0.88810   0.00000  Uiso   1.00
C139   C     0.01237   0.14030   0.04297   0.00000  Uiso   1.00
C140   C     0.01877   0.21525   0.05945   0.00000  Uiso   1.00
C141   C     0.07558   0.27068   0.11665   0.00000  Uiso   1.00
C142   C     0.07134   0.33520   0.12238   0.00000  Uiso   1.00
C143   C     0.09027   0.45025   0.15550   0.00000  Uiso   1.00
C144   C     0.00256   0.09782   0.96740   0.00000  Uiso   1.00
C145   C     0.04575   0.05450   0.94721   0.00000  Uiso   1.00
C146   C     0.02785   0.02015   0.87545   0.00000  Uiso   1.00
C147   C     0.02159   0.95284   0.76566   0.00000  Uiso   1.00
C148   C     0.94137   0.11881   0.03934   0.00000  Uiso   1.00
C149   C     0.93310   0.09313   0.07963   0.00000  Uiso   1.00
C150   C     0.86368   0.07645   0.06843   0.00000  Uiso   1.00
C151   C     0.76241   0.04174   0.07034   0.00000  Uiso   1.00
C152   C     0.90380   0.15631   0.95143   0.00000  Uiso   1.00
C153   C     0.95980   0.22394   0.00972   0.00000  Uiso   1.00
C154   C     0.95547   0.28840   0.01537   0.00000  Uiso   1.00
C155   C     0.01226   0.34391   0.07257   0.00000  Uiso   1.00
C156   C     0.94360   0.10651   0.91768   0.00000  Uiso   1.00
C157   C     0.92563   0.07221   0.84593   0.00000  Uiso   1.00
C158   C     0.96878   0.02886   0.82564   0.00000  Uiso   1.00
C159   C     0.88240   0.12751   0.98962   0.00000  Uiso   1.00
C160   C     0.81298   0.11085   0.97835   0.00000  Uiso   1.00
C161   C     0.80460   0.08516   0.01862   0.00000  Uiso   1.00
H162   H     0.05828   0.13353   0.08168   0.00000  Uiso   1.00
H163   H     0.12121   0.26393   0.15511   0.00000  Uiso   1.00
H164   H     0.09137   0.04778   0.98570   0.00000  Uiso   1.00
H165   H     0.97874   0.08641   0.11810   0.00000  Uiso   1.00
H166   H     0.16499   0.41233   0.21458   0.00000  Uiso   1.00
H167   H     0.10206   0.95654   0.85736   0.00000  Uiso   1.00
H168   H     0.86456   0.03801   0.13656   0.00000  Uiso   1.00
H169   H     0.85789   0.16308   0.91272   0.00000  Uiso   1.00
H170   H     0.90982   0.29511   0.97688   0.00000  Uiso   1.00
H171   H     0.87999   0.07895   0.80747   0.00000  Uiso   1.00
H172   H     0.76736   0.11759   0.93987   0.00000  Uiso   1.00
H173   H     0.99343   0.43764   0.06992   0.00000  Uiso   1.00
H174   H     0.93050   0.98184   0.71270   0.00000  Uiso   1.00
H175   H     0.69299   0.06331   0.99190   0.00000  Uiso   1.00
O176   O     0.11700   0.51130   0.18750   0.00000  Uiso   1.00
O177   O     0.03443   0.91331   0.71884   0.00000  Uiso   1.00
O178   O     0.72284   0.02020   0.08514   0.00000  Uiso   1.00
N179   N     0.11748   0.40017   0.17174   0.00000  Uiso   1.00
N180   N     0.05865   0.97404   0.83776   0.00000  Uiso   1.00
N181   N     0.83661   0.05019   0.09877   0.00000  Uiso   1.00
N182   N     0.02516   0.41379   0.09390   0.00000  Uiso   1.00
N183   N     0.96633   0.98766   0.75992   0.00000  Uiso   1.00
N184   N     0.74429   0.06381   0.02093   0.00000  Uiso   1.00
C185   C     0.09087   0.61820   0.81032   0.00000  Uiso   1.00
C186   C     0.04439   0.56696   0.73114   0.00000  Uiso   1.00
C187   C     0.03630   0.57739   0.67571   0.00000  Uiso   1.00
C188   C     0.99137   0.52421   0.60696   0.00000  Uiso   1.00
C189   C     0.92463   0.45396   0.48595   0.00000  Uiso   1.00
C190   C     0.14265   0.57973   0.83994   0.00000  Uiso   1.00
C191   C     0.21718   0.60092   0.87600   0.00000  Uiso   1.00
C192   C     0.25497   0.55849   0.89885   0.00000  Uiso   1.00
C193   C     0.34078   0.50810   0.94682   0.00000  Uiso   1.00
C194   C     0.04076   0.63048   0.84376   0.00000  Uiso   1.00
C195   C     0.02962   0.69433   0.88304   0.00000  Uiso   1.00
C196   C     0.98163   0.69463   0.90911   0.00000  Uiso   1.00
C197   C     0.90923   0.72302   0.96300   0.00000  Uiso   1.00
C198   C     0.02547   0.50520   0.78680   0.00000  Uiso   1.00
C199   C     0.00887   0.50558   0.71837   0.00000  Uiso   1.00
C200   C     0.96393   0.45237   0.64968   0.00000  Uiso   1.00
C201   C     0.95578   0.46272   0.59416   0.00000  Uiso   1.00
C202   C     0.10713   0.51835   0.82717   0.00000  Uiso   1.00
C203   C     0.14481   0.47589   0.84998   0.00000  Uiso   1.00
C204   C     0.21938   0.49700   0.88605   0.00000  Uiso   1.00
C205   C     0.00523   0.56910   0.83098   0.00000  Uiso   1.00
C206   C     0.95725   0.56930   0.85701   0.00000  Uiso   1.00
C207   C     0.94604   0.63314   0.89632   0.00000  Uiso   1.00
H208   H     0.11854   0.66599   0.82027   0.00000  Uiso   1.00
H209   H     0.06381   0.62490   0.68562   0.00000  Uiso   1.00
H210   H     0.24466   0.64842   0.88589   0.00000  Uiso   1.00
H211   H     0.05712   0.74181   0.89291   0.00000  Uiso   1.00
H212   H     0.98749   0.55227   0.53069   0.00000  Uiso   1.00
H213   H     0.36882   0.60187   0.95299   0.00000  Uiso   1.00
H214   H     0.97336   0.79882   0.96782   0.00000  Uiso   1.00
H215   H     0.99781   0.45741   0.77685   0.00000  Uiso   1.00
H216   H     0.93645   0.40487   0.63981   0.00000  Uiso   1.00
H217   H     0.11730   0.42840   0.84008   0.00000  Uiso   1.00
H218   H     0.92977   0.52179   0.84711   0.00000  Uiso   1.00
H219   H     0.88412   0.37368   0.49352   0.00000  Uiso   1.00
H220   H     0.26545   0.42329   0.91582   0.00000  Uiso   1.00
H221   H     0.86999   0.62023   0.93064   0.00000  Uiso   1.00
O222   O     0.89764   0.43217   0.42274   0.00000  Uiso   1.00
O223   O     0.39793   0.49726   0.97679   0.00000  Uiso   1.00
O224   O     0.87910   0.75564   0.99624   0.00000  Uiso   1.00
N225   N     0.97157   0.51745   0.54075   0.00000  Uiso   1.00
N226   N     0.32809   0.56383   0.93557   0.00000  Uiso   1.00
N227   N     0.95839   0.74795   0.94944   0.00000  Uiso   1.00
N228   N     0.91594   0.42136   0.52075   0.00000  Uiso   1.00
N229   N     0.27247   0.46773   0.91556   0.00000  Uiso   1.00
N230   N     0.90277   0.65186   0.92944   0.00000  Uiso   1.00
C231   C     0.28851   0.93703   0.26705   0.00000  Uiso   1.00
C232   C     0.34773   0.92751   0.32480   0.00000  Uiso   1.00
C233   C     0.40860   0.90467   0.32279   0.00000  Uiso   1.00
C234   C     0.45639   0.89945   0.38089   0.00000  Uiso   1.00
C235   C     0.55029   0.88211   0.46176   0.00000  Uiso   1.00
C236   C     0.28327   0.01212   0.30363   0.00000  Uiso   1.00
C237   C     0.28995   0.06043   0.28380   0.00000  Uiso   1.00
C238   C     0.28346   0.12643   0.32408   0.00000  Uiso   1.00
C239   C     0.27724   0.24044   0.37204   0.00000  Uiso   1.00
C240   C     0.21849   0.89294   0.24590   0.00000  Uiso   1.00
C241   C     0.17069   0.84104   0.17753   0.00000  Uiso   1.00
C242   C     0.10966   0.80670   0.16919   0.00000  Uiso   1.00
C243   C     0.00286   0.73566   0.12752   0.00000  Uiso   1.00
C244   C     0.26511   0.96835   0.37382   0.00000  Uiso   1.00
C245   C     0.33501   0.94452   0.38280   0.00000  Uiso   1.00
C246   C     0.38271   0.93933   0.44092   0.00000  Uiso   1.00
C247   C     0.44365   0.91649   0.43899   0.00000  Uiso   1.00
C248   C     0.27056   0.02914   0.36162   0.00000  Uiso   1.00
C249   C     0.26406   0.09508   0.40193   0.00000  Uiso   1.00
C250   C     0.27073   0.14347   0.38218   0.00000  Uiso   1.00
C251   C     0.20578   0.90995   0.30389   0.00000  Uiso   1.00
C252   C     0.14480   0.87569   0.29566   0.00000  Uiso   1.00
C253   C     0.09692   0.82375   0.22729   0.00000  Uiso   1.00
H254   H     0.29840   0.92379   0.22190   0.00000  Uiso   1.00
H255   H     0.41843   0.89152   0.27790   0.00000  Uiso   1.00
H256   H     0.29977   0.04724   0.23892   0.00000  Uiso   1.00
H257   H     0.18054   0.82789   0.13266   0.00000  Uiso   1.00
H258   H     0.54590   0.86327   0.36557   0.00000  Uiso   1.00
H259   H     0.29570   0.19161   0.28336   0.00000  Uiso   1.00
H260   H     0.04427   0.72906   0.05929   0.00000  Uiso   1.00
H261   H     0.25521   0.98160   0.41898   0.00000  Uiso   1.00
H262   H     0.37286   0.95250   0.48579   0.00000  Uiso   1.00
H263   H     0.25422   0.10823   0.44681   0.00000  Uiso   1.00
H264   H     0.13499   0.88887   0.34055   0.00000  Uiso   1.00
H265   H     0.50893   0.91276   0.53431   0.00000  Uiso   1.00
H266   H     0.25872   0.24111   0.45209   0.00000  Uiso   1.00
H267   H     0.00730   0.77856   0.22803   0.00000  Uiso   1.00
O268   O     0.60560   0.86785   0.49035   0.00000  Uiso   1.00
O269   O     0.27733   0.29862   0.38248   0.00000  Uiso   1.00
O270   O     0.94747   0.69176   0.08851   0.00000  Uiso   1.00
N271   N     0.52104   0.87890   0.39611   0.00000  Uiso   1.00
N272   N     0.28713   0.18589   0.31925   0.00000  Uiso   1.00
N273   N     0.05206   0.75345   0.10977   0.00000  Uiso   1.00
N274   N     0.50115   0.90553   0.48690   0.00000  Uiso   1.00
N275   N     0.26723   0.21252   0.41005   0.00000  Uiso   1.00
N276   N     0.03216   0.78008   0.20056   0.00000  Uiso   1.00
C277   C     0.58328   0.62419   0.01967   0.00000  Uiso   1.00
C278   C     0.62072   0.57805   0.04813   0.00000  Uiso   1.00
C279   C     0.60533   0.55807   0.08914   0.00000  Uiso   1.00
C280   C     0.64563   0.51569   0.10989   0.00000  Uiso   1.00
C281   C     0.69557   0.44731   0.15703   0.00000  Uiso   1.00
C282   C     0.55433   0.58269   0.93911   0.00000  Uiso   1.00
C283   C     0.48312   0.56661   0.88847   0.00000  Uiso   1.00
C284   C     0.46753   0.52813   0.81745   0.00000  Uiso   1.00
C285   C     0.41440   0.46698   0.69534   0.00000  Uiso   1.00
C286   C     0.64258   0.68460   0.04702   0.00000  Uiso   1.00
C287   C     0.64557   0.75422   0.08709   0.00000  Uiso   1.00
C288   C     0.70427   0.80156   0.10690   0.00000  Uiso   1.00
C289   C     0.78817   0.89866   0.15234   0.00000  Uiso   1.00
C290   C     0.68221   0.58447   0.98357   0.00000  Uiso   1.00
C291   C     0.67445   0.55648   0.02851   0.00000  Uiso   1.00
C292   C     0.71479   0.51412   0.04921   0.00000  Uiso   1.00
C293   C     0.69947   0.49408   0.09025   0.00000  Uiso   1.00
C294   C     0.60806   0.56111   0.91950   0.00000  Uiso   1.00
C295   C     0.59257   0.52266   0.84853   0.00000  Uiso   1.00
C296   C     0.52136   0.50652   0.79780   0.00000  Uiso   1.00
C297   C     0.69631   0.66303   0.02741   0.00000  Uiso   1.00
C298   C     0.75502   0.71027   0.04715   0.00000  Uiso   1.00
C299   C     0.75810   0.77995   0.08726   0.00000  Uiso   1.00
H300   H     0.54144   0.64099   0.03493   0.00000  Uiso   1.00
H301   H     0.56374   0.57478   0.10430   0.00000  Uiso   1.00
H302   H     0.44155   0.58332   0.90366   0.00000  Uiso   1.00
H303   H     0.60397   0.77090   0.10225   0.00000  Uiso   1.00
H304   H     0.61214   0.49183   0.17255   0.00000  Uiso   1.00
H305   H     0.35450   0.50986   0.74949   0.00000  Uiso   1.00
H306   H     0.69700   0.90542   0.16826   0.00000  Uiso   1.00
H307   H     0.72404   0.56767   0.96830   0.00000  Uiso   1.00
H308   H     0.75637   0.49743   0.03402   0.00000  Uiso   1.00
H309   H     0.63417   0.50597   0.83338   0.00000  Uiso   1.00
H310   H     0.79660   0.69355   0.03197   0.00000  Uiso   1.00
H311   H     0.76848   0.42905   0.11550   0.00000  Uiso   1.00
H312   H     0.51084   0.44708   0.69244   0.00000  Uiso   1.00
H313   H     0.85334   0.84264   0.11121   0.00000  Uiso   1.00
O314   O     0.70826   0.41554   0.18844   0.00000  Uiso   1.00
O315   O     0.37025   0.43921   0.63341   0.00000  Uiso   1.00
O316   O     0.81960   0.95817   0.18282   0.00000  Uiso   1.00
N317   N     0.64451   0.48670   0.15012   0.00000  Uiso   1.00
N318   N     0.40363   0.50355   0.75458   0.00000  Uiso   1.00
N319   N     0.72383   0.87337   0.14608   0.00000  Uiso   1.00
N320   N     0.72864   0.45292   0.11942   0.00000  Uiso   1.00
N321   N     0.48775   0.46977   0.72389   0.00000  Uiso   1.00
N322   N     0.80795   0.83959   0.11538   0.00000  Uiso   1.00
C323   C     0.29638   0.98708   0.74773   0.00000  Uiso   1.00
C324   C     0.26138   0.95282   0.66679   0.00000  Uiso   1.00
C325   C     0.19895   0.90066   0.61883   0.00000  Uiso   1.00
C326   C     0.17566   0.87620   0.54692   0.00000  Uiso   1.00
C327   C     0.11553   0.81895   0.42475   0.00000  Uiso   1.00
C328   C     0.30212   0.06449   0.77559   0.00000  Uiso   1.00
C329   C     0.27395   0.10623   0.81911   0.00000  Uiso   1.00
C330   C     0.28496   0.17578   0.83879   0.00000  Uiso   1.00
C331   C     0.28812   0.29192   0.88557   0.00000  Uiso   1.00
C332   C     0.37339   0.97772   0.77174   0.00000  Uiso   1.00
C333   C     0.40515   0.94653   0.81205   0.00000  Uiso   1.00
C334   C     0.47618   0.94304   0.82852   0.00000  Uiso   1.00
C335   C     0.59000   0.92445   0.86933   0.00000  Uiso   1.00
C336   C     0.36605   0.03638   0.70531   0.00000  Uiso   1.00
C337   C     0.29922   0.97960   0.64375   0.00000  Uiso   1.00
C338   C     0.27602   0.95520   0.57190   0.00000  Uiso   1.00
C339   C     0.21356   0.90302   0.52384   0.00000  Uiso   1.00
C340   C     0.33995   0.09127   0.75255   0.00000  Uiso   1.00
C341   C     0.35102   0.16077   0.77217   0.00000  Uiso   1.00
C342   C     0.32286   0.20261   0.81571   0.00000  Uiso   1.00
C343   C     0.41123   0.00450   0.74870   0.00000  Uiso   1.00
C344   C     0.48222   0.00106   0.76511   0.00000  Uiso   1.00
C345   C     0.51408   0.96986   0.80543   0.00000  Uiso   1.00
H346   H     0.26693   0.96624   0.76567   0.00000  Uiso   1.00
H347   H     0.16968   0.87996   0.63669   0.00000  Uiso   1.00
H348   H     0.24467   0.08550   0.83694   0.00000  Uiso   1.00
H349   H     0.37586   0.92581   0.82987   0.00000  Uiso   1.00
H350   H     0.07853   0.79613   0.48352   0.00000  Uiso   1.00
H351   H     0.23668   0.22952   0.90578   0.00000  Uiso   1.00
H352   H     0.51331   0.89280   0.89089   0.00000  Uiso   1.00
H353   H     0.39550   0.05723   0.68737   0.00000  Uiso   1.00
H354   H     0.30531   0.97594   0.55408   0.00000  Uiso   1.00
H355   H     0.38030   0.18148   0.75433   0.00000  Uiso   1.00
H356   H     0.51148   0.02179   0.74727   0.00000  Uiso   1.00
H357   H     0.18861   0.87403   0.41647   0.00000  Uiso   1.00
H358   H     0.34676   0.30742   0.83874   0.00000  Uiso   1.00
H359   H     0.62339   0.97070   0.82385   0.00000  Uiso   1.00
O360   O     0.07190   0.77998   0.36373   0.00000  Uiso   1.00
O361   O     0.27941   0.34857   0.91773   0.00000  Uiso   1.00
O362   O     0.64233   0.90679   0.89819   0.00000  Uiso   1.00
N363   N     0.11682   0.82561   0.48603   0.00000  Uiso   1.00
N364   N     0.26468   0.23080   0.88081   0.00000  Uiso   1.00
N365   N     0.52330   0.91601   0.86691   0.00000  Uiso   1.00
N366   N     0.17606   0.86753   0.44996   0.00000  Uiso   1.00
N367   N     0.32391   0.27272   0.84473   0.00000  Uiso   1.00
N368   N     0.58254   0.95793   0.83083   0.00000  Uiso   1.00
C369   C     0.58836   0.04711   0.33368   0.00000  Uiso   1.00
C370   C     0.61375   0.12571   0.37325   0.00000  Uiso   1.00
C371   C     0.57664   0.17305   0.39990   0.00000  Uiso   1.00
C372   C     0.60897   0.24274   0.43447   0.00000  Uiso   1.00
C373   C     0.63820   0.36153   0.49478   0.00000  Uiso   1.00
C374   C     0.64783   0.02187   0.37506   0.00000  Uiso   1.00
C375   C     0.63938   0.98189   0.40322   0.00000  Uiso   1.00
C376   C     0.70040   0.96416   0.43930   0.00000  Uiso   1.00
C377   C     0.78254   0.92169   0.50237   0.00000  Uiso   1.00
C378   C     0.58808   0.02086   0.26233   0.00000  Uiso   1.00
C379   C     0.52940   0.98002   0.19571   0.00000  Uiso   1.00
C380   C     0.54013   0.96143   0.13688   0.00000  Uiso   1.00
C381   C     0.52950   0.91739   0.02493   0.00000  Uiso   1.00
C382   C     0.71176   0.08669   0.34767   0.00000  Uiso   1.00
C383   C     0.68077   0.14721   0.38085   0.00000  Uiso   1.00
C384   C     0.71317   0.21685   0.41538   0.00000  Uiso   1.00
C385   C     0.67612   0.26428   0.44208   0.00000  Uiso   1.00
C386   C     0.71485   0.04337   0.38266   0.00000  Uiso   1.00
C387   C     0.77590   0.02569   0.41870   0.00000  Uiso   1.00
C388   C     0.76755   0.98570   0.44691   0.00000  Uiso   1.00
C389   C     0.65511   0.04236   0.26993   0.00000  Uiso   1.00
C390   C     0.66593   0.02382   0.21119   0.00000  Uiso   1.00
C391   C     0.60728   0.98296   0.14449   0.00000  Uiso   1.00
H392   H     0.53618   0.03036   0.32777   0.00000  Uiso   1.00
H393   H     0.52477   0.15639   0.39402   0.00000  Uiso   1.00
H394   H     0.58750   0.96526   0.39733   0.00000  Uiso   1.00
H395   H     0.47755   0.96339   0.18985   0.00000  Uiso   1.00
H396   H     0.54170   0.30560   0.47084   0.00000  Uiso   1.00
H397   H     0.67395   0.90257   0.47780   0.00000  Uiso   1.00
H398   H     0.44209   0.89862   0.04029   0.00000  Uiso   1.00
H399   H     0.76395   0.10342   0.35359   0.00000  Uiso   1.00
H400   H     0.76504   0.23347   0.42125   0.00000  Uiso   1.00
H401   H     0.82776   0.04233   0.42456   0.00000  Uiso   1.00
H402   H     0.71781   0.04046   0.21709   0.00000  Uiso   1.00
H403   H     0.73670   0.36816   0.49295   0.00000  Uiso   1.00
H404   H     0.86896   0.96512   0.49990   0.00000  Uiso   1.00
H405   H     0.63709   0.96118   0.06240   0.00000  Uiso   1.00
O406   O     0.63582   0.42111   0.52596   0.00000  Uiso   1.00
O407   O     0.80932   0.89233   0.53507   0.00000  Uiso   1.00
O408   O     0.50513   0.88716   0.96108   0.00000  Uiso   1.00
N409   N     0.58743   0.30248   0.46674   0.00000  Uiso   1.00
N410   N     0.71109   0.92567   0.47326   0.00000  Uiso   1.00
N411   N     0.49432   0.92197   0.06423   0.00000  Uiso   1.00
N412   N     0.69237   0.33614   0.47864   0.00000  Uiso   1.00
N413   N     0.81602   0.95933   0.48515   0.00000  Uiso   1.00
N414   N     0.59925   0.95563   0.07612   0.00000  Uiso   1.00
C415   C     0.19608   0.62384   0.12408   0.00000  Uiso   1.00
C416   C     0.21377   0.55278   0.09945   0.00000  Uiso   1.00
C417   C     0.16422   0.48962   0.05799   0.00000  Uiso   1.00
C418   C     0.19119   0.43044   0.04116   0.00000  Uiso   1.00
C419   C     0.20742   0.31951   0.99932   0.00000  Uiso   1.00
C420   C     0.23970   0.66351   0.20511   0.00000  Uiso   1.00
C421   C     0.21195   0.69345   0.25249   0.00000  Uiso   1.00
C422   C     0.26075   0.72750   0.32461   0.00000  Uiso   1.00
C423   C     0.31724   0.78852   0.44682   0.00000  Uiso   1.00
C424   C     0.22798   0.66018   0.09771   0.00000  Uiso   1.00
C425   C     0.19039   0.68734   0.05480   0.00000  Uiso   1.00
C426   C     0.22933   0.71859   0.03651   0.00000  Uiso   1.00
C427   C     0.26762   0.77444   0.99196   0.00000  Uiso   1.00
C428   C     0.33209   0.63107   0.16790   0.00000  Uiso   1.00
C429   C     0.28764   0.55671   0.12325   0.00000  Uiso   1.00
C430   C     0.31469   0.49762   0.10647   0.00000  Uiso   1.00
C431   C     0.26519   0.43437   0.06500   0.00000  Uiso   1.00
C432   C     0.31357   0.66744   0.22891   0.00000  Uiso   1.00
C433   C     0.36242   0.70145   0.30097   0.00000  Uiso   1.00
C434   C     0.33476   0.73143   0.34845   0.00000  Uiso   1.00
C435   C     0.30185   0.66411   0.12151   0.00000  Uiso   1.00
C436   C     0.34086   0.69533   0.10328   0.00000  Uiso   1.00
C437   C     0.30333   0.72252   0.06035   0.00000  Uiso   1.00
H438   H     0.13858   0.62079   0.10555   0.00000  Uiso   1.00
H439   H     0.10706   0.48660   0.03959   0.00000  Uiso   1.00
H440   H     0.15479   0.69041   0.23406   0.00000  Uiso   1.00
H441   H     0.13322   0.68429   0.03640   0.00000  Uiso   1.00
H442   H     0.10470   0.33956   0.97697   0.00000  Uiso   1.00
H443   H     0.20533   0.76933   0.38703   0.00000  Uiso   1.00
H444   H     0.15987   0.75642   0.97022   0.00000  Uiso   1.00
H445   H     0.38960   0.63413   0.18643   0.00000  Uiso   1.00
H446   H     0.37186   0.50067   0.12490   0.00000  Uiso   1.00
H447   H     0.41958   0.70449   0.31937   0.00000  Uiso   1.00
H448   H     0.39802   0.69836   0.12171   0.00000  Uiso   1.00
H449   H     0.31962   0.35098   0.04622   0.00000  Uiso   1.00
H450   H     0.42026   0.78076   0.45627   0.00000  Uiso   1.00
H451   H     0.37479   0.76784   0.03946   0.00000  Uiso   1.00
O452   O     0.19597   0.25723   0.96968   0.00000  Uiso   1.00
O453   O     0.32799   0.82109   0.50765   0.00000  Uiso   1.00
O454   O     0.26834   0.80415   0.96080   0.00000  Uiso   1.00
N455   N     0.15772   0.36056   0.00170   0.00000  Uiso   1.00
N456   N     0.25180   0.76236   0.38508   0.00000  Uiso   1.00
N457   N     0.20929   0.75031   0.99541   0.00000  Uiso   1.00
N458   N     0.27336   0.36671   0.03896   0.00000  Uiso   1.00
N459   N     0.36745   0.76851   0.42234   0.00000  Uiso   1.00
N460   N     0.32494   0.75646   0.03267   0.00000  Uiso   1.00
C461   C     0.97794   0.26244   0.35704   0.00000  Uiso   1.00
C462   C     0.04662   0.30743   0.42631   0.00000  Uiso   1.00
C463   C     0.05266   0.33933   0.49422   0.00000  Uiso   1.00
C464   C     0.12017   0.37833   0.55073   0.00000  Uiso   1.00
C465   C     0.21778   0.44718   0.65997   0.00000  Uiso   1.00
C466   C     0.96675   0.29537   0.31093   0.00000  Uiso   1.00
C467   C     0.90564   0.31711   0.28182   0.00000  Uiso   1.00
C468   C     0.90591   0.34594   0.24119   0.00000  Uiso   1.00
C469   C     0.87950   0.39601   0.17125   0.00000  Uiso   1.00
C470   C     0.99524   0.19313   0.31990   0.00000  Uiso   1.00
C471   C     0.95808   0.12890   0.29830   0.00000  Uiso   1.00
C472   C     0.98233   0.07164   0.26520   0.00000  Uiso   1.00
C473   C     0.00016   0.96297   0.20919   0.00000  Uiso   1.00
C474   C     0.08708   0.27497   0.33663   0.00000  Uiso   1.00
C475   C     0.10590   0.31424   0.41523   0.00000  Uiso   1.00
C476   C     0.17341   0.35319   0.47164   0.00000  Uiso   1.00
C477   C     0.17956   0.38514   0.53962   0.00000  Uiso   1.00
C478   C     0.02603   0.30217   0.29984   0.00000  Uiso   1.00
C479   C     0.02639   0.33097   0.25924   0.00000  Uiso   1.00
C480   C     0.96529   0.35276   0.23008   0.00000  Uiso   1.00
C481   C     0.05452   0.19993   0.30881   0.00000  Uiso   1.00
C482   C     0.07883   0.14276   0.27573   0.00000  Uiso   1.00
C483   C     0.04171   0.07846   0.25409   0.00000  Uiso   1.00
H484   H     0.93179   0.25715   0.36567   0.00000  Uiso   1.00
H485   H     0.00677   0.33406   0.50278   0.00000  Uiso   1.00
H486   H     0.85977   0.31183   0.29040   0.00000  Uiso   1.00
H487   H     0.91221   0.12365   0.30689   0.00000  Uiso   1.00
H488   H     0.11605   0.42235   0.64990   0.00000  Uiso   1.00
H489   H     0.80607   0.37547   0.20207   0.00000  Uiso   1.00
H490   H     0.91664   0.97865   0.23684   0.00000  Uiso   1.00
H491   H     0.13323   0.28027   0.32800   0.00000  Uiso   1.00
H492   H     0.21928   0.35845   0.46305   0.00000  Uiso   1.00
H493   H     0.07227   0.33623   0.25067   0.00000  Uiso   1.00
H494   H     0.12471   0.14805   0.26716   0.00000  Uiso   1.00
H495   H     0.28852   0.44215   0.61765   0.00000  Uiso   1.00
H496   H     0.97854   0.39527   0.16982   0.00000  Uiso   1.00
H497   H     0.08912   0.99845   0.20459   0.00000  Uiso   1.00
O498   O     0.25525   0.48328   0.72329   0.00000  Uiso   1.00
O499   O     0.84856   0.42176   0.13575   0.00000  Uiso   1.00
O500   O     0.99363   0.90115   0.18136   0.00000  Uiso   1.00
N501   N     0.14483   0.41627   0.62378   0.00000  Uiso   1.00
N502   N     0.85503   0.37245   0.20509   0.00000  Uiso   1.00
N503   N     0.95839   0.00145   0.23758   0.00000  Uiso   1.00
N504   N     0.23764   0.42692   0.60643   0.00000  Uiso   1.00
N505   N     0.94784   0.38310   0.18774   0.00000  Uiso   1.00
N506   N     0.05120   0.01211   0.22023   0.00000  Uiso   1.00
C507   C     0.85943   0.86351   0.86995   0.00000  Uiso   1.00
C508   C     0.83525   0.88061   0.81021   0.00000  Uiso   1.00
C509   C     0.79316   0.92721   0.80283   0.00000  Uiso   1.00
C510   C     0.77687   0.93555   0.74449   0.00000  Uiso   1.00
C511   C     0.73551   0.96770   0.65918   0.00000  Uiso   1.00
C512   C     0.83317   0.78532   0.83360   0.00000  Uiso   1.00
C513   C     0.78933   0.75181   0.84591   0.00000  Uiso   1.00
C514   C     0.77130   0.67993   0.80727   0.00000  Uiso   1.00
C515   C     0.72674   0.56413   0.75832   0.00000  Uiso   1.00
C516   C     0.94133   0.87796   0.90403   0.00000  Uiso   1.00
C517   C     0.98845   0.92233   0.97555   0.00000  Uiso   1.00
C518   C     0.06149   0.92844   0.99620   0.00000  Uiso   1.00
C519   C     0.18488   0.95649   0.05660   0.00000  Uiso   1.00
C520   C     0.90536   0.79545   0.77946   0.00000  Uiso   1.00
C521   C     0.86020   0.84363   0.76105   0.00000  Uiso   1.00
C522   C     0.84397   0.85191   0.70271   0.00000  Uiso   1.00
C523   C     0.80187   0.89852   0.69525   0.00000  Uiso   1.00
C524   C     0.85811   0.74835   0.78445   0.00000  Uiso   1.00
C525   C     0.84015   0.67650   0.74579   0.00000  Uiso   1.00
C526   C     0.79629   0.64289   0.75803   0.00000  Uiso   1.00
C527   C     0.96628   0.84099   0.85487   0.00000  Uiso   1.00
C528   C     0.03926   0.84703   0.87543   0.00000  Uiso   1.00
C529   C     0.08648   0.89140   0.94696   0.00000  Uiso   1.00
H530   H     0.84000   0.89229   0.90822   0.00000  Uiso   1.00
H531   H     0.77386   0.95581   0.84088   0.00000  Uiso   1.00
H532   H     0.77004   0.78043   0.88395   0.00000  Uiso   1.00
H533   H     0.96913   0.95093   0.01357   0.00000  Uiso   1.00
H534   H     0.71150   0.00991   0.74453   0.00000  Uiso   1.00
H535   H     0.70347   0.64012   0.83537   0.00000  Uiso   1.00
H536   H     0.12329   0.99965   0.10870   0.00000  Uiso   1.00
H537   H     0.92478   0.76666   0.74119   0.00000  Uiso   1.00
H538   H     0.86328   0.82329   0.66469   0.00000  Uiso   1.00
H539   H     0.85946   0.64791   0.70776   0.00000  Uiso   1.00
H540   H     0.05855   0.81841   0.83738   0.00000  Uiso   1.00
H541   H     0.78408   0.90235   0.60152   0.00000  Uiso   1.00
H542   H     0.77605   0.53255   0.69237   0.00000  Uiso   1.00
H543   H     0.19586   0.89209   0.96569   0.00000  Uiso   1.00
O544   O     0.70579   0.99563   0.62570   0.00000  Uiso   1.00
O545   O     0.69527   0.51048   0.74490   0.00000  Uiso   1.00
O546   O     0.24605   0.98218   0.10349   0.00000  Uiso   1.00
N547   N     0.73703   0.97684   0.72138   0.00000  Uiso   1.00
N548   N     0.72952   0.63110   0.80631   0.00000  Uiso   1.00
N549   N     0.12201   0.96722   0.06184   0.00000  Uiso   1.00
N550   N     0.77609   0.91896   0.64443   0.00000  Uiso   1.00
N551   N     0.76857   0.57322   0.72936   0.00000  Uiso   1.00
N552   N     0.16106   0.90934   0.98489   0.00000  Uiso   1.00
