data_job_05604
_audit_creation_date              2018-12-19
_audit_creation_method            'Materials Studio'
_symmetry_space_group_name_H-M    'P1'
_symmetry_Int_Tables_number       1
_symmetry_cell_setting            triclinic
loop_
_symmetry_equiv_pos_as_xyz
  x,y,z
_cell_length_a                    12.1641
_cell_length_b                    12.1641
_cell_length_c                    30.5411
_cell_angle_alpha                 90.0000
_cell_angle_beta                  90.0000
_cell_angle_gamma                 120.0000
loop_
_atom_site_label
_atom_site_type_symbol
_atom_site_fract_x
_atom_site_fract_y
_atom_site_fract_z
_atom_site_U_iso_or_equiv
_atom_site_adp_type
_atom_site_occupancy
C1     C     0.75368   0.05428   0.43216   0.00000  Uiso   1.00
C2     C     0.66603   0.10632   0.42115   0.00000  Uiso   1.00
C3     C     0.58093   0.06746   0.38650   0.00000  Uiso   1.00
C4     C     0.50929   0.12678   0.38198   0.00000  Uiso   1.00
C5     C     0.37125   0.19321   0.36045   0.00000  Uiso   1.00
C6     C     0.88782   0.16846   0.43272   0.00000  Uiso   1.00
C7     C     0.98920   0.18183   0.40779   0.00000  Uiso   1.00
C8     C     0.10427   0.29345   0.41302   0.00000  Uiso   1.00
C9     C     0.31058   0.45631   0.40947   0.00000  Uiso   1.00
C10    C     0.72372   0.00762   0.47935   0.00000  Uiso   1.00
C11    C     0.68716   0.88576   0.49363   0.00000  Uiso   1.00
C12    C     0.66410   0.86197   0.53813   0.00000  Uiso   1.00
C13    C     0.61562   0.77510   0.60697   0.00000  Uiso   1.00
C14    C     0.77778   0.22872   0.48577   0.00000  Uiso   1.00
C15    C     0.67913   0.20107   0.45027   0.00000  Uiso   1.00
C16    C     0.60760   0.26046   0.44581   0.00000  Uiso   1.00
C17    C     0.52240   0.22169   0.41116   0.00000  Uiso   1.00
C18    C     0.90091   0.26321   0.46184   0.00000  Uiso   1.00
C19    C     0.01586   0.37483   0.46711   0.00000  Uiso   1.00
C20    C     0.11739   0.38837   0.44220   0.00000  Uiso   1.00
C21    C     0.73681   0.10236   0.50847   0.00000  Uiso   1.00
C22    C     0.71382   0.07876   0.55295   0.00000  Uiso   1.00
C23    C     0.67722   0.95689   0.56730   0.00000  Uiso   1.00
H24    H     0.74349   0.98052   0.40949   0.00000  Uiso   1.00
H25    H     0.57083   0.99414   0.36396   0.00000  Uiso   1.00
H26    H     0.97904   0.10848   0.38526   0.00000  Uiso   1.00
H27    H     0.67704   0.81246   0.47109   0.00000  Uiso   1.00
H28    H     0.38521   0.05106   0.32633   0.00000  Uiso   1.00
H29    H     0.24594   0.29214   0.37124   0.00000  Uiso   1.00
H30    H     0.60912   0.66792   0.55223   0.00000  Uiso   1.00
H31    H     0.78798   0.30249   0.50845   0.00000  Uiso   1.00
H32    H     0.61775   0.33378   0.46836   0.00000  Uiso   1.00
H33    H     0.02596   0.44812   0.48965   0.00000  Uiso   1.00
H34    H     0.72396   0.15210   0.57548   0.00000  Uiso   1.00
H35    H     0.42330   0.32673   0.41105   0.00000  Uiso   1.00
H36    H     0.28404   0.56781   0.45597   0.00000  Uiso   1.00
H37    H     0.64720   0.94359   0.63695   0.00000  Uiso   1.00
O38    O     0.29150   0.20370   0.34052   0.00000  Uiso   1.00
O39    O     0.42075   0.51997   0.39946   0.00000  Uiso   1.00
O40    O     0.58525   0.70101   0.63690   0.00000  Uiso   1.00
N41    N     0.41752   0.11163   0.35177   0.00000  Uiso   1.00
N42    N     0.22225   0.33703   0.39376   0.00000  Uiso   1.00
N43    N     0.62690   0.75345   0.56297   0.00000  Uiso   1.00
N44    N     0.43801   0.25996   0.39737   0.00000  Uiso   1.00
N45    N     0.24274   0.48536   0.43935   0.00000  Uiso   1.00
N46    N     0.64739   0.90178   0.60856   0.00000  Uiso   1.00
C47    C     0.94572   0.69940   0.09883   0.00000  Uiso   1.00
C48    C     0.89368   0.55971   0.08782   0.00000  Uiso   1.00
C49    C     0.93254   0.51347   0.05316   0.00000  Uiso   1.00
C50    C     0.87322   0.38252   0.04865   0.00000  Uiso   1.00
C51    C     0.80679   0.17803   0.02712   0.00000  Uiso   1.00
C52    C     0.83154   0.71936   0.09938   0.00000  Uiso   1.00
C53    C     0.81817   0.80737   0.07446   0.00000  Uiso   1.00
C54    C     0.70655   0.81082   0.07969   0.00000  Uiso   1.00
C55    C     0.54369   0.85427   0.07613   0.00000  Uiso   1.00
C56    C     0.99238   0.71610   0.14601   0.00000  Uiso   1.00
C57    C     0.11424   0.80140   0.16030   0.00000  Uiso   1.00
C58    C     0.13803   0.80213   0.20479   0.00000  Uiso   1.00
C59    C     0.22490   0.84052   0.27364   0.00000  Uiso   1.00
C60    C     0.77128   0.54906   0.15244   0.00000  Uiso   1.00
C61    C     0.79893   0.47805   0.11694   0.00000  Uiso   1.00
C62    C     0.73954   0.34714   0.11248   0.00000  Uiso   1.00
C63    C     0.77831   0.30071   0.07783   0.00000  Uiso   1.00
C64    C     0.73679   0.63771   0.12850   0.00000  Uiso   1.00
C65    C     0.62517   0.64104   0.13378   0.00000  Uiso   1.00
C66    C     0.61163   0.72902   0.10886   0.00000  Uiso   1.00
C67    C     0.89764   0.63445   0.17514   0.00000  Uiso   1.00
C68    C     0.92124   0.63506   0.21962   0.00000  Uiso   1.00
C69    C     0.04311   0.72033   0.23397   0.00000  Uiso   1.00
H70    H     0.01948   0.76297   0.07615   0.00000  Uiso   1.00
H71    H     0.00586   0.57669   0.03063   0.00000  Uiso   1.00
H72    H     0.89152   0.87055   0.05193   0.00000  Uiso   1.00
H73    H     0.18754   0.86457   0.13775   0.00000  Uiso   1.00
H74    H     0.94894   0.33415   0.99299   0.00000  Uiso   1.00
H75    H     0.70786   0.95380   0.03791   0.00000  Uiso   1.00
H76    H     0.33208   0.94120   0.21889   0.00000  Uiso   1.00
H77    H     0.69751   0.48549   0.17511   0.00000  Uiso   1.00
H78    H     0.66622   0.28397   0.13502   0.00000  Uiso   1.00
H79    H     0.55188   0.57784   0.15632   0.00000  Uiso   1.00
H80    H     0.84790   0.57185   0.24214   0.00000  Uiso   1.00
H81    H     0.67327   0.09657   0.07772   0.00000  Uiso   1.00
H82    H     0.43219   0.71623   0.12264   0.00000  Uiso   1.00
H83    H     0.05641   0.70362   0.30362   0.00000  Uiso   1.00
O84    O     0.79630   0.08781   0.00719   0.00000  Uiso   1.00
O85    O     0.48003   0.90078   0.06612   0.00000  Uiso   1.00
O86    O     0.29899   0.88424   0.30357   0.00000  Uiso   1.00
N87    N     0.88837   0.30589   0.01844   0.00000  Uiso   1.00
N88    N     0.66297   0.88522   0.06043   0.00000  Uiso   1.00
N89    N     0.24655   0.87346   0.22964   0.00000  Uiso   1.00
N90    N     0.74004   0.17805   0.06403   0.00000  Uiso   1.00
N91    N     0.51464   0.75738   0.10602   0.00000  Uiso   1.00
N92    N     0.09822   0.74561   0.27523   0.00000  Uiso   1.00
C93    C     0.30060   0.24632   0.76549   0.00000  Uiso   1.00
C94    C     0.44029   0.33397   0.75448   0.00000  Uiso   1.00
C95    C     0.48653   0.41907   0.71983   0.00000  Uiso   1.00
C96    C     0.61748   0.49071   0.71532   0.00000  Uiso   1.00
C97    C     0.82197   0.62875   0.69378   0.00000  Uiso   1.00
C98    C     0.28064   0.11218   0.76605   0.00000  Uiso   1.00
C99    C     0.19263   0.01080   0.74112   0.00000  Uiso   1.00
C100   C     0.18918   0.89573   0.74636   0.00000  Uiso   1.00
C101   C     0.14573   0.68942   0.74280   0.00000  Uiso   1.00
C102   C     0.28390   0.27628   0.81268   0.00000  Uiso   1.00
C103   C     0.19860   0.31284   0.82697   0.00000  Uiso   1.00
C104   C     0.19787   0.33590   0.87146   0.00000  Uiso   1.00
C105   C     0.15948   0.38438   0.94031   0.00000  Uiso   1.00
C106   C     0.45094   0.22222   0.81911   0.00000  Uiso   1.00
C107   C     0.52195   0.32087   0.78361   0.00000  Uiso   1.00
C108   C     0.65286   0.39240   0.77915   0.00000  Uiso   1.00
C109   C     0.69929   0.47760   0.74449   0.00000  Uiso   1.00
C110   C     0.36229   0.09909   0.79517   0.00000  Uiso   1.00
C111   C     0.35896   0.98414   0.80044   0.00000  Uiso   1.00
C112   C     0.27098   0.88261   0.77553   0.00000  Uiso   1.00
C113   C     0.36555   0.26319   0.84180   0.00000  Uiso   1.00
C114   C     0.36494   0.28618   0.88628   0.00000  Uiso   1.00
C115   C     0.27967   0.32278   0.90063   0.00000  Uiso   1.00
H116   H     0.23703   0.25651   0.74282   0.00000  Uiso   1.00
H117   H     0.42331   0.42917   0.69730   0.00000  Uiso   1.00
H118   H     0.12945   0.02096   0.71859   0.00000  Uiso   1.00
H119   H     0.13543   0.32296   0.80442   0.00000  Uiso   1.00
H120   H     0.66585   0.61479   0.65966   0.00000  Uiso   1.00
H121   H     0.04620   0.75406   0.70458   0.00000  Uiso   1.00
H122   H     0.05880   0.39088   0.88556   0.00000  Uiso   1.00
H123   H     0.51451   0.21202   0.84178   0.00000  Uiso   1.00
H124   H     0.71603   0.38225   0.80169   0.00000  Uiso   1.00
H125   H     0.42216   0.97404   0.82298   0.00000  Uiso   1.00
H126   H     0.42815   0.27604   0.90881   0.00000  Uiso   1.00
H127   H     0.90343   0.57670   0.74439   0.00000  Uiso   1.00
H128   H     0.28377   0.71596   0.78930   0.00000  Uiso   1.00
H129   H     0.29638   0.35280   0.97029   0.00000  Uiso   1.00
O130   O     0.91219   0.70850   0.67385   0.00000  Uiso   1.00
O131   O     0.09922   0.57925   0.73279   0.00000  Uiso   1.00
O132   O     0.11576   0.41475   0.97024   0.00000  Uiso   1.00
N133   N     0.69411   0.58248   0.68511   0.00000  Uiso   1.00
N134   N     0.11478   0.77775   0.72710   0.00000  Uiso   1.00
N135   N     0.12654   0.37310   0.89630   0.00000  Uiso   1.00
N136   N     0.82195   0.56199   0.73070   0.00000  Uiso   1.00
N137   N     0.24262   0.75726   0.77269   0.00000  Uiso   1.00
N138   N     0.25439   0.35261   0.94189   0.00000  Uiso   1.00
C139   C     0.05428   0.75368   0.56784   0.00000  Uiso   1.00
C140   C     0.10632   0.66603   0.57885   0.00000  Uiso   1.00
C141   C     0.06746   0.58093   0.61350   0.00000  Uiso   1.00
C142   C     0.12678   0.50929   0.61802   0.00000  Uiso   1.00
C143   C     0.19321   0.37125   0.63955   0.00000  Uiso   1.00
C144   C     0.16846   0.88782   0.56728   0.00000  Uiso   1.00
C145   C     0.18183   0.98920   0.59221   0.00000  Uiso   1.00
C146   C     0.29345   0.10427   0.58698   0.00000  Uiso   1.00
C147   C     0.45631   0.31058   0.59053   0.00000  Uiso   1.00
C148   C     0.00762   0.72372   0.52065   0.00000  Uiso   1.00
C149   C     0.88576   0.68716   0.50637   0.00000  Uiso   1.00
C150   C     0.86197   0.66410   0.46187   0.00000  Uiso   1.00
C151   C     0.77510   0.61562   0.39303   0.00000  Uiso   1.00
C152   C     0.22872   0.77778   0.51423   0.00000  Uiso   1.00
C153   C     0.20107   0.67913   0.54973   0.00000  Uiso   1.00
C154   C     0.26046   0.60760   0.55419   0.00000  Uiso   1.00
C155   C     0.22169   0.52240   0.58884   0.00000  Uiso   1.00
C156   C     0.26321   0.90091   0.53816   0.00000  Uiso   1.00
C157   C     0.37483   0.01586   0.53289   0.00000  Uiso   1.00
C158   C     0.38837   0.11739   0.55780   0.00000  Uiso   1.00
C159   C     0.10236   0.73681   0.49153   0.00000  Uiso   1.00
C160   C     0.07876   0.71382   0.44705   0.00000  Uiso   1.00
C161   C     0.95689   0.67722   0.43270   0.00000  Uiso   1.00
H162   H     0.98052   0.74349   0.59051   0.00000  Uiso   1.00
H163   H     0.99414   0.57083   0.63604   0.00000  Uiso   1.00
H164   H     0.10848   0.97904   0.61474   0.00000  Uiso   1.00
H165   H     0.81246   0.67704   0.52891   0.00000  Uiso   1.00
H166   H     0.05106   0.38521   0.67367   0.00000  Uiso   1.00
H167   H     0.29214   0.24594   0.62876   0.00000  Uiso   1.00
H168   H     0.66792   0.60912   0.44777   0.00000  Uiso   1.00
H169   H     0.30249   0.78798   0.49155   0.00000  Uiso   1.00
H170   H     0.33378   0.61775   0.53164   0.00000  Uiso   1.00
H171   H     0.44812   0.02596   0.51035   0.00000  Uiso   1.00
H172   H     0.15210   0.72396   0.42452   0.00000  Uiso   1.00
H173   H     0.32673   0.42330   0.58895   0.00000  Uiso   1.00
H174   H     0.56781   0.28404   0.54403   0.00000  Uiso   1.00
H175   H     0.94359   0.64720   0.36305   0.00000  Uiso   1.00
O176   O     0.20370   0.29150   0.65948   0.00000  Uiso   1.00
O177   O     0.51997   0.42075   0.60054   0.00000  Uiso   1.00
O178   O     0.70101   0.58525   0.36310   0.00000  Uiso   1.00
N179   N     0.11163   0.41752   0.64823   0.00000  Uiso   1.00
N180   N     0.33703   0.22225   0.60624   0.00000  Uiso   1.00
N181   N     0.75345   0.62690   0.43703   0.00000  Uiso   1.00
N182   N     0.25996   0.43801   0.60263   0.00000  Uiso   1.00
N183   N     0.48536   0.24274   0.56065   0.00000  Uiso   1.00
N184   N     0.90178   0.64739   0.39144   0.00000  Uiso   1.00
C185   C     0.69940   0.94572   0.90117   0.00000  Uiso   1.00
C186   C     0.55971   0.89368   0.91218   0.00000  Uiso   1.00
C187   C     0.51347   0.93254   0.94684   0.00000  Uiso   1.00
C188   C     0.38252   0.87322   0.95135   0.00000  Uiso   1.00
C189   C     0.17803   0.80679   0.97288   0.00000  Uiso   1.00
C190   C     0.71936   0.83154   0.90062   0.00000  Uiso   1.00
C191   C     0.80737   0.81817   0.92554   0.00000  Uiso   1.00
C192   C     0.81082   0.70655   0.92031   0.00000  Uiso   1.00
C193   C     0.85427   0.54369   0.92387   0.00000  Uiso   1.00
C194   C     0.71610   0.99238   0.85399   0.00000  Uiso   1.00
C195   C     0.80140   0.11424   0.83970   0.00000  Uiso   1.00
C196   C     0.80213   0.13803   0.79521   0.00000  Uiso   1.00
C197   C     0.84052   0.22490   0.72636   0.00000  Uiso   1.00
C198   C     0.54906   0.77128   0.84756   0.00000  Uiso   1.00
C199   C     0.47805   0.79893   0.88306   0.00000  Uiso   1.00
C200   C     0.34714   0.73954   0.88752   0.00000  Uiso   1.00
C201   C     0.30071   0.77831   0.92217   0.00000  Uiso   1.00
C202   C     0.63771   0.73679   0.87150   0.00000  Uiso   1.00
C203   C     0.64104   0.62517   0.86622   0.00000  Uiso   1.00
C204   C     0.72902   0.61163   0.89114   0.00000  Uiso   1.00
C205   C     0.63445   0.89764   0.82486   0.00000  Uiso   1.00
C206   C     0.63506   0.92124   0.78038   0.00000  Uiso   1.00
C207   C     0.72033   0.04311   0.76603   0.00000  Uiso   1.00
H208   H     0.76297   0.01948   0.92385   0.00000  Uiso   1.00
H209   H     0.57669   0.00586   0.96937   0.00000  Uiso   1.00
H210   H     0.87055   0.89152   0.94807   0.00000  Uiso   1.00
H211   H     0.86457   0.18754   0.86225   0.00000  Uiso   1.00
H212   H     0.33415   0.94894   0.00701   0.00000  Uiso   1.00
H213   H     0.95380   0.70786   0.96209   0.00000  Uiso   1.00
H214   H     0.94120   0.33208   0.78111   0.00000  Uiso   1.00
H215   H     0.48549   0.69751   0.82489   0.00000  Uiso   1.00
H216   H     0.28397   0.66622   0.86498   0.00000  Uiso   1.00
H217   H     0.57784   0.55188   0.84368   0.00000  Uiso   1.00
H218   H     0.57185   0.84790   0.75786   0.00000  Uiso   1.00
H219   H     0.09657   0.67327   0.92228   0.00000  Uiso   1.00
H220   H     0.71623   0.43219   0.87736   0.00000  Uiso   1.00
H221   H     0.70362   0.05641   0.69638   0.00000  Uiso   1.00
O222   O     0.08781   0.79630   0.99281   0.00000  Uiso   1.00
O223   O     0.90078   0.48003   0.93388   0.00000  Uiso   1.00
O224   O     0.88424   0.29899   0.69643   0.00000  Uiso   1.00
N225   N     0.30589   0.88837   0.98156   0.00000  Uiso   1.00
N226   N     0.88522   0.66297   0.93957   0.00000  Uiso   1.00
N227   N     0.87346   0.24655   0.77036   0.00000  Uiso   1.00
N228   N     0.17805   0.74004   0.93597   0.00000  Uiso   1.00
N229   N     0.75738   0.51464   0.89398   0.00000  Uiso   1.00
N230   N     0.74561   0.09822   0.72477   0.00000  Uiso   1.00
C231   C     0.24632   0.30060   0.23451   0.00000  Uiso   1.00
C232   C     0.33397   0.44029   0.24552   0.00000  Uiso   1.00
C233   C     0.41907   0.48653   0.28017   0.00000  Uiso   1.00
C234   C     0.49071   0.61748   0.28468   0.00000  Uiso   1.00
C235   C     0.62875   0.82197   0.30622   0.00000  Uiso   1.00
C236   C     0.11218   0.28064   0.23395   0.00000  Uiso   1.00
C237   C     0.01080   0.19263   0.25888   0.00000  Uiso   1.00
C238   C     0.89573   0.18918   0.25364   0.00000  Uiso   1.00
C239   C     0.68942   0.14573   0.25720   0.00000  Uiso   1.00
C240   C     0.27628   0.28390   0.18732   0.00000  Uiso   1.00
C241   C     0.31284   0.19860   0.17303   0.00000  Uiso   1.00
C242   C     0.33590   0.19787   0.12854   0.00000  Uiso   1.00
C243   C     0.38438   0.15948   0.05969   0.00000  Uiso   1.00
C244   C     0.22222   0.45094   0.18089   0.00000  Uiso   1.00
C245   C     0.32087   0.52195   0.21639   0.00000  Uiso   1.00
C246   C     0.39240   0.65286   0.22085   0.00000  Uiso   1.00
C247   C     0.47760   0.69929   0.25551   0.00000  Uiso   1.00
C248   C     0.09909   0.36229   0.20483   0.00000  Uiso   1.00
C249   C     0.98414   0.35896   0.19956   0.00000  Uiso   1.00
C250   C     0.88261   0.27098   0.22447   0.00000  Uiso   1.00
C251   C     0.26319   0.36555   0.15820   0.00000  Uiso   1.00
C252   C     0.28618   0.36494   0.11372   0.00000  Uiso   1.00
C253   C     0.32278   0.27967   0.09937   0.00000  Uiso   1.00
H254   H     0.25651   0.23703   0.25718   0.00000  Uiso   1.00
H255   H     0.42917   0.42331   0.30270   0.00000  Uiso   1.00
H256   H     0.02096   0.12945   0.28141   0.00000  Uiso   1.00
H257   H     0.32296   0.13543   0.19558   0.00000  Uiso   1.00
H258   H     0.61479   0.66585   0.34034   0.00000  Uiso   1.00
H259   H     0.75406   0.04620   0.29542   0.00000  Uiso   1.00
H260   H     0.39088   0.05880   0.11444   0.00000  Uiso   1.00
H261   H     0.21202   0.51451   0.15822   0.00000  Uiso   1.00
H262   H     0.38225   0.71603   0.19831   0.00000  Uiso   1.00
H263   H     0.97404   0.42216   0.17702   0.00000  Uiso   1.00
H264   H     0.27604   0.42815   0.09119   0.00000  Uiso   1.00
H265   H     0.57670   0.90343   0.25561   0.00000  Uiso   1.00
H266   H     0.71596   0.28377   0.21070   0.00000  Uiso   1.00
H267   H     0.35280   0.29638   0.02971   0.00000  Uiso   1.00
O268   O     0.70850   0.91219   0.32615   0.00000  Uiso   1.00
O269   O     0.57925   0.09922   0.26721   0.00000  Uiso   1.00
O270   O     0.41475   0.11576   0.02976   0.00000  Uiso   1.00
N271   N     0.58248   0.69411   0.31489   0.00000  Uiso   1.00
N272   N     0.77775   0.11478   0.27290   0.00000  Uiso   1.00
N273   N     0.37310   0.12654   0.10370   0.00000  Uiso   1.00
N274   N     0.56199   0.82195   0.26930   0.00000  Uiso   1.00
N275   N     0.75726   0.24262   0.22731   0.00000  Uiso   1.00
N276   N     0.35261   0.25439   0.05811   0.00000  Uiso   1.00
