data_job_06284
_audit_creation_date              2018-12-19
_audit_creation_method            'Materials Studio'
_symmetry_space_group_name_H-M    'P1'
_symmetry_Int_Tables_number       1
_symmetry_cell_setting            triclinic
loop_
_symmetry_equiv_pos_as_xyz
  x,y,z
_cell_length_a                    12.7203
_cell_length_b                    18.4812
_cell_length_c                    19.3217
_cell_angle_alpha                 114.8640
_cell_angle_beta                  75.6277
_cell_angle_gamma                 81.8208
loop_
_atom_site_label
_atom_site_type_symbol
_atom_site_fract_x
_atom_site_fract_y
_atom_site_fract_z
_atom_site_U_iso_or_equiv
_atom_site_adp_type
_atom_site_occupancy
C1     C     0.38185   0.47664   0.20853   0.00000  Uiso   1.00
C2     C     0.50250   0.44235   0.14842   0.00000  Uiso   1.00
C3     C     0.54139   0.45784   0.08368   0.00000  Uiso   1.00
C4     C     0.65469   0.42065   0.03573   0.00000  Uiso   1.00
C5     C     0.83112   0.37510   0.93989   0.00000  Uiso   1.00
C6     C     0.34281   0.40131   0.20516   0.00000  Uiso   1.00
C7     C     0.24742   0.38231   0.18813   0.00000  Uiso   1.00
C8     C     0.22628   0.31058   0.18795   0.00000  Uiso   1.00
C9     C     0.15473   0.20136   0.18026   0.00000  Uiso   1.00
C10    C     0.39072   0.52212   0.29255   0.00000  Uiso   1.00
C11    C     0.33560   0.60468   0.34901   0.00000  Uiso   1.00
C12    C     0.35478   0.63465   0.42243   0.00000  Uiso   1.00
C13    C     0.35762   0.71300   0.55043   0.00000  Uiso   1.00
C14    C     0.51390   0.38305   0.23851   0.00000  Uiso   1.00
C15    C     0.57422   0.39151   0.16471   0.00000  Uiso   1.00
C16    C     0.68750   0.35429   0.11685   0.00000  Uiso   1.00
C17    C     0.72655   0.36972   0.05204   0.00000  Uiso   1.00
C18    C     0.41453   0.35048   0.22144   0.00000  Uiso   1.00
C19    C     0.39352   0.27876   0.22130   0.00000  Uiso   1.00
C20    C     0.29814   0.25965   0.20426   0.00000  Uiso   1.00
C21    C     0.46245   0.47128   0.30884   0.00000  Uiso   1.00
C22    C     0.48171   0.50113   0.38218   0.00000  Uiso   1.00
C23    C     0.42663   0.58373   0.43874   0.00000  Uiso   1.00
H24    H     0.32600   0.51621   0.19585   0.00000  Uiso   1.00
H25    H     0.48586   0.49717   0.07109   0.00000  Uiso   1.00
H26    H     0.19193   0.42166   0.17553   0.00000  Uiso   1.00
H27    H     0.28010   0.64400   0.33639   0.00000  Uiso   1.00
H28    H     0.69471   0.45362   0.93993   0.00000  Uiso   1.00
H29    H     0.07492   0.29442   0.16019   0.00000  Uiso   1.00
H30    H     0.26084   0.76326   0.49939   0.00000  Uiso   1.00
H31    H     0.56974   0.34347   0.25119   0.00000  Uiso   1.00
H32    H     0.74298   0.31496   0.12946   0.00000  Uiso   1.00
H33    H     0.44904   0.23944   0.23391   0.00000  Uiso   1.00
H34    H     0.53722   0.46178   0.39476   0.00000  Uiso   1.00
H35    H     0.90340   0.30572   0.98730   0.00000  Uiso   1.00
H36    H     0.28360   0.14652   0.20756   0.00000  Uiso   1.00
H37    H     0.46953   0.61536   0.54676   0.00000  Uiso   1.00
O38    O     0.90861   0.36401   0.88252   0.00000  Uiso   1.00
O39    O     0.09546   0.15515   0.17151   0.00000  Uiso   1.00
O40    O     0.33938   0.77025   0.61653   0.00000  Uiso   1.00
N41    N     0.72006   0.42274   0.96779   0.00000  Uiso   1.00
N42    N     0.14060   0.27389   0.17371   0.00000  Uiso   1.00
N43    N     0.31439   0.71221   0.49084   0.00000  Uiso   1.00
N44    N     0.83235   0.34316   0.99329   0.00000  Uiso   1.00
N45    N     0.25289   0.19431   0.19920   0.00000  Uiso   1.00
N46    N     0.42669   0.63263   0.51633   0.00000  Uiso   1.00
C47    C     0.59197   0.78357   0.26904   0.00000  Uiso   1.00
C48    C     0.65491   0.84960   0.29181   0.00000  Uiso   1.00
C49    C     0.62982   0.91527   0.36887   0.00000  Uiso   1.00
C50    C     0.69742   0.96897   0.37718   0.00000  Uiso   1.00
C51    C     0.78152   0.07329   0.42264   0.00000  Uiso   1.00
C52    C     0.55311   0.78628   0.20137   0.00000  Uiso   1.00
C53    C     0.44242   0.79870   0.20238   0.00000  Uiso   1.00
C54    C     0.42433   0.79908   0.13455   0.00000  Uiso   1.00
C55    C     0.35039   0.80503   0.03956   0.00000  Uiso   1.00
C56    C     0.68073   0.70016   0.23015   0.00000  Uiso   1.00
C57    C     0.67734   0.64015   0.25534   0.00000  Uiso   1.00
C58    C     0.76669   0.56802   0.21173   0.00000  Uiso   1.00
C59    C     0.89090   0.44026   0.16143   0.00000  Uiso   1.00
C60    C     0.75666   0.76216   0.14677   0.00000  Uiso   1.00
C61    C     0.74436   0.83797   0.22540   0.00000  Uiso   1.00
C62    C     0.81203   0.89159   0.23360   0.00000  Uiso   1.00
C63    C     0.78704   0.95732   0.31066   0.00000  Uiso   1.00
C64    C     0.64256   0.77465   0.13496   0.00000  Uiso   1.00
C65    C     0.62463   0.77501   0.06710   0.00000  Uiso   1.00
C66    C     0.51395   0.78743   0.06801   0.00000  Uiso   1.00
C67    C     0.77019   0.68853   0.16374   0.00000  Uiso   1.00
C68    C     0.85956   0.61647   0.12007   0.00000  Uiso   1.00
C69    C     0.85630   0.55637   0.14520   0.00000  Uiso   1.00
H70    H     0.52232   0.79262   0.32074   0.00000  Uiso   1.00
H71    H     0.56058   0.92425   0.42025   0.00000  Uiso   1.00
H72    H     0.37322   0.80769   0.25378   0.00000  Uiso   1.00
H73    H     0.60810   0.64917   0.30674   0.00000  Uiso   1.00
H74    H     0.64242   0.06508   0.50128   0.00000  Uiso   1.00
H75    H     0.24736   0.81926   0.15025   0.00000  Uiso   1.00
H76    H     0.74266   0.48500   0.26193   0.00000  Uiso   1.00
H77    H     0.82630   0.75311   0.09506   0.00000  Uiso   1.00
H78    H     0.88125   0.88257   0.18219   0.00000  Uiso   1.00
H79    H     0.69388   0.76601   0.01572   0.00000  Uiso   1.00
H80    H     0.92877   0.60749   0.06868   0.00000  Uiso   1.00
H81    H     0.90268   0.03125   0.30807   0.00000  Uiso   1.00
H82    H     0.50762   0.78543   0.95704   0.00000  Uiso   1.00
H83    H     0.00292   0.45117   0.06871   0.00000  Uiso   1.00
O84    O     0.80318   0.13406   0.46606   0.00000  Uiso   1.00
O85    O     0.28488   0.81154   0.00552   0.00000  Uiso   1.00
O86    O     0.93471   0.37301   0.15204   0.00000  Uiso   1.00
N87    N     0.69614   0.03934   0.44385   0.00000  Uiso   1.00
N88    N     0.32678   0.80953   0.11567   0.00000  Uiso   1.00
N89    N     0.78983   0.49702   0.22006   0.00000  Uiso   1.00
N90    N     0.83619   0.02114   0.33989   0.00000  Uiso   1.00
N91    N     0.46683   0.79133   0.01170   0.00000  Uiso   1.00
N92    N     0.92988   0.47881   0.11610   0.00000  Uiso   1.00
C93    C     0.85677   0.72058   0.51924   0.00000  Uiso   1.00
C94    C     0.93874   0.70004   0.55843   0.00000  Uiso   1.00
C95    C     0.98604   0.62147   0.54654   0.00000  Uiso   1.00
C96    C     0.05908   0.61568   0.58795   0.00000  Uiso   1.00
C97    C     0.18254   0.57310   0.64102   0.00000  Uiso   1.00
C98    C     0.75202   0.78549   0.58901   0.00000  Uiso   1.00
C99    C     0.64233   0.77875   0.60282   0.00000  Uiso   1.00
C100   C     0.55818   0.84489   0.66997   0.00000  Uiso   1.00
C101   C     0.39174   0.93499   0.77047   0.00000  Uiso   1.00
C102   C     0.91081   0.76491   0.47517   0.00000  Uiso   1.00
C103   C     0.93460   0.74089   0.39327   0.00000  Uiso   1.00
C104   C     0.98413   0.78973   0.36458   0.00000  Uiso   1.00
C105   C     0.06423   0.84788   0.28832   0.00000  Uiso   1.00
C106   C     0.90238   0.85002   0.61392   0.00000  Uiso   1.00
C107   C     0.96350   0.77036   0.60986   0.00000  Uiso   1.00
C108   C     0.03650   0.76468   0.65129   0.00000  Uiso   1.00
C109   C     0.08390   0.68611   0.63947   0.00000  Uiso   1.00
C110   C     0.77678   0.85579   0.64043   0.00000  Uiso   1.00
C111   C     0.69278   0.92196   0.70757   0.00000  Uiso   1.00
C112   C     0.58299   0.91533   0.72149   0.00000  Uiso   1.00
C113   C     0.93558   0.83522   0.52659   0.00000  Uiso   1.00
C114   C     0.98506   0.88410   0.49802   0.00000  Uiso   1.00
C115   C     0.00894   0.86016   0.41609   0.00000  Uiso   1.00
H116   H     0.83748   0.66584   0.47921   0.00000  Uiso   1.00
H117   H     0.96684   0.56707   0.50675   0.00000  Uiso   1.00
H118   H     0.62318   0.72434   0.56301   0.00000  Uiso   1.00
H119   H     0.91542   0.68648   0.35349   0.00000  Uiso   1.00
H120   H     0.12115   0.48858   0.55998   0.00000  Uiso   1.00
H121   H     0.39652   0.82019   0.67861   0.00000  Uiso   1.00
H122   H     0.01276   0.74037   0.23679   0.00000  Uiso   1.00
H123   H     0.92166   0.90476   0.65396   0.00000  Uiso   1.00
H124   H     0.05565   0.81910   0.69109   0.00000  Uiso   1.00
H125   H     0.71198   0.97636   0.74735   0.00000  Uiso   1.00
H126   H     0.00422   0.93851   0.53783   0.00000  Uiso   1.00
H127   H     0.19322   0.69314   0.70960   0.00000  Uiso   1.00
H128   H     0.46859   0.02475   0.82822   0.00000  Uiso   1.00
H129   H     0.08483   0.94492   0.38641   0.00000  Uiso   1.00
O130   O     0.24378   0.53020   0.65609   0.00000  Uiso   1.00
O131   O     0.29309   0.96526   0.81170   0.00000  Uiso   1.00
O132   O     0.10159   0.86053   0.23206   0.00000  Uiso   1.00
N133   N     0.11974   0.54848   0.59009   0.00000  Uiso   1.00
N134   N     0.44226   0.85850   0.70100   0.00000  Uiso   1.00
N135   N     0.01836   0.78389   0.28795   0.00000  Uiso   1.00
N136   N     0.15853   0.65855   0.67060   0.00000  Uiso   1.00
N137   N     0.48104   0.96857   0.78151   0.00000  Uiso   1.00
N138   N     0.05715   0.89396   0.36845   0.00000  Uiso   1.00
C139   C     0.61815   0.52336   0.79147   0.00000  Uiso   1.00
C140   C     0.49750   0.55765   0.85158   0.00000  Uiso   1.00
C141   C     0.45861   0.54216   0.91632   0.00000  Uiso   1.00
C142   C     0.34531   0.57935   0.96427   0.00000  Uiso   1.00
C143   C     0.16888   0.62490   0.06011   0.00000  Uiso   1.00
C144   C     0.65719   0.59869   0.79484   0.00000  Uiso   1.00
C145   C     0.75258   0.61769   0.81187   0.00000  Uiso   1.00
C146   C     0.77372   0.68942   0.81205   0.00000  Uiso   1.00
C147   C     0.84527   0.79864   0.81974   0.00000  Uiso   1.00
C148   C     0.60928   0.47788   0.70745   0.00000  Uiso   1.00
C149   C     0.66441   0.39532   0.65099   0.00000  Uiso   1.00
C150   C     0.64522   0.36535   0.57757   0.00000  Uiso   1.00
C151   C     0.64238   0.28700   0.44957   0.00000  Uiso   1.00
C152   C     0.48610   0.61695   0.76149   0.00000  Uiso   1.00
C153   C     0.42578   0.60849   0.83529   0.00000  Uiso   1.00
C154   C     0.31250   0.64571   0.88315   0.00000  Uiso   1.00
C155   C     0.27345   0.63028   0.94796   0.00000  Uiso   1.00
C156   C     0.58547   0.64952   0.77856   0.00000  Uiso   1.00
C157   C     0.60648   0.72124   0.77870   0.00000  Uiso   1.00
C158   C     0.70186   0.74035   0.79574   0.00000  Uiso   1.00
C159   C     0.53755   0.52872   0.69116   0.00000  Uiso   1.00
C160   C     0.51829   0.49887   0.61782   0.00000  Uiso   1.00
C161   C     0.57337   0.41627   0.56126   0.00000  Uiso   1.00
H162   H     0.67400   0.48379   0.80415   0.00000  Uiso   1.00
H163   H     0.51414   0.50283   0.92891   0.00000  Uiso   1.00
H164   H     0.80807   0.57834   0.82447   0.00000  Uiso   1.00
H165   H     0.71990   0.35600   0.66361   0.00000  Uiso   1.00
H166   H     0.30529   0.54638   0.06007   0.00000  Uiso   1.00
H167   H     0.92508   0.70558   0.83981   0.00000  Uiso   1.00
H168   H     0.73916   0.23674   0.50061   0.00000  Uiso   1.00
H169   H     0.43026   0.65653   0.74881   0.00000  Uiso   1.00
H170   H     0.25702   0.68504   0.87054   0.00000  Uiso   1.00
H171   H     0.55096   0.76056   0.76609   0.00000  Uiso   1.00
H172   H     0.46278   0.53822   0.60524   0.00000  Uiso   1.00
H173   H     0.09660   0.69427   0.01270   0.00000  Uiso   1.00
H174   H     0.71640   0.85348   0.79244   0.00000  Uiso   1.00
H175   H     0.53047   0.38464   0.45324   0.00000  Uiso   1.00
O176   O     0.09139   0.63599   0.11747   0.00000  Uiso   1.00
O177   O     0.90455   0.84485   0.82849   0.00000  Uiso   1.00
O178   O     0.66062   0.22974   0.38347   0.00000  Uiso   1.00
N179   N     0.27994   0.57726   0.03220   0.00000  Uiso   1.00
N180   N     0.85940   0.72611   0.82629   0.00000  Uiso   1.00
N181   N     0.68561   0.28779   0.50916   0.00000  Uiso   1.00
N182   N     0.16765   0.65684   0.00671   0.00000  Uiso   1.00
N183   N     0.74711   0.80569   0.80080   0.00000  Uiso   1.00
N184   N     0.57331   0.36737   0.48367   0.00000  Uiso   1.00
C185   C     0.40803   0.21643   0.73096   0.00000  Uiso   1.00
C186   C     0.34509   0.15040   0.70819   0.00000  Uiso   1.00
C187   C     0.37018   0.08473   0.63113   0.00000  Uiso   1.00
C188   C     0.30258   0.03103   0.62281   0.00000  Uiso   1.00
C189   C     0.21848   0.92671   0.57736   0.00000  Uiso   1.00
C190   C     0.44689   0.21372   0.79863   0.00000  Uiso   1.00
C191   C     0.55758   0.20130   0.79762   0.00000  Uiso   1.00
C192   C     0.57567   0.20092   0.86545   0.00000  Uiso   1.00
C193   C     0.64961   0.19496   0.96044   0.00000  Uiso   1.00
C194   C     0.31927   0.29984   0.76985   0.00000  Uiso   1.00
C195   C     0.32266   0.35985   0.74466   0.00000  Uiso   1.00
C196   C     0.23331   0.43198   0.78827   0.00000  Uiso   1.00
C197   C     0.10910   0.55974   0.83857   0.00000  Uiso   1.00
C198   C     0.24334   0.23784   0.85323   0.00000  Uiso   1.00
C199   C     0.25564   0.16203   0.77460   0.00000  Uiso   1.00
C200   C     0.18797   0.10841   0.76640   0.00000  Uiso   1.00
C201   C     0.21296   0.04268   0.68934   0.00000  Uiso   1.00
C202   C     0.35744   0.22535   0.86504   0.00000  Uiso   1.00
C203   C     0.37537   0.22499   0.93290   0.00000  Uiso   1.00
C204   C     0.48605   0.21257   0.93198   0.00000  Uiso   1.00
C205   C     0.22981   0.31147   0.83626   0.00000  Uiso   1.00
C206   C     0.14045   0.38353   0.87993   0.00000  Uiso   1.00
C207   C     0.14370   0.44363   0.85480   0.00000  Uiso   1.00
H208   H     0.47768   0.20738   0.67926   0.00000  Uiso   1.00
H209   H     0.43942   0.07575   0.57975   0.00000  Uiso   1.00
H210   H     0.62679   0.19231   0.74622   0.00000  Uiso   1.00
H211   H     0.39190   0.35083   0.69326   0.00000  Uiso   1.00
H212   H     0.35758   0.93492   0.49872   0.00000  Uiso   1.00
H213   H     0.75264   0.18074   0.84974   0.00000  Uiso   1.00
H214   H     0.25734   0.51500   0.73807   0.00000  Uiso   1.00
H215   H     0.17370   0.24689   0.90494   0.00000  Uiso   1.00
H216   H     0.11875   0.11743   0.81781   0.00000  Uiso   1.00
H217   H     0.30612   0.23399   0.98428   0.00000  Uiso   1.00
H218   H     0.07123   0.39251   0.93132   0.00000  Uiso   1.00
H219   H     0.09732   0.96875   0.69193   0.00000  Uiso   1.00
H220   H     0.49238   0.21457   0.04296   0.00000  Uiso   1.00
H221   H     0.99708   0.54882   0.93129   0.00000  Uiso   1.00
O222   O     0.19682   0.86594   0.53394   0.00000  Uiso   1.00
O223   O     0.71512   0.18846   0.99448   0.00000  Uiso   1.00
O224   O     0.06529   0.62699   0.84796   0.00000  Uiso   1.00
N225   N     0.30386   0.96066   0.55615   0.00000  Uiso   1.00
N226   N     0.67322   0.19047   0.88433   0.00000  Uiso   1.00
N227   N     0.21017   0.50298   0.77993   0.00000  Uiso   1.00
N228   N     0.16381   0.97886   0.66011   0.00000  Uiso   1.00
N229   N     0.53317   0.20867   0.98830   0.00000  Uiso   1.00
N230   N     0.07012   0.52119   0.88390   0.00000  Uiso   1.00
C231   C     0.14323   0.27942   0.48076   0.00000  Uiso   1.00
C232   C     0.06126   0.29996   0.44157   0.00000  Uiso   1.00
C233   C     0.01396   0.37853   0.45346   0.00000  Uiso   1.00
C234   C     0.94092   0.38432   0.41205   0.00000  Uiso   1.00
C235   C     0.81746   0.42690   0.35898   0.00000  Uiso   1.00
C236   C     0.24798   0.21451   0.41099   0.00000  Uiso   1.00
C237   C     0.35768   0.22125   0.39718   0.00000  Uiso   1.00
C238   C     0.44182   0.15511   0.33003   0.00000  Uiso   1.00
C239   C     0.60826   0.06501   0.22953   0.00000  Uiso   1.00
C240   C     0.08919   0.23509   0.52483   0.00000  Uiso   1.00
C241   C     0.06540   0.25911   0.60673   0.00000  Uiso   1.00
C242   C     0.01588   0.21027   0.63542   0.00000  Uiso   1.00
C243   C     0.93577   0.15212   0.71168   0.00000  Uiso   1.00
C244   C     0.09762   0.14998   0.38608   0.00000  Uiso   1.00
C245   C     0.03650   0.22964   0.39014   0.00000  Uiso   1.00
C246   C     0.96350   0.23532   0.34871   0.00000  Uiso   1.00
C247   C     0.91610   0.31389   0.36053   0.00000  Uiso   1.00
C248   C     0.22322   0.14421   0.35957   0.00000  Uiso   1.00
C249   C     0.30722   0.07804   0.29243   0.00000  Uiso   1.00
C250   C     0.41701   0.08467   0.27851   0.00000  Uiso   1.00
C251   C     0.06442   0.16478   0.47341   0.00000  Uiso   1.00
C252   C     0.01494   0.11590   0.50198   0.00000  Uiso   1.00
C253   C     0.99106   0.13984   0.58391   0.00000  Uiso   1.00
H254   H     0.16252   0.33416   0.52079   0.00000  Uiso   1.00
H255   H     0.03316   0.43293   0.49325   0.00000  Uiso   1.00
H256   H     0.37682   0.27566   0.43699   0.00000  Uiso   1.00
H257   H     0.08458   0.31352   0.64651   0.00000  Uiso   1.00
H258   H     0.87885   0.51142   0.44002   0.00000  Uiso   1.00
H259   H     0.60348   0.17981   0.32139   0.00000  Uiso   1.00
H260   H     0.98724   0.25963   0.76321   0.00000  Uiso   1.00
H261   H     0.07834   0.09524   0.34604   0.00000  Uiso   1.00
H262   H     0.94435   0.18090   0.30891   0.00000  Uiso   1.00
H263   H     0.28802   0.02364   0.25265   0.00000  Uiso   1.00
H264   H     0.99578   0.06149   0.46217   0.00000  Uiso   1.00
H265   H     0.80678   0.30686   0.29040   0.00000  Uiso   1.00
H266   H     0.53141   0.97525   0.17178   0.00000  Uiso   1.00
H267   H     0.91517   0.05508   0.61359   0.00000  Uiso   1.00
O268   O     0.75622   0.46980   0.34391   0.00000  Uiso   1.00
O269   O     0.70691   0.03474   0.18830   0.00000  Uiso   1.00
O270   O     0.89841   0.13947   0.76794   0.00000  Uiso   1.00
N271   N     0.88026   0.45152   0.40991   0.00000  Uiso   1.00
N272   N     0.55774   0.14150   0.29900   0.00000  Uiso   1.00
N273   N     0.98164   0.21611   0.71205   0.00000  Uiso   1.00
N274   N     0.84147   0.34145   0.32940   0.00000  Uiso   1.00
N275   N     0.51896   0.03143   0.21849   0.00000  Uiso   1.00
N276   N     0.94285   0.10604   0.63155   0.00000  Uiso   1.00
