data_job_06873
_audit_creation_date              2018-12-19
_audit_creation_method            'Materials Studio'
_symmetry_space_group_name_H-M    'P1'
_symmetry_Int_Tables_number       1
_symmetry_cell_setting            triclinic
loop_
_symmetry_equiv_pos_as_xyz
  x,y,z
_cell_length_a                    19.9302
_cell_length_b                    23.4232
_cell_length_c                    22.4752
_cell_angle_alpha                 76.6430
_cell_angle_beta                  113.0900
_cell_angle_gamma                 93.4886
loop_
_atom_site_label
_atom_site_type_symbol
_atom_site_fract_x
_atom_site_fract_y
_atom_site_fract_z
_atom_site_U_iso_or_equiv
_atom_site_adp_type
_atom_site_occupancy
C1     C     0.65176   0.20756   0.26676   0.00000  Uiso   1.00
C2     C     0.63800   0.19080   0.20139   0.00000  Uiso   1.00
C3     C     0.68549   0.15809   0.18976   0.00000  Uiso   1.00
C4     C     0.66284   0.14747   0.12660   0.00000  Uiso   1.00
C5     C     0.65179   0.11821   0.03265   0.00000  Uiso   1.00
C6     C     0.64396   0.27434   0.25060   0.00000  Uiso   1.00
C7     C     0.69646   0.31187   0.28036   0.00000  Uiso   1.00
C8     C     0.67882   0.37158   0.25863   0.00000  Uiso   1.00
C9     C     0.67701   0.47203   0.24111   0.00000  Uiso   1.00
C10    C     0.58787   0.18449   0.28558   0.00000  Uiso   1.00
C11    C     0.59322   0.14649   0.34476   0.00000  Uiso   1.00
C12    C     0.52835   0.13057   0.35248   0.00000  Uiso   1.00
C13    C     0.43946   0.09151   0.38928   0.00000  Uiso   1.00
C14    C     0.52707   0.24686   0.17525   0.00000  Uiso   1.00
C15    C     0.57027   0.21214   0.15169   0.00000  Uiso   1.00
C16    C     0.54754   0.20157   0.08853   0.00000  Uiso   1.00
C17    C     0.59499   0.16885   0.07681   0.00000  Uiso   1.00
C18    C     0.57623   0.29569   0.20090   0.00000  Uiso   1.00
C19    C     0.55851   0.35536   0.17912   0.00000  Uiso   1.00
C20    C     0.61098   0.39297   0.20884   0.00000  Uiso   1.00
C21    C     0.52014   0.20584   0.23588   0.00000  Uiso   1.00
C22    C     0.45526   0.18997   0.24351   0.00000  Uiso   1.00
C23    C     0.46051   0.15196   0.30269   0.00000  Uiso   1.00
H24    H     0.70449   0.19095   0.30545   0.00000  Uiso   1.00
H25    H     0.73791   0.14158   0.22824   0.00000  Uiso   1.00
H26    H     0.74887   0.29534   0.31882   0.00000  Uiso   1.00
H27    H     0.64564   0.12998   0.38320   0.00000  Uiso   1.00
H28    H     0.74510   0.09628   0.12071   0.00000  Uiso   1.00
H29    H     0.76821   0.42049   0.31172   0.00000  Uiso   1.00
H30    H     0.55052   0.07181   0.44749   0.00000  Uiso   1.00
H31    H     0.47434   0.26349   0.13656   0.00000  Uiso   1.00
H32    H     0.49512   0.21810   0.05008   0.00000  Uiso   1.00
H33    H     0.50609   0.37186   0.14066   0.00000  Uiso   1.00
H34    H     0.40286   0.20650   0.20504   0.00000  Uiso   1.00
H35    H     0.54805   0.15839   0.97611   0.00000  Uiso   1.00
H36    H     0.57116   0.48260   0.16713   0.00000  Uiso   1.00
H37    H     0.35348   0.13391   0.30289   0.00000  Uiso   1.00
O38    O     0.66441   0.09618   0.99456   0.00000  Uiso   1.00
O39    O     0.69473   0.52153   0.24517   0.00000  Uiso   1.00
O40    O     0.40913   0.06406   0.42330   0.00000  Uiso   1.00
N41    N     0.69587   0.11712   0.09855   0.00000  Uiso   1.00
N42    N     0.71748   0.42024   0.27713   0.00000  Uiso   1.00
N43    N     0.51396   0.09425   0.40407   0.00000  Uiso   1.00
N44    N     0.58984   0.15053   0.02074   0.00000  Uiso   1.00
N45    N     0.61144   0.45365   0.19932   0.00000  Uiso   1.00
N46    N     0.40793   0.12767   0.32626   0.00000  Uiso   1.00
C47    C     0.25807   0.64061   0.18712   0.00000  Uiso   1.00
C48    C     0.19073   0.63851   0.12454   0.00000  Uiso   1.00
C49    C     0.17468   0.67588   0.06265   0.00000  Uiso   1.00
C50    C     0.11038   0.66678   0.01170   0.00000  Uiso   1.00
C51    C     0.01287   0.67035   0.91292   0.00000  Uiso   1.00
C52    C     0.22967   0.64690   0.23926   0.00000  Uiso   1.00
C53    C     0.24637   0.69132   0.27384   0.00000  Uiso   1.00
C54    C     0.21486   0.68927   0.31948   0.00000  Uiso   1.00
C55    C     0.17786   0.70585   0.39884   0.00000  Uiso   1.00
C56    C     0.29510   0.57981   0.21098   0.00000  Uiso   1.00
C57    C     0.36683   0.56783   0.22179   0.00000  Uiso   1.00
C58    C     0.39041   0.50930   0.24363   0.00000  Uiso   1.00
C59    C     0.45500   0.42171   0.27907   0.00000  Uiso   1.00
C60    C     0.17241   0.55798   0.20669   0.00000  Uiso   1.00
C61    C     0.14421   0.59362   0.13517   0.00000  Uiso   1.00
C62    C     0.07991   0.58446   0.08431   0.00000  Uiso   1.00
C63    C     0.06377   0.62181   0.02235   0.00000  Uiso   1.00
C64    C     0.18315   0.60202   0.24990   0.00000  Uiso   1.00
C65    C     0.15160   0.59990   0.29550   0.00000  Uiso   1.00
C66    C     0.16825   0.64431   0.33013   0.00000  Uiso   1.00
C67    C     0.24858   0.53493   0.22161   0.00000  Uiso   1.00
C68    C     0.27205   0.47640   0.24344   0.00000  Uiso   1.00
C69    C     0.34380   0.46433   0.25428   0.00000  Uiso   1.00
H70    H     0.29429   0.67556   0.17885   0.00000  Uiso   1.00
H71    H     0.21070   0.71061   0.05445   0.00000  Uiso   1.00
H72    H     0.28239   0.72605   0.26561   0.00000  Uiso   1.00
H73    H     0.40281   0.60257   0.21356   0.00000  Uiso   1.00
H74    H     0.09748   0.72970   0.92122   0.00000  Uiso   1.00
H75    H     0.24866   0.76223   0.36648   0.00000  Uiso   1.00
H76    H     0.50262   0.50186   0.25673   0.00000  Uiso   1.00
H77    H     0.13619   0.52304   0.21497   0.00000  Uiso   1.00
H78    H     0.04392   0.54972   0.09255   0.00000  Uiso   1.00
H79    H     0.11561   0.56516   0.30371   0.00000  Uiso   1.00
H80    H     0.23604   0.44168   0.25166   0.00000  Uiso   1.00
H81    H     0.96212   0.59912   0.95214   0.00000  Uiso   1.00
H82    H     0.11330   0.63165   0.39741   0.00000  Uiso   1.00
H83    H     0.36725   0.37128   0.28765   0.00000  Uiso   1.00
O84    O     0.97194   0.68473   0.85550   0.00000  Uiso   1.00
O85    O     0.17030   0.72740   0.43967   0.00000  Uiso   1.00
O86    O     0.50347   0.38580   0.29568   0.00000  Uiso   1.00
N87    N     0.07830   0.69530   0.94529   0.00000  Uiso   1.00
N88    N     0.21963   0.72572   0.36158   0.00000  Uiso   1.00
N89    N     0.45706   0.48229   0.25899   0.00000  Uiso   1.00
N90    N     0.00546   0.62503   0.96193   0.00000  Uiso   1.00
N91    N     0.14679   0.65545   0.37822   0.00000  Uiso   1.00
N92    N     0.38422   0.41203   0.27563   0.00000  Uiso   1.00
C93    C     0.21039   0.20624   0.56418   0.00000  Uiso   1.00
C94    C     0.15872   0.15540   0.55342   0.00000  Uiso   1.00
C95    C     0.08415   0.15851   0.53750   0.00000  Uiso   1.00
C96    C     0.04649   0.10711   0.52974   0.00000  Uiso   1.00
C97    C     0.96083   0.03617   0.51187   0.00000  Uiso   1.00
C98    C     0.26976   0.18626   0.63338   0.00000  Uiso   1.00
C99    C     0.28856   0.21532   0.68468   0.00000  Uiso   1.00
C100   C     0.34437   0.18990   0.74423   0.00000  Uiso   1.00
C101   C     0.43114   0.16688   0.85047   0.00000  Uiso   1.00
C102   C     0.24772   0.21071   0.51570   0.00000  Uiso   1.00
C103   C     0.24802   0.26033   0.46808   0.00000  Uiso   1.00
C104   C     0.28530   0.25550   0.42856   0.00000  Uiso   1.00
C105   C     0.33786   0.27045   0.35210   0.00000  Uiso   1.00
C106   C     0.27609   0.10942   0.57870   0.00000  Uiso   1.00
C107   C     0.19441   0.10282   0.56131   0.00000  Uiso   1.00
C108   C     0.15685   0.05140   0.55357   0.00000  Uiso   1.00
C109   C     0.08224   0.05444   0.53764   0.00000  Uiso   1.00
C110   C     0.30544   0.13367   0.64127   0.00000  Uiso   1.00
C111   C     0.36125   0.10821   0.70075   0.00000  Uiso   1.00
C112   C     0.38012   0.13722   0.75213   0.00000  Uiso   1.00
C113   C     0.28341   0.15812   0.52359   0.00000  Uiso   1.00
C114   C     0.32071   0.15322   0.48415   0.00000  Uiso   1.00
C115   C     0.32105   0.20282   0.43647   0.00000  Uiso   1.00
H116   H     0.18261   0.24718   0.55804   0.00000  Uiso   1.00
H117   H     0.05656   0.19921   0.53141   0.00000  Uiso   1.00
H118   H     0.26094   0.25601   0.67856   0.00000  Uiso   1.00
H119   H     0.22040   0.30102   0.46199   0.00000  Uiso   1.00
H120   H     0.93255   0.12284   0.50538   0.00000  Uiso   1.00
H121   H     0.36350   0.24262   0.81565   0.00000  Uiso   1.00
H122   H     0.27802   0.33752   0.35897   0.00000  Uiso   1.00
H123   H     0.30388   0.06848   0.58484   0.00000  Uiso   1.00
H124   H     0.18448   0.01071   0.55968   0.00000  Uiso   1.00
H125   H     0.38886   0.06752   0.70683   0.00000  Uiso   1.00
H126   H     0.34832   0.11252   0.49026   0.00000  Uiso   1.00
H127   H     0.03637   0.96985   0.52833   0.00000  Uiso   1.00
H128   H     0.46733   0.08963   0.83860   0.00000  Uiso   1.00
H129   H     0.38185   0.18453   0.38192   0.00000  Uiso   1.00
O130   O     0.90373   0.01156   0.49984   0.00000  Uiso   1.00
O131   O     0.46914   0.16871   0.90689   0.00000  Uiso   1.00
O132   O     0.35698   0.29322   0.30774   0.00000  Uiso   1.00
N133   N     0.97337   0.09477   0.51422   0.00000  Uiso   1.00
N134   N     0.37628   0.20675   0.80431   0.00000  Uiso   1.00
N135   N     0.29637   0.29547   0.37737   0.00000  Uiso   1.00
N136   N     0.02923   0.01244   0.52657   0.00000  Uiso   1.00
N137   N     0.43214   0.12442   0.81666   0.00000  Uiso   1.00
N138   N     0.35224   0.21315   0.38971   0.00000  Uiso   1.00
C139   C     0.11233   0.78510   0.67280   0.00000  Uiso   1.00
C140   C     0.08981   0.73792   0.63253   0.00000  Uiso   1.00
C141   C     0.10469   0.73717   0.57734   0.00000  Uiso   1.00
C142   C     0.07940   0.69014   0.54744   0.00000  Uiso   1.00
C143   C     0.05036   0.62365   0.48120   0.00000  Uiso   1.00
C144   C     0.15619   0.75319   0.74425   0.00000  Uiso   1.00
C145   C     0.22687   0.76529   0.78300   0.00000  Uiso   1.00
C146   C     0.25745   0.73113   0.84715   0.00000  Uiso   1.00
C147   C     0.33144   0.68839   0.95439   0.00000  Uiso   1.00
C148   C     0.04211   0.80788   0.67249   0.00000  Uiso   1.00
C149   C     0.01687   0.86596   0.65092   0.00000  Uiso   1.00
C150   C     0.95141   0.87784   0.65468   0.00000  Uiso   1.00
C151   C     0.84827   0.92000   0.65050   0.00000  Uiso   1.00
C152   C     0.04098   0.70293   0.71784   0.00000  Uiso   1.00
C153   C     0.05106   0.69328   0.65699   0.00000  Uiso   1.00
C154   C     0.02574   0.64625   0.62717   0.00000  Uiso   1.00
C155   C     0.04057   0.64543   0.57194   0.00000  Uiso   1.00
C156   C     0.11744   0.70856   0.76872   0.00000  Uiso   1.00
C157   C     0.14792   0.67438   0.83283   0.00000  Uiso   1.00
C158   C     0.21863   0.68642   0.87166   0.00000  Uiso   1.00
C159   C     0.00335   0.76324   0.69696   0.00000  Uiso   1.00
C160   C     0.93792   0.77504   0.70075   0.00000  Uiso   1.00
C161   C     0.91258   0.83312   0.67919   0.00000  Uiso   1.00
H162   H     0.14251   0.81985   0.65376   0.00000  Uiso   1.00
H163   H     0.13469   0.77171   0.55842   0.00000  Uiso   1.00
H164   H     0.25684   0.79984   0.76406   0.00000  Uiso   1.00
H165   H     0.04687   0.90048   0.63200   0.00000  Uiso   1.00
H166   H     0.10895   0.69865   0.46353   0.00000  Uiso   1.00
H167   H     0.36651   0.75797   0.89712   0.00000  Uiso   1.00
H168   H     0.92375   0.97020   0.61865   0.00000  Uiso   1.00
H169   H     0.01081   0.66818   0.73689   0.00000  Uiso   1.00
H170   H     0.99575   0.61172   0.64611   0.00000  Uiso   1.00
H171   H     0.11791   0.63984   0.85174   0.00000  Uiso   1.00
H172   H     0.90794   0.74049   0.71969   0.00000  Uiso   1.00
H173   H     0.99618   0.56879   0.53470   0.00000  Uiso   1.00
H174   H     0.25375   0.62811   0.96830   0.00000  Uiso   1.00
H175   H     0.81099   0.84034   0.68983   0.00000  Uiso   1.00
O176   O     0.04506   0.59930   0.43791   0.00000  Uiso   1.00
O177   O     0.38297   0.67714   0.00677   0.00000  Uiso   1.00
O178   O     0.80208   0.95558   0.64142   0.00000  Uiso   1.00
N179   N     0.08446   0.67584   0.49273   0.00000  Uiso   1.00
N180   N     0.32527   0.73130   0.89811   0.00000  Uiso   1.00
N181   N     0.91134   0.92972   0.63778   0.00000  Uiso   1.00
N182   N     0.02378   0.60596   0.53103   0.00000  Uiso   1.00
N183   N     0.26459   0.66142   0.93641   0.00000  Uiso   1.00
N184   N     0.85066   0.85984   0.67608   0.00000  Uiso   1.00
C185   C     0.77748   0.76303   0.05067   0.00000  Uiso   1.00
C186   C     0.71139   0.73134   0.05875   0.00000  Uiso   1.00
C187   C     0.71357   0.67977   0.10480   0.00000  Uiso   1.00
C188   C     0.64710   0.65777   0.10425   0.00000  Uiso   1.00
C189   C     0.55454   0.60423   0.12366   0.00000  Uiso   1.00
C190   C     0.77088   0.82535   0.05796   0.00000  Uiso   1.00
C191   C     0.82309   0.85282   0.10334   0.00000  Uiso   1.00
C192   C     0.80670   0.90995   0.10212   0.00000  Uiso   1.00
C193   C     0.80653   0.00238   0.12027   0.00000  Uiso   1.00
C194   C     0.76663   0.76848   0.97852   0.00000  Uiso   1.00
C195   C     0.81527   0.74815   0.95711   0.00000  Uiso   1.00
C196   C     0.79531   0.75743   0.88900   0.00000  Uiso   1.00
C197   C     0.78854   0.76156   0.78382   0.00000  Uiso   1.00
C198   C     0.65556   0.81567   0.96780   0.00000  Uiso   1.00
C199   C     0.64517   0.75994   0.01374   0.00000  Uiso   1.00
C200   C     0.57868   0.73801   0.01311   0.00000  Uiso   1.00
C201   C     0.58076   0.68641   0.05915   0.00000  Uiso   1.00
C202   C     0.70466   0.85394   0.01295   0.00000  Uiso   1.00
C203   C     0.68820   0.91105   0.01165   0.00000  Uiso   1.00
C204   C     0.74036   0.93860   0.05702   0.00000  Uiso   1.00
C205   C     0.70041   0.79708   0.93351   0.00000  Uiso   1.00
C206   C     0.68037   0.80639   0.86542   0.00000  Uiso   1.00
C207   C     0.72897   0.78607   0.84391   0.00000  Uiso   1.00
H208   H     0.82904   0.74078   0.08572   0.00000  Uiso   1.00
H209   H     0.76483   0.65766   0.13963   0.00000  Uiso   1.00
H210   H     0.87433   0.83068   0.13817   0.00000  Uiso   1.00
H211   H     0.86651   0.72603   0.99196   0.00000  Uiso   1.00
H212   H     0.66443   0.57813   0.17957   0.00000  Uiso   1.00
H213   H     0.89534   0.94296   0.17647   0.00000  Uiso   1.00
H214   H     0.87884   0.72229   0.86816   0.00000  Uiso   1.00
H215   H     0.60400   0.83794   0.93275   0.00000  Uiso   1.00
H216   H     0.52744   0.76014   0.97827   0.00000  Uiso   1.00
H217   H     0.63695   0.93317   0.97681   0.00000  Uiso   1.00
H218   H     0.62912   0.82852   0.83060   0.00000  Uiso   1.00
H219   H     0.47176   0.66131   0.04860   0.00000  Uiso   1.00
H220   H     0.70267   0.02614   0.04550   0.00000  Uiso   1.00
H221   H     0.68617   0.80547   0.73719   0.00000  Uiso   1.00
O222   O     0.52179   0.56680   0.14680   0.00000  Uiso   1.00
O223   O     0.82474   0.04545   0.14272   0.00000  Uiso   1.00
O224   O     0.80309   0.75593   0.73823   0.00000  Uiso   1.00
N225   N     0.62959   0.60837   0.14249   0.00000  Uiso   1.00
N226   N     0.84547   0.94947   0.13960   0.00000  Uiso   1.00
N227   N     0.83006   0.74317   0.85135   0.00000  Uiso   1.00
N228   N     0.52592   0.65313   0.07202   0.00000  Uiso   1.00
N229   N     0.74180   0.99423   0.06913   0.00000  Uiso   1.00
N230   N     0.72639   0.78793   0.78088   0.00000  Uiso   1.00
C231   C     0.70128   0.23813   0.71922   0.00000  Uiso   1.00
C232   C     0.64920   0.26523   0.64852   0.00000  Uiso   1.00
C233   C     0.58184   0.29224   0.63056   0.00000  Uiso   1.00
C234   C     0.54242   0.31427   0.56327   0.00000  Uiso   1.00
C235   C     0.45746   0.35712   0.46074   0.00000  Uiso   1.00
C236   C     0.77348   0.26851   0.72890   0.00000  Uiso   1.00
C237   C     0.81061   0.29826   0.77852   0.00000  Uiso   1.00
C238   C     0.87581   0.32304   0.77890   0.00000  Uiso   1.00
C239   C     0.98382   0.37093   0.80118   0.00000  Uiso   1.00
C240   C     0.71528   0.17457   0.72022   0.00000  Uiso   1.00
C241   C     0.70350   0.12533   0.76256   0.00000  Uiso   1.00
C242   C     0.71973   0.07102   0.75564   0.00000  Uiso   1.00
C243   C     0.73738   0.97306   0.76445   0.00000  Uiso   1.00
C244   C     0.75107   0.22924   0.63165   0.00000  Uiso   1.00
C245   C     0.67625   0.26041   0.60096   0.00000  Uiso   1.00
C246   C     0.63692   0.28240   0.53368   0.00000  Uiso   1.00
C247   C     0.56951   0.30943   0.51562   0.00000  Uiso   1.00
C248   C     0.80052   0.26368   0.68134   0.00000  Uiso   1.00
C249   C     0.86569   0.28842   0.68164   0.00000  Uiso   1.00
C250   C     0.90290   0.31821   0.73125   0.00000  Uiso   1.00
C251   C     0.74233   0.16974   0.67266   0.00000  Uiso   1.00
C252   C     0.75858   0.11550   0.66567   0.00000  Uiso   1.00
C253   C     0.74682   0.06619   0.70799   0.00000  Uiso   1.00
H254   H     0.68023   0.24189   0.75625   0.00000  Uiso   1.00
H255   H     0.56093   0.29597   0.66739   0.00000  Uiso   1.00
H256   H     0.78967   0.30198   0.81533   0.00000  Uiso   1.00
H257   H     0.68257   0.12909   0.79936   0.00000  Uiso   1.00
H258   H     0.44060   0.35382   0.54789   0.00000  Uiso   1.00
H259   H     0.92292   0.36648   0.85985   0.00000  Uiso   1.00
H260   H     0.69709   0.00189   0.82619   0.00000  Uiso   1.00
H261   H     0.77212   0.22548   0.59462   0.00000  Uiso   1.00
H262   H     0.65786   0.27866   0.49688   0.00000  Uiso   1.00
H263   H     0.88660   0.28468   0.64483   0.00000  Uiso   1.00
H264   H     0.77951   0.11178   0.62886   0.00000  Uiso   1.00
H265   H     0.51928   0.33977   0.40951   0.00000  Uiso   1.00
H266   H     0.00160   0.35243   0.72146   0.00000  Uiso   1.00
H267   H     0.77577   0.98784   0.68780   0.00000  Uiso   1.00
O268   O     0.40313   0.38209   0.41732   0.00000  Uiso   1.00
O269   O     0.03591   0.39869   0.82661   0.00000  Uiso   1.00
O270   O     0.73963   0.92036   0.78244   0.00000  Uiso   1.00
N271   N     0.47479   0.34320   0.52873   0.00000  Uiso   1.00
N272   N     0.92572   0.35505   0.82039   0.00000  Uiso   1.00
N273   N     0.71461   0.01419   0.78893   0.00000  Uiso   1.00
N274   N     0.51713   0.33564   0.45427   0.00000  Uiso   1.00
N275   N     0.96806   0.34749   0.74592   0.00000  Uiso   1.00
N276   N     0.75695   0.00663   0.71446   0.00000  Uiso   1.00
C277   C     0.34900   0.90137   0.67188   0.00000  Uiso   1.00
C278   C     0.36359   0.91991   0.73647   0.00000  Uiso   1.00
C279   C     0.31808   0.95586   0.74656   0.00000  Uiso   1.00
C280   C     0.34119   0.96764   0.80923   0.00000  Uiso   1.00
C281   C     0.35375   0.99996   0.90183   0.00000  Uiso   1.00
C282   C     0.35241   0.83442   0.68913   0.00000  Uiso   1.00
C283   C     0.29749   0.79850   0.65941   0.00000  Uiso   1.00
C284   C     0.31120   0.73831   0.68223   0.00000  Uiso   1.00
C285   C     0.30641   0.63791   0.70129   0.00000  Uiso   1.00
C286   C     0.41458   0.92030   0.65402   0.00000  Uiso   1.00
C287   C     0.41195   0.95657   0.59476   0.00000  Uiso   1.00
C288   C     0.47800   0.96868   0.58801   0.00000  Uiso   1.00
C289   C     0.56976   0.00161   0.55254   0.00000  Uiso   1.00
C290   C     0.47097   0.85836   0.76524   0.00000  Uiso   1.00
C291   C     0.42984   0.89655   0.78718   0.00000  Uiso   1.00
C292   C     0.45303   0.90828   0.84985   0.00000  Uiso   1.00
C293   C     0.40756   0.94424   0.86003   0.00000  Uiso   1.00
C294   C     0.41865   0.81106   0.73984   0.00000  Uiso   1.00
C295   C     0.43244   0.75091   0.76270   0.00000  Uiso   1.00
C296   C     0.37756   0.71491   0.73303   0.00000  Uiso   1.00
C297   C     0.48084   0.89694   0.70472   0.00000  Uiso   1.00
C298   C     0.54690   0.90899   0.69806   0.00000  Uiso   1.00
C299   C     0.54437   0.94527   0.63880   0.00000  Uiso   1.00
H300   H     0.29742   0.91955   0.63240   0.00000  Uiso   1.00
H301   H     0.26681   0.97393   0.70731   0.00000  Uiso   1.00
H302   H     0.24623   0.81659   0.62017   0.00000  Uiso   1.00
H303   H     0.36068   0.97464   0.55553   0.00000  Uiso   1.00
H304   H     0.26208   0.02389   0.81273   0.00000  Uiso   1.00
H305   H     0.21870   0.69214   0.62897   0.00000  Uiso   1.00
H306   H     0.46002   0.02541   0.49267   0.00000  Uiso   1.00
H307   H     0.52255   0.84017   0.80472   0.00000  Uiso   1.00
H308   H     0.50430   0.89020   0.88909   0.00000  Uiso   1.00
H309   H     0.48372   0.73285   0.80194   0.00000  Uiso   1.00
H310   H     0.59816   0.89090   0.73731   0.00000  Uiso   1.00
H311   H     0.45483   0.95593   0.96026   0.00000  Uiso   1.00
H312   H     0.41145   0.62417   0.77651   0.00000  Uiso   1.00
H313   H     0.65278   0.95745   0.64020   0.00000  Uiso   1.00
O314   O     0.34237   0.02424   0.93889   0.00000  Uiso   1.00
O315   O     0.28547   0.58898   0.69780   0.00000  Uiso   1.00
O316   O     0.60207   0.02624   0.51898   0.00000  Uiso   1.00
N317   N     0.30995   0.00104   0.83587   0.00000  Uiso   1.00
N318   N     0.26939   0.69087   0.66408   0.00000  Uiso   1.00
N319   N     0.49501   0.00244   0.53664   0.00000  Uiso   1.00
N320   N     0.41367   0.96447   0.91526   0.00000  Uiso   1.00
N321   N     0.37311   0.65430   0.74346   0.00000  Uiso   1.00
N322   N     0.59873   0.96587   0.61602   0.00000  Uiso   1.00
C323   C     0.73524   0.47765   0.75529   0.00000  Uiso   1.00
C324   C     0.80482   0.47713   0.81681   0.00000  Uiso   1.00
C325   C     0.82093   0.43954   0.87859   0.00000  Uiso   1.00
C326   C     0.88746   0.44606   0.92849   0.00000  Uiso   1.00
C327   C     0.98812   0.43876   0.02576   0.00000  Uiso   1.00
C328   C     0.75977   0.46967   0.70133   0.00000  Uiso   1.00
C329   C     0.73800   0.42581   0.66601   0.00000  Uiso   1.00
C330   C     0.76660   0.42605   0.61870   0.00000  Uiso   1.00
C331   C     0.79728   0.40719   0.53666   0.00000  Uiso   1.00
C332   C     0.70247   0.53988   0.73318   0.00000  Uiso   1.00
C333   C     0.63251   0.55507   0.72461   0.00000  Uiso   1.00
C334   C     0.61286   0.61443   0.70410   0.00000  Uiso   1.00
C335   C     0.55457   0.70459   0.67150   0.00000  Uiso   1.00
C336   C     0.82474   0.55607   0.73407   0.00000  Uiso   1.00
C337   C     0.85344   0.51972   0.80528   0.00000  Uiso   1.00
C338   C     0.91996   0.52631   0.85511   0.00000  Uiso   1.00
C339   C     0.93617   0.48874   0.91695   0.00000  Uiso   1.00
C340   C     0.80839   0.51226   0.68981   0.00000  Uiso   1.00
C341   C     0.83702   0.51257   0.64253   0.00000  Uiso   1.00
C342   C     0.81530   0.46873   0.60715   0.00000  Uiso   1.00
C343   C     0.75108   0.58248   0.72165   0.00000  Uiso   1.00
C344   C     0.73154   0.64183   0.70114   0.00000  Uiso   1.00
C345   C     0.66156   0.65710   0.69255   0.00000  Uiso   1.00
H346   H     0.69739   0.44448   0.76426   0.00000  Uiso   1.00
H347   H     0.78330   0.40658   0.88749   0.00000  Uiso   1.00
H348   H     0.70037   0.39285   0.67494   0.00000  Uiso   1.00
H349   H     0.59490   0.52209   0.73354   0.00000  Uiso   1.00
H350   H     0.89999   0.38333   0.01901   0.00000  Uiso   1.00
H351   H     0.72511   0.35440   0.57084   0.00000  Uiso   1.00
H352   H     0.50271   0.62692   0.69440   0.00000  Uiso   1.00
H353   H     0.86260   0.58923   0.72509   0.00000  Uiso   1.00
H354   H     0.95757   0.55927   0.84617   0.00000  Uiso   1.00
H355   H     0.87464   0.54555   0.63362   0.00000  Uiso   1.00
H356   H     0.76917   0.67478   0.69222   0.00000  Uiso   1.00
H357   H     0.04144   0.50726   0.98548   0.00000  Uiso   1.00
H358   H     0.86656   0.47833   0.53730   0.00000  Uiso   1.00
H359   H     0.64415   0.75085   0.66086   0.00000  Uiso   1.00
O360   O     0.03022   0.42296   0.08260   0.00000  Uiso   1.00
O361   O     0.80077   0.38501   0.49460   0.00000  Uiso   1.00
O362   O     0.50899   0.74255   0.65671   0.00000  Uiso   1.00
N363   N     0.92024   0.41661   0.99451   0.00000  Uiso   1.00
N364   N     0.75675   0.38956   0.57550   0.00000  Uiso   1.00
N365   N     0.54881   0.64434   0.69100   0.00000  Uiso   1.00
N366   N     0.99635   0.48330   0.97647   0.00000  Uiso   1.00
N367   N     0.83286   0.45625   0.55745   0.00000  Uiso   1.00
N368   N     0.62492   0.71103   0.67295   0.00000  Uiso   1.00
C369   C     0.79296   0.82529   0.36727   0.00000  Uiso   1.00
C370   C     0.86645   0.85399   0.37909   0.00000  Uiso   1.00
C371   C     0.93173   0.82537   0.39328   0.00000  Uiso   1.00
C372   C     0.99295   0.85942   0.40243   0.00000  Uiso   1.00
C373   C     0.10767   0.89478   0.42150   0.00000  Uiso   1.00
C374   C     0.74070   0.85824   0.29916   0.00000  Uiso   1.00
C375   C     0.70023   0.83320   0.24614   0.00000  Uiso   1.00
C376   C     0.65558   0.87084   0.18800   0.00000  Uiso   1.00
C377   C     0.57501   0.91280   0.08299   0.00000  Uiso   1.00
C378   C     0.76668   0.83996   0.41740   0.00000  Uiso   1.00
C379   C     0.74804   0.79953   0.46378   0.00000  Uiso   1.00
C380   C     0.72525   0.82177   0.50518   0.00000  Uiso   1.00
C381   C     0.68503   0.83535   0.58375   0.00000  Uiso   1.00
C382   C     0.78559   0.93666   0.35830   0.00000  Uiso   1.00
C383   C     0.86245   0.91448   0.37422   0.00000  Uiso   1.00
C384   C     0.92359   0.94859   0.38335   0.00000  Uiso   1.00
C385   C     0.98895   0.92002   0.39755   0.00000  Uiso   1.00
C386   C     0.73669   0.91873   0.29428   0.00000  Uiso   1.00
C387   C     0.69208   0.95642   0.23621   0.00000  Uiso   1.00
C388   C     0.65157   0.93144   0.18312   0.00000  Uiso   1.00
C389   C     0.76268   0.90045   0.41252   0.00000  Uiso   1.00
C390   C     0.73990   0.92275   0.45385   0.00000  Uiso   1.00
C391   C     0.72124   0.88238   0.50030   0.00000  Uiso   1.00
H392   H     0.79607   0.77819   0.37106   0.00000  Uiso   1.00
H393   H     0.93481   0.77855   0.39704   0.00000  Uiso   1.00
H394   H     0.70334   0.78638   0.24993   0.00000  Uiso   1.00
H395   H     0.75115   0.75273   0.46754   0.00000  Uiso   1.00
H396   H     0.08685   0.80563   0.42367   0.00000  Uiso   1.00
H397   H     0.59876   0.82214   0.11348   0.00000  Uiso   1.00
H398   H     0.69958   0.75117   0.57236   0.00000  Uiso   1.00
H399   H     0.78248   0.98376   0.35450   0.00000  Uiso   1.00
H400   H     0.92047   0.99540   0.37957   0.00000  Uiso   1.00
H401   H     0.68900   0.00323   0.23246   0.00000  Uiso   1.00
H402   H     0.73681   0.96957   0.45007   0.00000  Uiso   1.00
H403   H     0.07522   0.98163   0.40949   0.00000  Uiso   1.00
H404   H     0.58712   0.99814   0.09930   0.00000  Uiso   1.00
H405   H     0.68794   0.92717   0.55818   0.00000  Uiso   1.00
O406   O     0.17205   0.89758   0.43335   0.00000  Uiso   1.00
O407   O     0.53169   0.91924   0.02641   0.00000  Uiso   1.00
O408   O     0.66396   0.82612   0.62844   0.00000  Uiso   1.00
N409   N     0.06518   0.84545   0.41691   0.00000  Uiso   1.00
N410   N     0.60885   0.86089   0.12690   0.00000  Uiso   1.00
N411   N     0.70309   0.79453   0.55589   0.00000  Uiso   1.00
N412   N     0.05892   0.94016   0.40928   0.00000  Uiso   1.00
N413   N     0.60259   0.95559   0.11927   0.00000  Uiso   1.00
N414   N     0.69683   0.88924   0.54826   0.00000  Uiso   1.00
C415   C     0.87841   0.32654   0.26694   0.00000  Uiso   1.00
C416   C     0.89965   0.37263   0.30868   0.00000  Uiso   1.00
C417   C     0.88294   0.37194   0.36325   0.00000  Uiso   1.00
C418   C     0.90728   0.41814   0.39474   0.00000  Uiso   1.00
C419   C     0.93420   0.48283   0.46293   0.00000  Uiso   1.00
C420   C     0.83607   0.35966   0.19566   0.00000  Uiso   1.00
C421   C     0.76592   0.34807   0.15520   0.00000  Uiso   1.00
C422   C     0.73676   0.38335   0.09154   0.00000  Uiso   1.00
C423   C     0.66500   0.42788   0.98424   0.00000  Uiso   1.00
C424   C     0.94949   0.30440   0.26829   0.00000  Uiso   1.00
C425   C     0.97469   0.24634   0.28888   0.00000  Uiso   1.00
C426   C     0.04101   0.23509   0.28635   0.00000  Uiso   1.00
C427   C     0.14535   0.19383   0.29182   0.00000  Uiso   1.00
C428   C     0.95136   0.40981   0.22581   0.00000  Uiso   1.00
C429   C     0.93927   0.41785   0.28634   0.00000  Uiso   1.00
C430   C     0.96365   0.46406   0.31775   0.00000  Uiso   1.00
C431   C     0.94698   0.46344   0.37236   0.00000  Uiso   1.00
C432   C     0.87569   0.40489   0.17332   0.00000  Uiso   1.00
C433   C     0.84663   0.44019   0.10970   0.00000  Uiso   1.00
C434   C     0.77645   0.42865   0.06916   0.00000  Uiso   1.00
C435   C     0.98911   0.34963   0.24595   0.00000  Uiso   1.00
C436   C     0.05540   0.33847   0.24338   0.00000  Uiso   1.00
C437   C     0.08070   0.28040   0.26397   0.00000  Uiso   1.00
H438   H     0.84756   0.29134   0.28432   0.00000  Uiso   1.00
H439   H     0.85227   0.33694   0.38052   0.00000  Uiso   1.00
H440   H     0.73528   0.31306   0.17249   0.00000  Uiso   1.00
H441   H     0.94402   0.21136   0.30616   0.00000  Uiso   1.00
H442   H     0.87494   0.40745   0.47730   0.00000  Uiso   1.00
H443   H     0.62827   0.35710   0.03867   0.00000  Uiso   1.00
H444   H     0.06843   0.14263   0.32052   0.00000  Uiso   1.00
H445   H     0.98220   0.44502   0.20842   0.00000  Uiso   1.00
H446   H     0.99431   0.49905   0.30046   0.00000  Uiso   1.00
H447   H     0.87731   0.47518   0.09243   0.00000  Uiso   1.00
H448   H     0.08605   0.37347   0.22610   0.00000  Uiso   1.00
H449   H     0.99022   0.53903   0.41232   0.00000  Uiso   1.00
H450   H     0.74354   0.48868   0.97368   0.00000  Uiso   1.00
H451   H     0.18371   0.27421   0.25554   0.00000  Uiso   1.00
O452   O     0.93809   0.50602   0.50671   0.00000  Uiso   1.00
O453   O     0.61447   0.43996   0.93124   0.00000  Uiso   1.00
O454   O     0.19196   0.15858   0.30102   0.00000  Uiso   1.00
N455   N     0.90043   0.43100   0.44939   0.00000  Uiso   1.00
N456   N     0.66979   0.38393   0.03929   0.00000  Uiso   1.00
N457   N     0.08130   0.18341   0.30278   0.00000  Uiso   1.00
N458   N     0.96246   0.50180   0.41442   0.00000  Uiso   1.00
N459   N     0.73182   0.45473   0.00433   0.00000  Uiso   1.00
N460   N     0.14333   0.25421   0.26782   0.00000  Uiso   1.00
C461   C     0.21991   0.35076   0.89750   0.00000  Uiso   1.00
C462   C     0.28478   0.38364   0.88820   0.00000  Uiso   1.00
C463   C     0.28081   0.43544   0.84186   0.00000  Uiso   1.00
C464   C     0.34640   0.45859   0.84124   0.00000  Uiso   1.00
C465   C     0.43693   0.51385   0.82005   0.00000  Uiso   1.00
C466   C     0.22756   0.28869   0.89002   0.00000  Uiso   1.00
C467   C     0.17546   0.26064   0.84521   0.00000  Uiso   1.00
C468   C     0.19288   0.20386   0.84613   0.00000  Uiso   1.00
C469   C     0.19454   0.11168   0.82780   0.00000  Uiso   1.00
C470   C     0.23204   0.34500   0.97000   0.00000  Uiso   1.00
C471   C     0.18371   0.36429   0.99246   0.00000  Uiso   1.00
C472   C     0.20489   0.35491   0.06072   0.00000  Uiso   1.00
C473   C     0.21351   0.35017   0.16658   0.00000  Uiso   1.00
C474   C     0.34345   0.29978   0.97880   0.00000  Uiso   1.00
C475   C     0.35188   0.35595   0.93236   0.00000  Uiso   1.00
C476   C     0.41750   0.37904   0.93181   0.00000  Uiso   1.00
C477   C     0.41362   0.43086   0.88548   0.00000  Uiso   1.00
C478   C     0.29465   0.26100   0.93417   0.00000  Uiso   1.00
C479   C     0.31215   0.20424   0.93516   0.00000  Uiso   1.00
C480   C     0.26010   0.17612   0.89037   0.00000  Uiso   1.00
C481   C     0.29914   0.31732   0.01416   0.00000  Uiso   1.00
C482   C     0.32040   0.30790   0.08241   0.00000  Uiso   1.00
C483   C     0.27211   0.32717   0.10496   0.00000  Uiso   1.00
H484   H     0.16766   0.37231   0.86312   0.00000  Uiso   1.00
H485   H     0.22887   0.45685   0.80769   0.00000  Uiso   1.00
H486   H     0.12354   0.28207   0.81105   0.00000  Uiso   1.00
H487   H     0.13179   0.38571   0.95827   0.00000  Uiso   1.00
H488   H     0.32633   0.53835   0.76569   0.00000  Uiso   1.00
H489   H     0.10422   0.16983   0.77279   0.00000  Uiso   1.00
H490   H     0.12161   0.38837   0.08323   0.00000  Uiso   1.00
H491   H     0.39569   0.27822   0.01319   0.00000  Uiso   1.00
H492   H     0.46941   0.35760   0.96599   0.00000  Uiso   1.00
H493   H     0.36408   0.18283   0.96934   0.00000  Uiso   1.00
H494   H     0.37233   0.28647   0.11656   0.00000  Uiso   1.00
H495   H     0.52156   0.45780   0.89417   0.00000  Uiso   1.00
H496   H     0.29944   0.08927   0.90127   0.00000  Uiso   1.00
H497   H     0.31684   0.30782   0.21171   0.00000  Uiso   1.00
O498   O     0.46833   0.55198   0.79616   0.00000  Uiso   1.00
O499   O     0.17692   0.06849   0.80548   0.00000  Uiso   1.00
O500   O     0.19974   0.35522   0.21277   0.00000  Uiso   1.00
N501   N     0.36216   0.50851   0.80241   0.00000  Uiso   1.00
N502   N     0.15450   0.16396   0.80904   0.00000  Uiso   1.00
N503   N     0.17075   0.36827   0.09928   0.00000  Uiso   1.00
N504   N     0.46721   0.46516   0.87155   0.00000  Uiso   1.00
N505   N     0.25955   0.12062   0.87818   0.00000  Uiso   1.00
N506   N     0.27581   0.32492   0.16841   0.00000  Uiso   1.00
C507   C     0.29099   0.87595   0.22424   0.00000  Uiso   1.00
C508   C     0.34127   0.84814   0.29536   0.00000  Uiso   1.00
C509   C     0.40810   0.81979   0.31457   0.00000  Uiso   1.00
C510   C     0.44582   0.79730   0.38205   0.00000  Uiso   1.00
C511   C     0.52816   0.75323   0.48540   0.00000  Uiso   1.00
C512   C     0.21767   0.84706   0.21293   0.00000  Uiso   1.00
C513   C     0.18059   0.81780   0.16283   0.00000  Uiso   1.00
C514   C     0.11426   0.79441   0.16091   0.00000  Uiso   1.00
C515   C     0.00469   0.74869   0.13625   0.00000  Uiso   1.00
C516   C     0.27848   0.93983   0.22316   0.00000  Uiso   1.00
C517   C     0.29250   0.98857   0.18164   0.00000  Uiso   1.00
C518   C     0.27735   0.04329   0.18832   0.00000  Uiso   1.00
C519   C     0.26219   0.14161   0.17953   0.00000  Uiso   1.00
C520   C     0.23913   0.88643   0.30993   0.00000  Uiso   1.00
C521   C     0.31310   0.85383   0.34190   0.00000  Uiso   1.00
C522   C     0.35073   0.83139   0.40937   0.00000  Uiso   1.00
C523   C     0.41761   0.80300   0.42868   0.00000  Uiso   1.00
C524   C     0.18950   0.85275   0.25947   0.00000  Uiso   1.00
C525   C     0.12321   0.82940   0.25762   0.00000  Uiso   1.00
C526   C     0.08604   0.80011   0.20753   0.00000  Uiso   1.00
C527   C     0.25031   0.94552   0.26970   0.00000  Uiso   1.00
C528   C     0.23513   0.00017   0.27644   0.00000  Uiso   1.00
C529   C     0.24913   0.04900   0.23494   0.00000  Uiso   1.00
H530   H     0.31292   0.87151   0.18801   0.00000  Uiso   1.00
H531   H     0.42988   0.81538   0.27854   0.00000  Uiso   1.00
H532   H     0.20240   0.81340   0.12682   0.00000  Uiso   1.00
H533   H     0.31430   0.98415   0.14563   0.00000  Uiso   1.00
H534   H     0.54713   0.75564   0.39943   0.00000  Uiso   1.00
H535   H     0.06745   0.75149   0.07950   0.00000  Uiso   1.00
H536   H     0.30342   0.11154   0.11916   0.00000  Uiso   1.00
H537   H     0.21720   0.89087   0.34616   0.00000  Uiso   1.00
H538   H     0.32891   0.83580   0.44537   0.00000  Uiso   1.00
H539   H     0.10143   0.83382   0.29364   0.00000  Uiso   1.00
H540   H     0.21333   0.00457   0.31246   0.00000  Uiso   1.00
H541   H     0.46518   0.77221   0.53484   0.00000  Uiso   1.00
H542   H     0.98550   0.76806   0.21490   0.00000  Uiso   1.00
H543   H     0.22147   0.12811   0.25457   0.00000  Uiso   1.00
O544   O     0.58136   0.72734   0.52955   0.00000  Uiso   1.00
O545   O     0.95204   0.72190   0.10979   0.00000  Uiso   1.00
O546   O     0.26162   0.19428   0.16184   0.00000  Uiso   1.00
N547   N     0.51251   0.76711   0.41769   0.00000  Uiso   1.00
N548   N     0.06405   0.76322   0.11857   0.00000  Uiso   1.00
N549   N     0.28464   0.09984   0.15564   0.00000  Uiso   1.00
N550   N     0.46842   0.77603   0.49055   0.00000  Uiso   1.00
N551   N     0.01996   0.77213   0.19143   0.00000  Uiso   1.00
N552   N     0.24055   0.10875   0.22851   0.00000  Uiso   1.00
