data_job_02279
_audit_creation_date              2018-12-19
_audit_creation_method            'Materials Studio'
_symmetry_space_group_name_H-M    'P1'
_symmetry_Int_Tables_number       1
_symmetry_cell_setting            triclinic
loop_
_symmetry_equiv_pos_as_xyz
  x,y,z
_cell_length_a                    19.7266
_cell_length_b                    16.6717
_cell_length_c                    16.6622
_cell_angle_alpha                 90.0000
_cell_angle_beta                  90.0000
_cell_angle_gamma                 90.0000
loop_
_atom_site_label
_atom_site_type_symbol
_atom_site_fract_x
_atom_site_fract_y
_atom_site_fract_z
_atom_site_U_iso_or_equiv
_atom_site_adp_type
_atom_site_occupancy
C1     C     0.79017   0.77619   0.23814   0.00000  Uiso   1.00
C2     C     0.76491   0.72842   0.31023   0.00000  Uiso   1.00
C3     C     0.69791   0.72199   0.33481   0.00000  Uiso   1.00
C4     C     0.68522   0.67547   0.40227   0.00000  Uiso   1.00
C5     C     0.63803   0.60721   0.50795   0.00000  Uiso   1.00
C6     C     0.84298   0.83452   0.27068   0.00000  Uiso   1.00
C7     C     0.84164   0.91730   0.26200   0.00000  Uiso   1.00
C8     C     0.89469   0.96009   0.29616   0.00000  Uiso   1.00
C9     C     0.96873   0.05655   0.34039   0.00000  Uiso   1.00
C10    C     0.82881   0.71684   0.18564   0.00000  Uiso   1.00
C11    C     0.81556   0.70069   0.10545   0.00000  Uiso   1.00
C12    C     0.85669   0.64440   0.06801   0.00000  Uiso   1.00
C13    C     0.90872   0.55815   0.98020   0.00000  Uiso   1.00
C14    C     0.88677   0.70499   0.31422   0.00000  Uiso   1.00
C15    C     0.81738   0.68975   0.35155   0.00000  Uiso   1.00
C16    C     0.80479   0.64322   0.41899   0.00000  Uiso   1.00
C17    C     0.73779   0.63672   0.44367   0.00000  Uiso   1.00
C18    C     0.89546   0.79585   0.31200   0.00000  Uiso   1.00
C19    C     0.94852   0.83853   0.34617   0.00000  Uiso   1.00
C20    C     0.94725   0.92135   0.33756   0.00000  Uiso   1.00
C21    C     0.88128   0.67817   0.22696   0.00000  Uiso   1.00
C22    C     0.92244   0.62191   0.18963   0.00000  Uiso   1.00
C23    C     0.90926   0.60566   0.10940   0.00000  Uiso   1.00
H24    H     0.74932   0.80630   0.20597   0.00000  Uiso   1.00
H25    H     0.65732   0.75194   0.30282   0.00000  Uiso   1.00
H26    H     0.80103   0.94721   0.23001   0.00000  Uiso   1.00
H27    H     0.77495   0.73062   0.07350   0.00000  Uiso   1.00
H28    H     0.57846   0.67463   0.42845   0.00000  Uiso   1.00
H29    H     0.88150   0.08637   0.27490   0.00000  Uiso   1.00
H30    H     0.82651   0.62966   0.94485   0.00000  Uiso   1.00
H31    H     0.92763   0.67488   0.34639   0.00000  Uiso   1.00
H32    H     0.84541   0.61330   0.45095   0.00000  Uiso   1.00
H33    H     0.98912   0.80858   0.37815   0.00000  Uiso   1.00
H34    H     0.96304   0.59199   0.22163   0.00000  Uiso   1.00
H35    H     0.73113   0.56211   0.54868   0.00000  Uiso   1.00
H36    H     0.03416   0.97386   0.39513   0.00000  Uiso   1.00
H37    H     0.97918   0.51714   0.06508   0.00000  Uiso   1.00
O38    O     0.59750   0.58025   0.55483   0.00000  Uiso   1.00
O39    O     0.99507   0.12044   0.35337   0.00000  Uiso   1.00
O40    O     0.92293   0.52125   0.92035   0.00000  Uiso   1.00
N41    N     0.62567   0.65659   0.44238   0.00000  Uiso   1.00
N42    N     0.90899   0.04155   0.29884   0.00000  Uiso   1.00
N43    N     0.85759   0.61457   0.99026   0.00000  Uiso   1.00
N44    N     0.70782   0.59604   0.50708   0.00000  Uiso   1.00
N45    N     0.99113   0.98100   0.36354   0.00000  Uiso   1.00
N46    N     0.93974   0.55403   0.05496   0.00000  Uiso   1.00
C47    C     0.70983   0.72381   0.73814   0.00000  Uiso   1.00
C48    C     0.73509   0.77158   0.81023   0.00000  Uiso   1.00
C49    C     0.80209   0.77801   0.83481   0.00000  Uiso   1.00
C50    C     0.81478   0.82453   0.90227   0.00000  Uiso   1.00
C51    C     0.86197   0.89279   0.00795   0.00000  Uiso   1.00
C52    C     0.65702   0.66548   0.77068   0.00000  Uiso   1.00
C53    C     0.65836   0.58270   0.76200   0.00000  Uiso   1.00
C54    C     0.60531   0.53991   0.79616   0.00000  Uiso   1.00
C55    C     0.53127   0.44345   0.84039   0.00000  Uiso   1.00
C56    C     0.67119   0.78316   0.68564   0.00000  Uiso   1.00
C57    C     0.68444   0.79931   0.60545   0.00000  Uiso   1.00
C58    C     0.64331   0.85560   0.56801   0.00000  Uiso   1.00
C59    C     0.59128   0.94185   0.48020   0.00000  Uiso   1.00
C60    C     0.61323   0.79501   0.81422   0.00000  Uiso   1.00
C61    C     0.68262   0.81025   0.85155   0.00000  Uiso   1.00
C62    C     0.69521   0.85678   0.91899   0.00000  Uiso   1.00
C63    C     0.76221   0.86328   0.94367   0.00000  Uiso   1.00
C64    C     0.60454   0.70415   0.81200   0.00000  Uiso   1.00
C65    C     0.55148   0.66147   0.84617   0.00000  Uiso   1.00
C66    C     0.55275   0.57865   0.83756   0.00000  Uiso   1.00
C67    C     0.61872   0.82183   0.72696   0.00000  Uiso   1.00
C68    C     0.57756   0.87809   0.68963   0.00000  Uiso   1.00
C69    C     0.59074   0.89434   0.60940   0.00000  Uiso   1.00
H70    H     0.75068   0.69370   0.70597   0.00000  Uiso   1.00
H71    H     0.84268   0.74806   0.80282   0.00000  Uiso   1.00
H72    H     0.69897   0.55279   0.73001   0.00000  Uiso   1.00
H73    H     0.72505   0.76938   0.57350   0.00000  Uiso   1.00
H74    H     0.92154   0.82537   0.92845   0.00000  Uiso   1.00
H75    H     0.61850   0.41363   0.77490   0.00000  Uiso   1.00
H76    H     0.67349   0.87034   0.44485   0.00000  Uiso   1.00
H77    H     0.57237   0.82512   0.84639   0.00000  Uiso   1.00
H78    H     0.65459   0.88670   0.95095   0.00000  Uiso   1.00
H79    H     0.51088   0.69142   0.87815   0.00000  Uiso   1.00
H80    H     0.53696   0.90801   0.72163   0.00000  Uiso   1.00
H81    H     0.76887   0.93789   0.04868   0.00000  Uiso   1.00
H82    H     0.46584   0.52614   0.89513   0.00000  Uiso   1.00
H83    H     0.52082   0.98286   0.56508   0.00000  Uiso   1.00
O84    O     0.90250   0.91975   0.05483   0.00000  Uiso   1.00
O85    O     0.50493   0.37956   0.85337   0.00000  Uiso   1.00
O86    O     0.57707   0.97875   0.42035   0.00000  Uiso   1.00
N87    N     0.87433   0.84341   0.94238   0.00000  Uiso   1.00
N88    N     0.59101   0.45845   0.79884   0.00000  Uiso   1.00
N89    N     0.64241   0.88543   0.49026   0.00000  Uiso   1.00
N90    N     0.79218   0.90396   0.00708   0.00000  Uiso   1.00
N91    N     0.50887   0.51900   0.86354   0.00000  Uiso   1.00
N92    N     0.56026   0.94597   0.55496   0.00000  Uiso   1.00
C93    C     0.20983   0.77619   0.26186   0.00000  Uiso   1.00
C94    C     0.23509   0.72842   0.18977   0.00000  Uiso   1.00
C95    C     0.30209   0.72199   0.16519   0.00000  Uiso   1.00
C96    C     0.31478   0.67547   0.09773   0.00000  Uiso   1.00
C97    C     0.36197   0.60721   0.99205   0.00000  Uiso   1.00
C98    C     0.15702   0.83452   0.22932   0.00000  Uiso   1.00
C99    C     0.15836   0.91730   0.23800   0.00000  Uiso   1.00
C100   C     0.10531   0.96009   0.20384   0.00000  Uiso   1.00
C101   C     0.03127   0.05655   0.15961   0.00000  Uiso   1.00
C102   C     0.17119   0.71684   0.31436   0.00000  Uiso   1.00
C103   C     0.18444   0.70069   0.39455   0.00000  Uiso   1.00
C104   C     0.14331   0.64440   0.43199   0.00000  Uiso   1.00
C105   C     0.09128   0.55815   0.51980   0.00000  Uiso   1.00
C106   C     0.11323   0.70499   0.18578   0.00000  Uiso   1.00
C107   C     0.18262   0.68975   0.14845   0.00000  Uiso   1.00
C108   C     0.19521   0.64322   0.08101   0.00000  Uiso   1.00
C109   C     0.26221   0.63672   0.05633   0.00000  Uiso   1.00
C110   C     0.10454   0.79585   0.18800   0.00000  Uiso   1.00
C111   C     0.05148   0.83853   0.15383   0.00000  Uiso   1.00
C112   C     0.05275   0.92135   0.16244   0.00000  Uiso   1.00
C113   C     0.11872   0.67817   0.27304   0.00000  Uiso   1.00
C114   C     0.07756   0.62191   0.31037   0.00000  Uiso   1.00
C115   C     0.09074   0.60566   0.39060   0.00000  Uiso   1.00
H116   H     0.25068   0.80630   0.29403   0.00000  Uiso   1.00
H117   H     0.34268   0.75194   0.19718   0.00000  Uiso   1.00
H118   H     0.19897   0.94721   0.26999   0.00000  Uiso   1.00
H119   H     0.22505   0.73062   0.42650   0.00000  Uiso   1.00
H120   H     0.42154   0.67463   0.07155   0.00000  Uiso   1.00
H121   H     0.11850   0.08637   0.22510   0.00000  Uiso   1.00
H122   H     0.17349   0.62966   0.55515   0.00000  Uiso   1.00
H123   H     0.07237   0.67488   0.15361   0.00000  Uiso   1.00
H124   H     0.15459   0.61330   0.04905   0.00000  Uiso   1.00
H125   H     0.01088   0.80858   0.12185   0.00000  Uiso   1.00
H126   H     0.03696   0.59199   0.27837   0.00000  Uiso   1.00
H127   H     0.26887   0.56211   0.95132   0.00000  Uiso   1.00
H128   H     0.96584   0.97386   0.10487   0.00000  Uiso   1.00
H129   H     0.02082   0.51714   0.43492   0.00000  Uiso   1.00
O130   O     0.40250   0.58025   0.94517   0.00000  Uiso   1.00
O131   O     0.00493   0.12044   0.14663   0.00000  Uiso   1.00
O132   O     0.07707   0.52125   0.57965   0.00000  Uiso   1.00
N133   N     0.37433   0.65659   0.05762   0.00000  Uiso   1.00
N134   N     0.09101   0.04155   0.20116   0.00000  Uiso   1.00
N135   N     0.14241   0.61457   0.50974   0.00000  Uiso   1.00
N136   N     0.29218   0.59604   0.99292   0.00000  Uiso   1.00
N137   N     0.00887   0.98100   0.13646   0.00000  Uiso   1.00
N138   N     0.06026   0.55403   0.44504   0.00000  Uiso   1.00
C139   C     0.29017   0.72381   0.76186   0.00000  Uiso   1.00
C140   C     0.26491   0.77158   0.68977   0.00000  Uiso   1.00
C141   C     0.19791   0.77801   0.66519   0.00000  Uiso   1.00
C142   C     0.18522   0.82453   0.59773   0.00000  Uiso   1.00
C143   C     0.13803   0.89279   0.49205   0.00000  Uiso   1.00
C144   C     0.34298   0.66548   0.72932   0.00000  Uiso   1.00
C145   C     0.34164   0.58270   0.73800   0.00000  Uiso   1.00
C146   C     0.39469   0.53991   0.70384   0.00000  Uiso   1.00
C147   C     0.46873   0.44345   0.65961   0.00000  Uiso   1.00
C148   C     0.32881   0.78316   0.81436   0.00000  Uiso   1.00
C149   C     0.31556   0.79931   0.89455   0.00000  Uiso   1.00
C150   C     0.35669   0.85560   0.93199   0.00000  Uiso   1.00
C151   C     0.40872   0.94185   0.01980   0.00000  Uiso   1.00
C152   C     0.38677   0.79501   0.68578   0.00000  Uiso   1.00
C153   C     0.31738   0.81025   0.64845   0.00000  Uiso   1.00
C154   C     0.30479   0.85678   0.58101   0.00000  Uiso   1.00
C155   C     0.23779   0.86328   0.55633   0.00000  Uiso   1.00
C156   C     0.39546   0.70415   0.68800   0.00000  Uiso   1.00
C157   C     0.44852   0.66147   0.65383   0.00000  Uiso   1.00
C158   C     0.44725   0.57865   0.66244   0.00000  Uiso   1.00
C159   C     0.38128   0.82183   0.77304   0.00000  Uiso   1.00
C160   C     0.42244   0.87809   0.81037   0.00000  Uiso   1.00
C161   C     0.40926   0.89434   0.89060   0.00000  Uiso   1.00
H162   H     0.24932   0.69370   0.79403   0.00000  Uiso   1.00
H163   H     0.15732   0.74806   0.69718   0.00000  Uiso   1.00
H164   H     0.30103   0.55279   0.76999   0.00000  Uiso   1.00
H165   H     0.27495   0.76938   0.92650   0.00000  Uiso   1.00
H166   H     0.07846   0.82537   0.57155   0.00000  Uiso   1.00
H167   H     0.38150   0.41363   0.72510   0.00000  Uiso   1.00
H168   H     0.32651   0.87034   0.05515   0.00000  Uiso   1.00
H169   H     0.42763   0.82512   0.65361   0.00000  Uiso   1.00
H170   H     0.34541   0.88670   0.54905   0.00000  Uiso   1.00
H171   H     0.48912   0.69142   0.62185   0.00000  Uiso   1.00
H172   H     0.46304   0.90801   0.77837   0.00000  Uiso   1.00
H173   H     0.23113   0.93789   0.45132   0.00000  Uiso   1.00
H174   H     0.53416   0.52614   0.60487   0.00000  Uiso   1.00
H175   H     0.47918   0.98286   0.93492   0.00000  Uiso   1.00
O176   O     0.09750   0.91975   0.44517   0.00000  Uiso   1.00
O177   O     0.49507   0.37956   0.64663   0.00000  Uiso   1.00
O178   O     0.42293   0.97875   0.07965   0.00000  Uiso   1.00
N179   N     0.12567   0.84341   0.55762   0.00000  Uiso   1.00
N180   N     0.40899   0.45845   0.70116   0.00000  Uiso   1.00
N181   N     0.35759   0.88543   0.00974   0.00000  Uiso   1.00
N182   N     0.20782   0.90396   0.49292   0.00000  Uiso   1.00
N183   N     0.49113   0.51900   0.63646   0.00000  Uiso   1.00
N184   N     0.43974   0.94597   0.94504   0.00000  Uiso   1.00
C185   C     0.20983   0.22381   0.76186   0.00000  Uiso   1.00
C186   C     0.23509   0.27158   0.68977   0.00000  Uiso   1.00
C187   C     0.30209   0.27801   0.66519   0.00000  Uiso   1.00
C188   C     0.31478   0.32453   0.59773   0.00000  Uiso   1.00
C189   C     0.36197   0.39279   0.49205   0.00000  Uiso   1.00
C190   C     0.15702   0.16548   0.72932   0.00000  Uiso   1.00
C191   C     0.15836   0.08270   0.73800   0.00000  Uiso   1.00
C192   C     0.10531   0.03991   0.70384   0.00000  Uiso   1.00
C193   C     0.03127   0.94345   0.65961   0.00000  Uiso   1.00
C194   C     0.17119   0.28316   0.81436   0.00000  Uiso   1.00
C195   C     0.18444   0.29931   0.89455   0.00000  Uiso   1.00
C196   C     0.14331   0.35560   0.93199   0.00000  Uiso   1.00
C197   C     0.09128   0.44185   0.01980   0.00000  Uiso   1.00
C198   C     0.11323   0.29501   0.68578   0.00000  Uiso   1.00
C199   C     0.18262   0.31025   0.64845   0.00000  Uiso   1.00
C200   C     0.19521   0.35678   0.58101   0.00000  Uiso   1.00
C201   C     0.26221   0.36328   0.55633   0.00000  Uiso   1.00
C202   C     0.10454   0.20415   0.68800   0.00000  Uiso   1.00
C203   C     0.05148   0.16147   0.65383   0.00000  Uiso   1.00
C204   C     0.05275   0.07865   0.66244   0.00000  Uiso   1.00
C205   C     0.11872   0.32183   0.77304   0.00000  Uiso   1.00
C206   C     0.07756   0.37809   0.81037   0.00000  Uiso   1.00
C207   C     0.09074   0.39434   0.89060   0.00000  Uiso   1.00
H208   H     0.25068   0.19370   0.79403   0.00000  Uiso   1.00
H209   H     0.34268   0.24806   0.69718   0.00000  Uiso   1.00
H210   H     0.19897   0.05279   0.76999   0.00000  Uiso   1.00
H211   H     0.22505   0.26938   0.92650   0.00000  Uiso   1.00
H212   H     0.42154   0.32537   0.57155   0.00000  Uiso   1.00
H213   H     0.11850   0.91363   0.72510   0.00000  Uiso   1.00
H214   H     0.17349   0.37034   0.05515   0.00000  Uiso   1.00
H215   H     0.07237   0.32512   0.65361   0.00000  Uiso   1.00
H216   H     0.15459   0.38670   0.54905   0.00000  Uiso   1.00
H217   H     0.01088   0.19142   0.62185   0.00000  Uiso   1.00
H218   H     0.03696   0.40801   0.77837   0.00000  Uiso   1.00
H219   H     0.26887   0.43789   0.45132   0.00000  Uiso   1.00
H220   H     0.96584   0.02614   0.60487   0.00000  Uiso   1.00
H221   H     0.02082   0.48286   0.93492   0.00000  Uiso   1.00
O222   O     0.40250   0.41975   0.44517   0.00000  Uiso   1.00
O223   O     0.00493   0.87956   0.64663   0.00000  Uiso   1.00
O224   O     0.07707   0.47875   0.07965   0.00000  Uiso   1.00
N225   N     0.37433   0.34341   0.55762   0.00000  Uiso   1.00
N226   N     0.09101   0.95845   0.70116   0.00000  Uiso   1.00
N227   N     0.14241   0.38543   0.00974   0.00000  Uiso   1.00
N228   N     0.29218   0.40396   0.49292   0.00000  Uiso   1.00
N229   N     0.00887   0.01900   0.63646   0.00000  Uiso   1.00
N230   N     0.06026   0.44597   0.94504   0.00000  Uiso   1.00
C231   C     0.29017   0.27619   0.26186   0.00000  Uiso   1.00
C232   C     0.26491   0.22842   0.18977   0.00000  Uiso   1.00
C233   C     0.19791   0.22199   0.16519   0.00000  Uiso   1.00
C234   C     0.18522   0.17547   0.09773   0.00000  Uiso   1.00
C235   C     0.13803   0.10721   0.99205   0.00000  Uiso   1.00
C236   C     0.34298   0.33452   0.22932   0.00000  Uiso   1.00
C237   C     0.34164   0.41730   0.23800   0.00000  Uiso   1.00
C238   C     0.39469   0.46009   0.20384   0.00000  Uiso   1.00
C239   C     0.46873   0.55655   0.15961   0.00000  Uiso   1.00
C240   C     0.32881   0.21684   0.31436   0.00000  Uiso   1.00
C241   C     0.31556   0.20069   0.39455   0.00000  Uiso   1.00
C242   C     0.35669   0.14440   0.43199   0.00000  Uiso   1.00
C243   C     0.40872   0.05815   0.51980   0.00000  Uiso   1.00
C244   C     0.38677   0.20499   0.18578   0.00000  Uiso   1.00
C245   C     0.31738   0.18975   0.14845   0.00000  Uiso   1.00
C246   C     0.30479   0.14322   0.08101   0.00000  Uiso   1.00
C247   C     0.23779   0.13672   0.05633   0.00000  Uiso   1.00
C248   C     0.39546   0.29585   0.18800   0.00000  Uiso   1.00
C249   C     0.44852   0.33853   0.15383   0.00000  Uiso   1.00
C250   C     0.44725   0.42135   0.16244   0.00000  Uiso   1.00
C251   C     0.38128   0.17817   0.27304   0.00000  Uiso   1.00
C252   C     0.42244   0.12191   0.31037   0.00000  Uiso   1.00
C253   C     0.40926   0.10566   0.39060   0.00000  Uiso   1.00
H254   H     0.24932   0.30630   0.29403   0.00000  Uiso   1.00
H255   H     0.15732   0.25194   0.19718   0.00000  Uiso   1.00
H256   H     0.30103   0.44721   0.26999   0.00000  Uiso   1.00
H257   H     0.27495   0.23062   0.42650   0.00000  Uiso   1.00
H258   H     0.07846   0.17463   0.07155   0.00000  Uiso   1.00
H259   H     0.38150   0.58637   0.22510   0.00000  Uiso   1.00
H260   H     0.32651   0.12966   0.55515   0.00000  Uiso   1.00
H261   H     0.42763   0.17488   0.15361   0.00000  Uiso   1.00
H262   H     0.34541   0.11330   0.04905   0.00000  Uiso   1.00
H263   H     0.48912   0.30858   0.12185   0.00000  Uiso   1.00
H264   H     0.46304   0.09199   0.27837   0.00000  Uiso   1.00
H265   H     0.23113   0.06211   0.95132   0.00000  Uiso   1.00
H266   H     0.53416   0.47386   0.10487   0.00000  Uiso   1.00
H267   H     0.47918   0.01714   0.43492   0.00000  Uiso   1.00
O268   O     0.09750   0.08025   0.94517   0.00000  Uiso   1.00
O269   O     0.49507   0.62044   0.14663   0.00000  Uiso   1.00
O270   O     0.42293   0.02125   0.57965   0.00000  Uiso   1.00
N271   N     0.12567   0.15659   0.05762   0.00000  Uiso   1.00
N272   N     0.40899   0.54155   0.20116   0.00000  Uiso   1.00
N273   N     0.35759   0.11457   0.50974   0.00000  Uiso   1.00
N274   N     0.20782   0.09604   0.99292   0.00000  Uiso   1.00
N275   N     0.49113   0.48100   0.13646   0.00000  Uiso   1.00
N276   N     0.43974   0.05403   0.44504   0.00000  Uiso   1.00
C277   C     0.79017   0.22381   0.73814   0.00000  Uiso   1.00
C278   C     0.76491   0.27158   0.81023   0.00000  Uiso   1.00
C279   C     0.69791   0.27801   0.83481   0.00000  Uiso   1.00
C280   C     0.68522   0.32453   0.90227   0.00000  Uiso   1.00
C281   C     0.63803   0.39279   0.00795   0.00000  Uiso   1.00
C282   C     0.84298   0.16548   0.77068   0.00000  Uiso   1.00
C283   C     0.84164   0.08270   0.76200   0.00000  Uiso   1.00
C284   C     0.89469   0.03991   0.79616   0.00000  Uiso   1.00
C285   C     0.96873   0.94345   0.84039   0.00000  Uiso   1.00
C286   C     0.82881   0.28316   0.68564   0.00000  Uiso   1.00
C287   C     0.81556   0.29931   0.60545   0.00000  Uiso   1.00
C288   C     0.85669   0.35560   0.56801   0.00000  Uiso   1.00
C289   C     0.90872   0.44185   0.48020   0.00000  Uiso   1.00
C290   C     0.88677   0.29501   0.81422   0.00000  Uiso   1.00
C291   C     0.81738   0.31025   0.85155   0.00000  Uiso   1.00
C292   C     0.80479   0.35678   0.91899   0.00000  Uiso   1.00
C293   C     0.73779   0.36328   0.94367   0.00000  Uiso   1.00
C294   C     0.89546   0.20415   0.81200   0.00000  Uiso   1.00
C295   C     0.94852   0.16147   0.84617   0.00000  Uiso   1.00
C296   C     0.94725   0.07865   0.83756   0.00000  Uiso   1.00
C297   C     0.88128   0.32183   0.72696   0.00000  Uiso   1.00
C298   C     0.92244   0.37809   0.68963   0.00000  Uiso   1.00
C299   C     0.90926   0.39434   0.60940   0.00000  Uiso   1.00
H300   H     0.74932   0.19370   0.70597   0.00000  Uiso   1.00
H301   H     0.65732   0.24806   0.80282   0.00000  Uiso   1.00
H302   H     0.80103   0.05279   0.73001   0.00000  Uiso   1.00
H303   H     0.77495   0.26938   0.57350   0.00000  Uiso   1.00
H304   H     0.57846   0.32537   0.92845   0.00000  Uiso   1.00
H305   H     0.88150   0.91363   0.77490   0.00000  Uiso   1.00
H306   H     0.82651   0.37034   0.44485   0.00000  Uiso   1.00
H307   H     0.92763   0.32512   0.84639   0.00000  Uiso   1.00
H308   H     0.84541   0.38670   0.95095   0.00000  Uiso   1.00
H309   H     0.98912   0.19142   0.87815   0.00000  Uiso   1.00
H310   H     0.96304   0.40801   0.72163   0.00000  Uiso   1.00
H311   H     0.73113   0.43789   0.04868   0.00000  Uiso   1.00
H312   H     0.03416   0.02614   0.89513   0.00000  Uiso   1.00
H313   H     0.97918   0.48286   0.56508   0.00000  Uiso   1.00
O314   O     0.59750   0.41975   0.05483   0.00000  Uiso   1.00
O315   O     0.99507   0.87956   0.85337   0.00000  Uiso   1.00
O316   O     0.92293   0.47875   0.42035   0.00000  Uiso   1.00
N317   N     0.62567   0.34341   0.94238   0.00000  Uiso   1.00
N318   N     0.90899   0.95845   0.79884   0.00000  Uiso   1.00
N319   N     0.85759   0.38543   0.49026   0.00000  Uiso   1.00
N320   N     0.70782   0.40396   0.00708   0.00000  Uiso   1.00
N321   N     0.99113   0.01900   0.86354   0.00000  Uiso   1.00
N322   N     0.93974   0.44597   0.55496   0.00000  Uiso   1.00
C323   C     0.70983   0.27619   0.23814   0.00000  Uiso   1.00
C324   C     0.73509   0.22842   0.31023   0.00000  Uiso   1.00
C325   C     0.80209   0.22199   0.33481   0.00000  Uiso   1.00
C326   C     0.81478   0.17547   0.40227   0.00000  Uiso   1.00
C327   C     0.86197   0.10721   0.50795   0.00000  Uiso   1.00
C328   C     0.65702   0.33452   0.27068   0.00000  Uiso   1.00
C329   C     0.65836   0.41730   0.26200   0.00000  Uiso   1.00
C330   C     0.60531   0.46009   0.29616   0.00000  Uiso   1.00
C331   C     0.53127   0.55655   0.34039   0.00000  Uiso   1.00
C332   C     0.67119   0.21684   0.18564   0.00000  Uiso   1.00
C333   C     0.68444   0.20069   0.10545   0.00000  Uiso   1.00
C334   C     0.64331   0.14440   0.06801   0.00000  Uiso   1.00
C335   C     0.59128   0.05815   0.98020   0.00000  Uiso   1.00
C336   C     0.61323   0.20499   0.31422   0.00000  Uiso   1.00
C337   C     0.68262   0.18975   0.35155   0.00000  Uiso   1.00
C338   C     0.69521   0.14322   0.41899   0.00000  Uiso   1.00
C339   C     0.76221   0.13672   0.44367   0.00000  Uiso   1.00
C340   C     0.60454   0.29585   0.31200   0.00000  Uiso   1.00
C341   C     0.55148   0.33853   0.34617   0.00000  Uiso   1.00
C342   C     0.55275   0.42135   0.33756   0.00000  Uiso   1.00
C343   C     0.61872   0.17817   0.22696   0.00000  Uiso   1.00
C344   C     0.57756   0.12191   0.18963   0.00000  Uiso   1.00
C345   C     0.59074   0.10566   0.10940   0.00000  Uiso   1.00
H346   H     0.75068   0.30630   0.20597   0.00000  Uiso   1.00
H347   H     0.84268   0.25194   0.30282   0.00000  Uiso   1.00
H348   H     0.69897   0.44721   0.23001   0.00000  Uiso   1.00
H349   H     0.72505   0.23062   0.07350   0.00000  Uiso   1.00
H350   H     0.92154   0.17463   0.42845   0.00000  Uiso   1.00
H351   H     0.61850   0.58637   0.27490   0.00000  Uiso   1.00
H352   H     0.67349   0.12966   0.94485   0.00000  Uiso   1.00
H353   H     0.57237   0.17488   0.34639   0.00000  Uiso   1.00
H354   H     0.65459   0.11330   0.45095   0.00000  Uiso   1.00
H355   H     0.51088   0.30858   0.37815   0.00000  Uiso   1.00
H356   H     0.53696   0.09199   0.22163   0.00000  Uiso   1.00
H357   H     0.76887   0.06211   0.54868   0.00000  Uiso   1.00
H358   H     0.46584   0.47386   0.39513   0.00000  Uiso   1.00
H359   H     0.52082   0.01714   0.06508   0.00000  Uiso   1.00
O360   O     0.90250   0.08025   0.55483   0.00000  Uiso   1.00
O361   O     0.50493   0.62044   0.35337   0.00000  Uiso   1.00
O362   O     0.57707   0.02125   0.92035   0.00000  Uiso   1.00
N363   N     0.87433   0.15659   0.44238   0.00000  Uiso   1.00
N364   N     0.59101   0.54155   0.29884   0.00000  Uiso   1.00
N365   N     0.64241   0.11457   0.99026   0.00000  Uiso   1.00
N366   N     0.79218   0.09604   0.50708   0.00000  Uiso   1.00
N367   N     0.50887   0.48100   0.36354   0.00000  Uiso   1.00
N368   N     0.56026   0.05403   0.05496   0.00000  Uiso   1.00
