data_job_06889
_audit_creation_date              2018-12-19
_audit_creation_method            'Materials Studio'
_symmetry_space_group_name_H-M    'P1'
_symmetry_Int_Tables_number       1
_symmetry_cell_setting            triclinic
loop_
_symmetry_equiv_pos_as_xyz
  x,y,z
_cell_length_a                    17.5338
_cell_length_b                    23.4814
_cell_length_c                    24.2854
_cell_angle_alpha                 65.2160
_cell_angle_beta                  98.3035
_cell_angle_gamma                 74.2105
loop_
_atom_site_label
_atom_site_type_symbol
_atom_site_fract_x
_atom_site_fract_y
_atom_site_fract_z
_atom_site_U_iso_or_equiv
_atom_site_adp_type
_atom_site_occupancy
C1     C     0.78272   0.55314   0.31691   0.00000  Uiso   1.00
C2     C     0.78961   0.62128   0.27895   0.00000  Uiso   1.00
C3     C     0.86146   0.63131   0.26760   0.00000  Uiso   1.00
C4     C     0.85487   0.69754   0.23179   0.00000  Uiso   1.00
C5     C     0.87710   0.79510   0.17645   0.00000  Uiso   1.00
C6     C     0.74716   0.55757   0.36934   0.00000  Uiso   1.00
C7     C     0.78332   0.51402   0.43398   0.00000  Uiso   1.00
C8     C     0.74099   0.52661   0.47426   0.00000  Uiso   1.00
C9     C     0.69729   0.52522   0.55925   0.00000  Uiso   1.00
C10    C     0.71582   0.54895   0.27271   0.00000  Uiso   1.00
C11    C     0.72562   0.49815   0.25613   0.00000  Uiso   1.00
C12    C     0.65691   0.50348   0.21506   0.00000  Uiso   1.00
C13    C     0.56455   0.48873   0.15003   0.00000  Uiso   1.00
C14    C     0.64326   0.65293   0.27350   0.00000  Uiso   1.00
C15    C     0.71386   0.67548   0.25537   0.00000  Uiso   1.00
C16    C     0.70716   0.74172   0.21957   0.00000  Uiso   1.00
C17    C     0.77899   0.75184   0.20816   0.00000  Uiso   1.00
C18    C     0.67141   0.61177   0.34576   0.00000  Uiso   1.00
C19    C     0.62902   0.62442   0.38595   0.00000  Uiso   1.00
C20    C     0.66511   0.58091   0.45064   0.00000  Uiso   1.00
C21    C     0.64007   0.60316   0.24913   0.00000  Uiso   1.00
C22    C     0.57133   0.60856   0.20809   0.00000  Uiso   1.00
C23    C     0.58102   0.55778   0.19144   0.00000  Uiso   1.00
H24    H     0.84169   0.51094   0.33527   0.00000  Uiso   1.00
H25    H     0.92007   0.58935   0.28586   0.00000  Uiso   1.00
H26    H     0.84193   0.47207   0.45222   0.00000  Uiso   1.00
H27    H     0.78425   0.45622   0.27438   0.00000  Uiso   1.00
H28    H     0.97356   0.70018   0.22069   0.00000  Uiso   1.00
H29    H     0.80880   0.45289   0.57146   0.00000  Uiso   1.00
H30    H     0.68716   0.41945   0.19647   0.00000  Uiso   1.00
H31    H     0.58428   0.69513   0.25514   0.00000  Uiso   1.00
H32    H     0.64853   0.78365   0.20132   0.00000  Uiso   1.00
H33    H     0.57040   0.66637   0.36769   0.00000  Uiso   1.00
H34    H     0.51272   0.65052   0.18985   0.00000  Uiso   1.00
H35    H     0.75318   0.85789   0.15209   0.00000  Uiso   1.00
H36    H     0.58841   0.61059   0.50286   0.00000  Uiso   1.00
H37    H     0.46678   0.57715   0.12786   0.00000  Uiso   1.00
O38    O     0.91029   0.83395   0.15245   0.00000  Uiso   1.00
O39    O     0.69412   0.50949   0.61265   0.00000  Uiso   1.00
O40    O     0.53454   0.46562   0.12066   0.00000  Uiso   1.00
N41    N     0.91287   0.72515   0.21192   0.00000  Uiso   1.00
N42    N     0.75884   0.49395   0.53987   0.00000  Uiso   1.00
N43    N     0.64511   0.46268   0.18930   0.00000  Uiso   1.00
N44    N     0.79429   0.81001   0.17500   0.00000  Uiso   1.00
N45    N     0.64025   0.57881   0.50295   0.00000  Uiso   1.00
N46    N     0.52652   0.54753   0.15238   0.00000  Uiso   1.00
C47    C     0.54979   0.93411   0.66480   0.00000  Uiso   1.00
C48    C     0.55634   0.91239   0.73448   0.00000  Uiso   1.00
C49    C     0.61782   0.91241   0.77744   0.00000  Uiso   1.00
C50    C     0.61286   0.89069   0.83903   0.00000  Uiso   1.00
C51    C     0.63282   0.86013   0.94451   0.00000  Uiso   1.00
C52    C     0.54790   0.87406   0.65563   0.00000  Uiso   1.00
C53    C     0.60228   0.84186   0.63227   0.00000  Uiso   1.00
C54    C     0.59020   0.78787   0.62748   0.00000  Uiso   1.00
C55    C     0.59702   0.69783   0.61049   0.00000  Uiso   1.00
C56    C     0.46416   0.98941   0.62692   0.00000  Uiso   1.00
C57    C     0.44812   0.05419   0.57941   0.00000  Uiso   1.00
C58    C     0.36553   0.09732   0.55044   0.00000  Uiso   1.00
C59    C     0.24234   0.18637   0.48887   0.00000  Uiso   1.00
C60    C     0.43165   0.89551   0.69781   0.00000  Uiso   1.00
C61    C     0.49217   0.89143   0.75241   0.00000  Uiso   1.00
C62    C     0.48711   0.86971   0.81396   0.00000  Uiso   1.00
C63    C     0.54857   0.86969   0.85700   0.00000  Uiso   1.00
C64    C     0.48374   0.85309   0.67356   0.00000  Uiso   1.00
C65    C     0.47157   0.79915   0.66879   0.00000  Uiso   1.00
C66    C     0.52592   0.76687   0.64544   0.00000  Uiso   1.00
C67    C     0.39999   0.96845   0.64485   0.00000  Uiso   1.00
C68    C     0.31741   0.01148   0.61594   0.00000  Uiso   1.00
C69    C     0.30125   0.07631   0.56840   0.00000  Uiso   1.00
H70    H     0.59975   0.95043   0.65084   0.00000  Uiso   1.00
H71    H     0.66748   0.92863   0.76354   0.00000  Uiso   1.00
H72    H     0.65193   0.85809   0.61839   0.00000  Uiso   1.00
H73    H     0.49779   0.07039   0.56555   0.00000  Uiso   1.00
H74    H     0.71428   0.89520   0.89641   0.00000  Uiso   1.00
H75    H     0.68148   0.74648   0.59033   0.00000  Uiso   1.00
H76    H     0.35646   0.19415   0.47889   0.00000  Uiso   1.00
H77    H     0.38169   0.87918   0.71177   0.00000  Uiso   1.00
H78    H     0.43745   0.85348   0.82782   0.00000  Uiso   1.00
H79    H     0.42190   0.78294   0.68267   0.00000  Uiso   1.00
H80    H     0.26777   0.99524   0.62983   0.00000  Uiso   1.00
H81    H     0.52759   0.83421   0.94858   0.00000  Uiso   1.00
H82    H     0.49478   0.68549   0.64250   0.00000  Uiso   1.00
H83    H     0.16977   0.13316   0.53107   0.00000  Uiso   1.00
O84    O     0.66157   0.84906   0.99774   0.00000  Uiso   1.00
O85    O     0.61852   0.65396   0.59617   0.00000  Uiso   1.00
O86    O     0.19211   0.24129   0.44997   0.00000  Uiso   1.00
N87    N     0.66268   0.88439   0.89276   0.00000  Uiso   1.00
N88    N     0.63202   0.74534   0.60660   0.00000  Uiso   1.00
N89    N     0.32816   0.16387   0.50241   0.00000  Uiso   1.00
N90    N     0.56222   0.85157   0.92083   0.00000  Uiso   1.00
N91    N     0.53156   0.71251   0.63468   0.00000  Uiso   1.00
N92    N     0.22770   0.13104   0.53048   0.00000  Uiso   1.00
C93    C     0.47753   0.26129   0.96515   0.00000  Uiso   1.00
C94    C     0.47329   0.21803   0.93319   0.00000  Uiso   1.00
C95    C     0.53956   0.18086   0.92194   0.00000  Uiso   1.00
C96    C     0.52290   0.14460   0.89209   0.00000  Uiso   1.00
C97    C     0.52849   0.07732   0.84516   0.00000  Uiso   1.00
C98    C     0.41465   0.33202   0.91829   0.00000  Uiso   1.00
C99    C     0.43162   0.39069   0.89454   0.00000  Uiso   1.00
C100   C     0.36559   0.45039   0.85215   0.00000  Uiso   1.00
C101   C     0.28013   0.56008   0.78213   0.00000  Uiso   1.00
C102   C     0.44360   0.23498   0.02134   0.00000  Uiso   1.00
C103   C     0.48490   0.21208   0.08422   0.00000  Uiso   1.00
C104   C     0.44324   0.19009   0.12859   0.00000  Uiso   1.00
C105   C     0.40273   0.14912   0.21857   0.00000  Uiso   1.00
C106   C     0.33008   0.26297   0.93213   0.00000  Uiso   1.00
C107   C     0.39320   0.21894   0.91525   0.00000  Uiso   1.00
C108   C     0.37643   0.18273   0.88541   0.00000  Uiso   1.00
C109   C     0.44267   0.14552   0.87413   0.00000  Uiso   1.00
C110   C     0.33457   0.33293   0.90036   0.00000  Uiso   1.00
C111   C     0.26849   0.39255   0.85800   0.00000  Uiso   1.00
C112   C     0.28536   0.45131   0.83418   0.00000  Uiso   1.00
C113   C     0.36351   0.23589   0.00340   0.00000  Uiso   1.00
C114   C     0.32177   0.21394   0.04769   0.00000  Uiso   1.00
C115   C     0.36300   0.19101   0.11063   0.00000  Uiso   1.00
H116   H     0.53988   0.26058   0.97911   0.00000  Uiso   1.00
H117   H     0.60153   0.18018   0.93583   0.00000  Uiso   1.00
H118   H     0.49360   0.38997   0.90843   0.00000  Uiso   1.00
H119   H     0.54688   0.21138   0.09808   0.00000  Uiso   1.00
H120   H     0.63456   0.09146   0.87991   0.00000  Uiso   1.00
H121   H     0.40699   0.53382   0.82215   0.00000  Uiso   1.00
H122   H     0.51932   0.15723   0.22208   0.00000  Uiso   1.00
H123   H     0.26773   0.26368   0.91817   0.00000  Uiso   1.00
H124   H     0.31445   0.18344   0.87154   0.00000  Uiso   1.00
H125   H     0.20652   0.39324   0.84414   0.00000  Uiso   1.00
H126   H     0.25980   0.21465   0.03379   0.00000  Uiso   1.00
H127   H     0.40155   0.09411   0.82772   0.00000  Uiso   1.00
H128   H     0.17398   0.53648   0.76997   0.00000  Uiso   1.00
H129   H     0.28632   0.15989   0.16990   0.00000  Uiso   1.00
O130   O     0.55370   0.03996   0.82422   0.00000  Uiso   1.00
O131   O     0.25513   0.62033   0.74846   0.00000  Uiso   1.00
O132   O     0.40251   0.12625   0.27315   0.00000  Uiso   1.00
N133   N     0.57331   0.10308   0.87404   0.00000  Uiso   1.00
N134   N     0.36055   0.51667   0.82003   0.00000  Uiso   1.00
N135   N     0.46557   0.16461   0.19393   0.00000  Uiso   1.00
N136   N     0.44794   0.10451   0.84596   0.00000  Uiso   1.00
N137   N     0.23517   0.51810   0.79195   0.00000  Uiso   1.00
N138   N     0.34019   0.16603   0.16585   0.00000  Uiso   1.00
C139   C     0.02878   0.91836   0.66282   0.00000  Uiso   1.00
C140   C     0.00476   0.93492   0.71379   0.00000  Uiso   1.00
C141   C     0.05523   0.94487   0.75571   0.00000  Uiso   1.00
C142   C     0.02177   0.95957   0.79878   0.00000  Uiso   1.00
C143   C     0.99679   0.98461   0.87774   0.00000  Uiso   1.00
C144   C     0.96381   0.97303   0.60019   0.00000  Uiso   1.00
C145   C     0.97986   0.01501   0.54660   0.00000  Uiso   1.00
C146   C     0.91192   0.06178   0.49405   0.00000  Uiso   1.00
C147   C     0.82338   0.14595   0.39663   0.00000  Uiso   1.00
C148   C     0.01551   0.85291   0.67582   0.00000  Uiso   1.00
C149   C     0.07501   0.79390   0.68580   0.00000  Uiso   1.00
C150   C     0.05059   0.73953   0.69691   0.00000  Uiso   1.00
C151   C     0.04231   0.63720   0.71691   0.00000  Uiso   1.00
C152   C     0.87958   0.92676   0.66478   0.00000  Uiso   1.00
C153   C     0.92373   0.93948   0.71485   0.00000  Uiso   1.00
C154   C     0.89017   0.95416   0.75788   0.00000  Uiso   1.00
C155   C     0.94059   0.96413   0.79985   0.00000  Uiso   1.00
C156   C     0.88278   0.97759   0.60126   0.00000  Uiso   1.00
C157   C     0.81480   0.02430   0.54877   0.00000  Uiso   1.00
C158   C     0.83074   0.06635   0.49511   0.00000  Uiso   1.00
C159   C     0.93447   0.85747   0.67689   0.00000  Uiso   1.00
C160   C     0.90995   0.80319   0.68798   0.00000  Uiso   1.00
C161   C     0.96941   0.74410   0.69797   0.00000  Uiso   1.00
H162   H     0.09186   0.91482   0.66199   0.00000  Uiso   1.00
H163   H     0.11794   0.94135   0.75486   0.00000  Uiso   1.00
H164   H     0.04258   0.01147   0.54579   0.00000  Uiso   1.00
H165   H     0.13772   0.79039   0.68497   0.00000  Uiso   1.00
H166   H     0.11111   0.97279   0.85829   0.00000  Uiso   1.00
H167   H     0.95221   0.12063   0.41743   0.00000  Uiso   1.00
H168   H     0.15282   0.65444   0.71092   0.00000  Uiso   1.00
H169   H     0.81649   0.93031   0.66561   0.00000  Uiso   1.00
H170   H     0.82746   0.95769   0.75869   0.00000  Uiso   1.00
H171   H     0.75210   0.02781   0.54961   0.00000  Uiso   1.00
H172   H     0.84724   0.80673   0.68880   0.00000  Uiso   1.00
H173   H     0.87534   0.98606   0.86139   0.00000  Uiso   1.00
H174   H     0.71644   0.13390   0.42054   0.00000  Uiso   1.00
H175   H     0.91705   0.66771   0.71403   0.00000  Uiso   1.00
O176   O     0.00540   0.99718   0.92099   0.00000  Uiso   1.00
O177   O     0.79693   0.19113   0.34260   0.00000  Uiso   1.00
O178   O     0.06013   0.57950   0.72766   0.00000  Uiso   1.00
N179   N     0.05412   0.97215   0.84625   0.00000  Uiso   1.00
N180   N     0.90556   0.11037   0.43408   0.00000  Uiso   1.00
N181   N     0.09311   0.67453   0.70846   0.00000  Uiso   1.00
N182   N     0.92726   0.97928   0.84793   0.00000  Uiso   1.00
N183   N     0.77869   0.11751   0.43575   0.00000  Uiso   1.00
N184   N     0.96624   0.68167   0.71013   0.00000  Uiso   1.00
C185   C     0.34185   0.48879   0.31849   0.00000  Uiso   1.00
C186   C     0.28911   0.53938   0.25017   0.00000  Uiso   1.00
C187   C     0.31571   0.58047   0.20320   0.00000  Uiso   1.00
C188   C     0.25802   0.62332   0.14372   0.00000  Uiso   1.00
C189   C     0.18851   0.70159   0.03946   0.00000  Uiso   1.00
C190   C     0.33810   0.42078   0.32978   0.00000  Uiso   1.00
C191   C     0.40588   0.36216   0.34974   0.00000  Uiso   1.00
C192   C     0.38943   0.30517   0.35728   0.00000  Uiso   1.00
C193   C     0.39598   0.19930   0.37665   0.00000  Uiso   1.00
C194   C     0.29572   0.50828   0.36038   0.00000  Uiso   1.00
C195   C     0.32787   0.52321   0.40609   0.00000  Uiso   1.00
C196   C     0.27574   0.53988   0.43940   0.00000  Uiso   1.00
C197   C     0.21649   0.56987   0.50629   0.00000  Uiso   1.00
C198   C     0.19210   0.49180   0.29640   0.00000  Uiso   1.00
C199   C     0.20777   0.54101   0.23818   0.00000  Uiso   1.00
C200   C     0.15002   0.58381   0.17876   0.00000  Uiso   1.00
C201   C     0.17653   0.62496   0.13170   0.00000  Uiso   1.00
C202   C     0.25676   0.42241   0.31778   0.00000  Uiso   1.00
C203   C     0.24020   0.36549   0.32530   0.00000  Uiso   1.00
C204   C     0.30794   0.30680   0.34526   0.00000  Uiso   1.00
C205   C     0.21438   0.50992   0.34839   0.00000  Uiso   1.00
C206   C     0.16219   0.52655   0.38164   0.00000  Uiso   1.00
C207   C     0.19425   0.54151   0.42739   0.00000  Uiso   1.00
H208   H     0.40518   0.48751   0.32783   0.00000  Uiso   1.00
H209   H     0.37866   0.57919   0.21250   0.00000  Uiso   1.00
H210   H     0.46882   0.36091   0.35902   0.00000  Uiso   1.00
H211   H     0.39082   0.52194   0.41536   0.00000  Uiso   1.00
H212   H     0.31340   0.68153   0.07933   0.00000  Uiso   1.00
H213   H     0.50351   0.22127   0.38830   0.00000  Uiso   1.00
H214   H     0.33903   0.56084   0.50710   0.00000  Uiso   1.00
H215   H     0.12877   0.49307   0.28706   0.00000  Uiso   1.00
H216   H     0.08708   0.58506   0.16949   0.00000  Uiso   1.00
H217   H     0.17725   0.36677   0.31601   0.00000  Uiso   1.00
H218   H     0.09925   0.52781   0.37235   0.00000  Uiso   1.00
H219   H     0.07675   0.68629   0.04442   0.00000  Uiso   1.00
H220   H     0.26686   0.22602   0.35340   0.00000  Uiso   1.00
H221   H     0.10238   0.56560   0.47219   0.00000  Uiso   1.00
O222   O     0.17265   0.74430   0.98526   0.00000  Uiso   1.00
O223   O     0.42207   0.14045   0.39064   0.00000  Uiso   1.00
O224   O     0.20627   0.58597   0.54649   0.00000  Uiso   1.00
N225   N     0.26342   0.67004   0.08725   0.00000  Uiso   1.00
N226   N     0.44116   0.23972   0.37612   0.00000  Uiso   1.00
N227   N     0.28740   0.55717   0.48719   0.00000  Uiso   1.00
N228   N     0.13608   0.67260   0.06847   0.00000  Uiso   1.00
N229   N     0.31382   0.24228   0.35733   0.00000  Uiso   1.00
N230   N     0.16006   0.55974   0.46841   0.00000  Uiso   1.00
C231   C     0.00853   0.15603   0.07083   0.00000  Uiso   1.00
C232   C     0.01145   0.08635   0.08232   0.00000  Uiso   1.00
C233   C     0.07912   0.03551   0.08686   0.00000  Uiso   1.00
C234   C     0.06936   0.97539   0.09750   0.00000  Uiso   1.00
C235   C     0.08528   0.86853   0.11448   0.00000  Uiso   1.00
C236   C     0.98432   0.16375   0.12588   0.00000  Uiso   1.00
C237   C     0.02917   0.17800   0.16704   0.00000  Uiso   1.00
C238   C     0.99655   0.18304   0.21435   0.00000  Uiso   1.00
C239   C     0.97032   0.19639   0.29892   0.00000  Uiso   1.00
C240   C     0.93549   0.20677   0.01172   0.00000  Uiso   1.00
C241   C     0.93928   0.25721   0.95690   0.00000  Uiso   1.00
C242   C     0.86555   0.29849   0.90810   0.00000  Uiso   1.00
C243   C     0.76350   0.37865   0.81542   0.00000  Uiso   1.00
C244   C     0.87086   0.13966   0.08165   0.00000  Uiso   1.00
C245   C     0.93667   0.07745   0.08820   0.00000  Uiso   1.00
C246   C     0.92680   0.01739   0.09883   0.00000  Uiso   1.00
C247   C     0.99444   0.96648   0.10339   0.00000  Uiso   1.00
C248   C     0.90954   0.15485   0.13176   0.00000  Uiso   1.00
C249   C     0.87685   0.15988   0.17901   0.00000  Uiso   1.00
C250   C     0.92164   0.17413   0.22023   0.00000  Uiso   1.00
C251   C     0.86071   0.19788   0.01760   0.00000  Uiso   1.00
C252   C     0.78696   0.23909   0.96887   0.00000  Uiso   1.00
C253   C     0.79063   0.28958   0.91399   0.00000  Uiso   1.00
H254   H     0.06675   0.16296   0.06626   0.00000  Uiso   1.00
H255   H     0.13698   0.04241   0.08232   0.00000  Uiso   1.00
H256   H     0.08703   0.18488   0.16248   0.00000  Uiso   1.00
H257   H     0.99715   0.26408   0.95237   0.00000  Uiso   1.00
H258   H     0.18188   0.90483   0.10273   0.00000  Uiso   1.00
H259   H     0.07654   0.20527   0.27174   0.00000  Uiso   1.00
H260   H     0.88702   0.37227   0.82869   0.00000  Uiso   1.00
H261   H     0.81264   0.13273   0.08623   0.00000  Uiso   1.00
H262   H     0.86893   0.01052   0.10338   0.00000  Uiso   1.00
H263   H     0.81898   0.15300   0.18354   0.00000  Uiso   1.00
H264   H     0.72910   0.23219   0.97344   0.00000  Uiso   1.00
H265   H     0.96432   0.87895   0.11983   0.00000  Uiso   1.00
H266   H     0.85898   0.17939   0.28884   0.00000  Uiso   1.00
H267   H     0.66946   0.34639   0.84579   0.00000  Uiso   1.00
O268   O     0.11472   0.81204   0.12222   0.00000  Uiso   1.00
O269   O     0.97651   0.20621   0.34395   0.00000  Uiso   1.00
O270   O     0.72787   0.42531   0.76268   0.00000  Uiso   1.00
N271   N     0.12294   0.91552   0.10439   0.00000  Uiso   1.00
N272   N     0.02447   0.19640   0.26241   0.00000  Uiso   1.00
N273   N     0.84727   0.35254   0.84820   0.00000  Uiso   1.00
N274   N     0.00588   0.90159   0.11359   0.00000  Uiso   1.00
N275   N     0.90740   0.18247   0.27161   0.00000  Uiso   1.00
N276   N     0.73021   0.33862   0.85740   0.00000  Uiso   1.00
C277   C     0.21490   0.29065   0.69771   0.00000  Uiso   1.00
C278   C     0.22943   0.21560   0.72845   0.00000  Uiso   1.00
C279   C     0.19166   0.18332   0.77177   0.00000  Uiso   1.00
C280   C     0.21324   0.11436   0.79436   0.00000  Uiso   1.00
C281   C     0.22705   0.00321   0.84511   0.00000  Uiso   1.00
C282   C     0.18759   0.31694   0.62622   0.00000  Uiso   1.00
C283   C     0.11464   0.36986   0.58358   0.00000  Uiso   1.00
C284   C     0.10102   0.38622   0.52011   0.00000  Uiso   1.00
C285   C     0.04989   0.43244   0.41214   0.00000  Uiso   1.00
C286   C     0.29999   0.29483   0.71318   0.00000  Uiso   1.00
C287   C     0.32155   0.32918   0.74364   0.00000  Uiso   1.00
C288   C     0.40255   0.32693   0.75337   0.00000  Uiso   1.00
C289   C     0.52595   0.33881   0.78041   0.00000  Uiso   1.00
C290   C     0.32041   0.22560   0.66081   0.00000  Uiso   1.00
C291   C     0.28674   0.18027   0.70840   0.00000  Uiso   1.00
C292   C     0.30839   0.11135   0.73094   0.00000  Uiso   1.00
C293   C     0.27066   0.07896   0.77428   0.00000  Uiso   1.00
C294   C     0.24489   0.28161   0.60617   0.00000  Uiso   1.00
C295   C     0.23138   0.29790   0.54275   0.00000  Uiso   1.00
C296   C     0.15843   0.35083   0.50003   0.00000  Uiso   1.00
C297   C     0.35730   0.25949   0.69313   0.00000  Uiso   1.00
C298   C     0.43828   0.25720   0.70281   0.00000  Uiso   1.00
C299   C     0.45997   0.29154   0.73329   0.00000  Uiso   1.00
H300   H     0.17028   0.31816   0.71332   0.00000  Uiso   1.00
H301   H     0.14730   0.21068   0.78726   0.00000  Uiso   1.00
H302   H     0.07031   0.39720   0.59911   0.00000  Uiso   1.00
H303   H     0.27718   0.35651   0.75914   0.00000  Uiso   1.00
H304   H     0.14707   0.07594   0.86039   0.00000  Uiso   1.00
H305   H     0.98474   0.46925   0.46365   0.00000  Uiso   1.00
H306   H     0.42098   0.38345   0.80111   0.00000  Uiso   1.00
H307   H     0.36503   0.19809   0.64520   0.00000  Uiso   1.00
H308   H     0.35274   0.08402   0.71542   0.00000  Uiso   1.00
H309   H     0.27574   0.27055   0.52726   0.00000  Uiso   1.00
H310   H     0.48262   0.22986   0.68729   0.00000  Uiso   1.00
H311   H     0.31381   0.97314   0.80208   0.00000  Uiso   1.00
H312   H     0.15148   0.36645   0.40533   0.00000  Uiso   1.00
H313   H     0.58772   0.28065   0.74280   0.00000  Uiso   1.00
O314   O     0.21882   0.95167   0.87864   0.00000  Uiso   1.00
O315   O     0.00585   0.46769   0.35812   0.00000  Uiso   1.00
O316   O     0.57819   0.35512   0.80087   0.00000  Uiso   1.00
N317   N     0.18802   0.06740   0.83704   0.00000  Uiso   1.00
N318   N     0.03624   0.43511   0.46611   0.00000  Uiso   1.00
N319   N     0.44407   0.35491   0.78160   0.00000  Uiso   1.00
N320   N     0.27774   0.01208   0.80567   0.00000  Uiso   1.00
N321   N     0.12596   0.37980   0.43473   0.00000  Uiso   1.00
N322   N     0.53380   0.29960   0.75022   0.00000  Uiso   1.00
C323   C     0.61784   0.89205   0.29084   0.00000  Uiso   1.00
C324   C     0.59225   0.91920   0.21918   0.00000  Uiso   1.00
C325   C     0.52098   0.92144   0.18358   0.00000  Uiso   1.00
C326   C     0.50876   0.94817   0.11862   0.00000  Uiso   1.00
C327   C     0.46033   0.98677   0.01164   0.00000  Uiso   1.00
C328   C     0.62912   0.94941   0.30106   0.00000  Uiso   1.00
C329   C     0.58885   0.97703   0.33431   0.00000  Uiso   1.00
C330   C     0.60768   0.02919   0.33828   0.00000  Uiso   1.00
C331   C     0.61654   0.11464   0.35846   0.00000  Uiso   1.00
C332   C     0.70412   0.83735   0.31662   0.00000  Uiso   1.00
C333   C     0.72692   0.77076   0.36297   0.00000  Uiso   1.00
C334   C     0.80890   0.72858   0.38006   0.00000  Uiso   1.00
C335   C     0.93420   0.64005   0.42439   0.00000  Uiso   1.00
C336   C     0.72287   0.93554   0.23878   0.00000  Uiso   1.00
C337   C     0.64930   0.94283   0.19090   0.00000  Uiso   1.00
C338   C     0.63719   0.96956   0.12597   0.00000  Uiso   1.00
C339   C     0.56591   0.97184   0.09029   0.00000  Uiso   1.00
C340   C     0.68617   0.97303   0.27278   0.00000  Uiso   1.00
C341   C     0.70507   0.02515   0.27670   0.00000  Uiso   1.00
C342   C     0.66484   0.05285   0.30995   0.00000  Uiso   1.00
C343   C     0.76117   0.86098   0.28834   0.00000  Uiso   1.00
C344   C     0.84313   0.81889   0.30536   0.00000  Uiso   1.00
C345   C     0.86606   0.75224   0.35173   0.00000  Uiso   1.00
H346   H     0.57342   0.87366   0.31286   0.00000  Uiso   1.00
H347   H     0.47683   0.90316   0.20549   0.00000  Uiso   1.00
H348   H     0.54471   0.95874   0.35620   0.00000  Uiso   1.00
H349   H     0.68276   0.75250   0.38485   0.00000  Uiso   1.00
H350   H     0.39490   0.94631   0.07396   0.00000  Uiso   1.00
H351   H     0.53804   0.06348   0.39176   0.00000  Uiso   1.00
H352   H     0.82914   0.62859   0.45218   0.00000  Uiso   1.00
H353   H     0.76729   0.95394   0.21676   0.00000  Uiso   1.00
H354   H     0.68135   0.98784   0.10410   0.00000  Uiso   1.00
H355   H     0.74922   0.04342   0.25481   0.00000  Uiso   1.00
H356   H     0.88727   0.83718   0.28346   0.00000  Uiso   1.00
H357   H     0.56089   0.01504   0.99168   0.00000  Uiso   1.00
H358   H     0.70403   0.13221   0.30948   0.00000  Uiso   1.00
H359   H     0.99512   0.69732   0.36989   0.00000  Uiso   1.00
O360   O     0.41785   0.00155   0.96044   0.00000  Uiso   1.00
O361   O     0.60565   0.15526   0.37739   0.00000  Uiso   1.00
O362   O     0.98756   0.58470   0.45666   0.00000  Uiso   1.00
N363   N     0.44577   0.95782   0.07006   0.00000  Uiso   1.00
N364   N     0.57958   0.06737   0.36717   0.00000  Uiso   1.00
N365   N     0.85174   0.66079   0.42367   0.00000  Uiso   1.00
N366   N     0.53509   0.99480   0.02578   0.00000  Uiso   1.00
N367   N     0.66890   0.10436   0.32290   0.00000  Uiso   1.00
N368   N     0.94106   0.69777   0.37939   0.00000  Uiso   1.00
C369   C     0.59851   0.58921   0.95442   0.00000  Uiso   1.00
C370   C     0.60349   0.62473   0.99417   0.00000  Uiso   1.00
C371   C     0.53769   0.67448   0.99300   0.00000  Uiso   1.00
C372   C     0.55500   0.70065   0.03295   0.00000  Uiso   1.00
C373   C     0.55052   0.75925   0.08866   0.00000  Uiso   1.00
C374   C     0.63190   0.51389   0.00148   0.00000  Uiso   1.00
C375   C     0.58998   0.47044   0.00644   0.00000  Uiso   1.00
C376   C     0.63121   0.40330   0.05254   0.00000  Uiso   1.00
C377   C     0.67086   0.28981   0.11956   0.00000  Uiso   1.00
C378   C     0.66140   0.60023   0.91768   0.00000  Uiso   1.00
C379   C     0.64429   0.62936   0.85218   0.00000  Uiso   1.00
C380   C     0.71037   0.63490   0.82773   0.00000  Uiso   1.00
C381   C     0.79582   0.65546   0.76464   0.00000  Uiso   1.00
C382   C     0.74628   0.54722   0.02746   0.00000  Uiso   1.00
C383   C     0.68376   0.60192   0.03384   0.00000  Uiso   1.00
C384   C     0.70117   0.62803   0.07380   0.00000  Uiso   1.00
C385   C     0.63540   0.67781   0.07269   0.00000  Uiso   1.00
C386   C     0.71216   0.49108   0.04115   0.00000  Uiso   1.00
C387   C     0.75347   0.42399   0.08725   0.00000  Uiso   1.00
C388   C     0.71162   0.38046   0.09229   0.00000  Uiso   1.00
C389   C     0.74166   0.57743   0.95735   0.00000  Uiso   1.00
C390   C     0.80778   0.58291   0.93299   0.00000  Uiso   1.00
C391   C     0.79078   0.61205   0.86747   0.00000  Uiso   1.00
H392   H     0.53602   0.60696   0.92354   0.00000  Uiso   1.00
H393   H     0.47558   0.69211   0.96229   0.00000  Uiso   1.00
H394   H     0.52787   0.48810   0.97573   0.00000  Uiso   1.00
H395   H     0.58218   0.64700   0.82150   0.00000  Uiso   1.00
H396   H     0.44396   0.77644   0.02277   0.00000  Uiso   1.00
H397   H     0.55423   0.34628   0.05109   0.00000  Uiso   1.00
H398   H     0.66874   0.68134   0.72586   0.00000  Uiso   1.00
H399   H     0.80877   0.52947   0.05834   0.00000  Uiso   1.00
H400   H     0.76329   0.61037   0.10450   0.00000  Uiso   1.00
H401   H     0.81558   0.40636   0.11794   0.00000  Uiso   1.00
H402   H     0.86989   0.56526   0.96370   0.00000  Uiso   1.00
H403   H     0.67747   0.71009   0.13820   0.00000  Uiso   1.00
H404   H     0.78774   0.27993   0.16651   0.00000  Uiso   1.00
H405   H     0.90225   0.61500   0.84128   0.00000  Uiso   1.00
O406   O     0.52587   0.79787   0.10843   0.00000  Uiso   1.00
O407   O     0.67055   0.23351   0.14558   0.00000  Uiso   1.00
O408   O     0.82078   0.67311   0.71888   0.00000  Uiso   1.00
N409   N     0.50516   0.74973   0.04359   0.00000  Uiso   1.00
N410   N     0.60825   0.34756   0.07008   0.00000  Uiso   1.00
N411   N     0.71531   0.66080   0.76602   0.00000  Uiso   1.00
N412   N     0.63081   0.71403   0.10570   0.00000  Uiso   1.00
N413   N     0.73390   0.31186   0.13219   0.00000  Uiso   1.00
N414   N     0.84097   0.62510   0.82812   0.00000  Uiso   1.00
C415   C     0.25761   0.82283   0.34411   0.00000  Uiso   1.00
C416   C     0.29618   0.80908   0.29640   0.00000  Uiso   1.00
C417   C     0.25719   0.79992   0.24851   0.00000  Uiso   1.00
C418   C     0.30306   0.78789   0.20981   0.00000  Uiso   1.00
C419   C     0.35052   0.76693   0.13439   0.00000  Uiso   1.00
C420   C     0.31497   0.76747   0.40963   0.00000  Uiso   1.00
C421   C     0.29178   0.72332   0.45695   0.00000  Uiso   1.00
C422   C     0.35347   0.67626   0.51357   0.00000  Uiso   1.00
C423   C     0.43008   0.59073   0.61396   0.00000  Uiso   1.00
C424   C     0.26500   0.88844   0.33755   0.00000  Uiso   1.00
C425   C     0.19980   0.94602   0.32429   0.00000  Uiso   1.00
C426   C     0.21942   0.00081   0.32024   0.00000  Uiso   1.00
C427   C     0.21845   0.10312   0.30872   0.00000  Uiso   1.00
C428   C     0.40840   0.81774   0.36052   0.00000  Uiso   1.00
C429   C     0.37809   0.80632   0.30531   0.00000  Uiso   1.00
C430   C     0.42403   0.79430   0.26667   0.00000  Uiso   1.00
C431   C     0.38511   0.78512   0.21874   0.00000  Uiso   1.00
C432   C     0.39687   0.76470   0.41854   0.00000  Uiso   1.00
C433   C     0.45861   0.71770   0.47511   0.00000  Uiso   1.00
C434   C     0.43552   0.67349   0.52250   0.00000  Uiso   1.00
C435   C     0.34691   0.88569   0.34647   0.00000  Uiso   1.00
C436   C     0.36663   0.94039   0.34244   0.00000  Uiso   1.00
C437   C     0.30147   0.99804   0.32917   0.00000  Uiso   1.00
H438   H     0.19384   0.82498   0.33717   0.00000  Uiso   1.00
H439   H     0.19381   0.80206   0.24163   0.00000  Uiso   1.00
H440   H     0.22839   0.72548   0.45004   0.00000  Uiso   1.00
H441   H     0.13643   0.94814   0.31739   0.00000  Uiso   1.00
H442   H     0.22991   0.77540   0.13966   0.00000  Uiso   1.00
H443   H     0.30281   0.61395   0.57910   0.00000  Uiso   1.00
H444   H     0.10889   0.08348   0.29939   0.00000  Uiso   1.00
H445   H     0.47216   0.81559   0.36746   0.00000  Uiso   1.00
H446   H     0.48741   0.79216   0.27358   0.00000  Uiso   1.00
H447   H     0.52198   0.71558   0.48199   0.00000  Uiso   1.00
H448   H     0.43002   0.93824   0.34934   0.00000  Uiso   1.00
H449   H     0.46820   0.76737   0.16559   0.00000  Uiso   1.00
H450   H     0.54110   0.60591   0.60503   0.00000  Uiso   1.00
H451   H     0.34718   0.07544   0.32533   0.00000  Uiso   1.00
O452   O     0.35407   0.75612   0.09033   0.00000  Uiso   1.00
O453   O     0.44971   0.54431   0.66686   0.00000  Uiso   1.00
O454   O     0.19529   0.16031   0.29990   0.00000  Uiso   1.00
N455   N     0.28389   0.77674   0.15864   0.00000  Uiso   1.00
N456   N     0.35205   0.62578   0.56948   0.00000  Uiso   1.00
N457   N     0.17075   0.06475   0.30800   0.00000  Uiso   1.00
N458   N     0.41212   0.77242   0.17259   0.00000  Uiso   1.00
N459   N     0.48028   0.62146   0.58344   0.00000  Uiso   1.00
N460   N     0.29898   0.06042   0.32195   0.00000  Uiso   1.00
C461   C     0.74355   0.16947   0.69784   0.00000  Uiso   1.00
C462   C     0.76255   0.13719   0.76983   0.00000  Uiso   1.00
C463   C     0.74001   0.08497   0.80756   0.00000  Uiso   1.00
C464   C     0.76321   0.06250   0.87244   0.00000  Uiso   1.00
C465   C     0.78597   0.00802   0.98024   0.00000  Uiso   1.00
C466   C     0.69680   0.24475   0.67219   0.00000  Uiso   1.00
C467   C     0.61899   0.28296   0.62782   0.00000  Uiso   1.00
C468   C     0.58685   0.35104   0.61050   0.00000  Uiso   1.00
C469   C     0.50755   0.46356   0.56668   0.00000  Uiso   1.00
C470   C     0.82698   0.16278   0.68448   0.00000  Uiso   1.00
C471   C     0.85863   0.13209   0.65042   0.00000  Uiso   1.00
C472   C     0.93610   0.13117   0.64344   0.00000  Uiso   1.00
C473   C     0.05893   0.11642   0.61870   0.00000  Uiso   1.00
C474   C     0.82483   0.22245   0.74597   0.00000  Uiso   1.00
C475   C     0.80669   0.16597   0.79597   0.00000  Uiso   1.00
C476   C     0.82994   0.14358   0.86081   0.00000  Uiso   1.00
C477   C     0.80745   0.09132   0.89863   0.00000  Uiso   1.00
C478   C     0.74094   0.27353   0.69833   0.00000  Uiso   1.00
C479   C     0.70892   0.34157   0.68107   0.00000  Uiso   1.00
C480   C     0.63108   0.37987   0.63669   0.00000  Uiso   1.00
C481   C     0.87114   0.19156   0.71062   0.00000  Uiso   1.00
C482   C     0.94856   0.19070   0.70368   0.00000  Uiso   1.00
C483   C     0.98032   0.16000   0.66963   0.00000  Uiso   1.00
H484   H     0.70917   0.14707   0.67748   0.00000  Uiso   1.00
H485   H     0.70584   0.06271   0.78731   0.00000  Uiso   1.00
H486   H     0.58484   0.26068   0.60759   0.00000  Uiso   1.00
H487   H     0.82445   0.10982   0.63020   0.00000  Uiso   1.00
H488   H     0.72159   0.98189   0.92060   0.00000  Uiso   1.00
H489   H     0.46647   0.39931   0.54164   0.00000  Uiso   1.00
H490   H     0.97173   0.08121   0.58931   0.00000  Uiso   1.00
H491   H     0.85920   0.24486   0.76632   0.00000  Uiso   1.00
H492   H     0.86411   0.16586   0.88102   0.00000  Uiso   1.00
H493   H     0.74310   0.36382   0.70131   0.00000  Uiso   1.00
H494   H     0.98271   0.21297   0.72391   0.00000  Uiso   1.00
H495   H     0.85004   0.06561   0.99666   0.00000  Uiso   1.00
H496   H     0.59492   0.48303   0.61770   0.00000  Uiso   1.00
H497   H     0.10018   0.16493   0.66537   0.00000  Uiso   1.00
O498   O     0.78631   0.97003   0.03248   0.00000  Uiso   1.00
O499   O     0.45161   0.51768   0.53529   0.00000  Uiso   1.00
O500   O     0.11450   0.10033   0.59784   0.00000  Uiso   1.00
N501   N     0.75116   0.01243   0.92276   0.00000  Uiso   1.00
N502   N     0.51263   0.40269   0.56846   0.00000  Uiso   1.00
N503   N     0.98500   0.10531   0.61302   0.00000  Uiso   1.00
N504   N     0.82028   0.05747   0.96369   0.00000  Uiso   1.00
N505   N     0.58175   0.44774   0.60939   0.00000  Uiso   1.00
N506   N     0.05412   0.15035   0.65395   0.00000  Uiso   1.00
C507   C     0.04660   0.53272   0.02519   0.00000  Uiso   1.00
C508   C     0.01128   0.60971   0.99177   0.00000  Uiso   1.00
C509   C     0.94665   0.64955   0.00214   0.00000  Uiso   1.00
C510   C     0.92345   0.71902   0.96679   0.00000  Uiso   1.00
C511   C     0.86248   0.83422   0.92159   0.00000  Uiso   1.00
C512   C     0.03995   0.51312   0.97274   0.00000  Uiso   1.00
C513   C     0.99943   0.47175   0.96712   0.00000  Uiso   1.00
C514   C     0.00038   0.45991   0.91575   0.00000  Uiso   1.00
C515   C     0.98398   0.42511   0.84104   0.00000  Uiso   1.00
C516   C     0.13911   0.51135   0.05539   0.00000  Uiso   1.00
C517   C     0.18196   0.46847   0.11925   0.00000  Uiso   1.00
C518   C     0.26640   0.45512   0.13746   0.00000  Uiso   1.00
C519   C     0.40395   0.41757   0.19107   0.00000  Uiso   1.00
C520   C     0.12035   0.58526   0.94398   0.00000  Uiso   1.00
C521   C     0.05133   0.63824   0.94766   0.00000  Uiso   1.00
C522   C     0.02823   0.70767   0.91229   0.00000  Uiso   1.00
C523   C     0.96357   0.74761   0.92260   0.00000  Uiso   1.00
C524   C     0.08000   0.54165   0.92864   0.00000  Uiso   1.00
C525   C     0.08102   0.52987   0.87727   0.00000  Uiso   1.00
C526   C     0.04051   0.48849   0.87157   0.00000  Uiso   1.00
C527   C     0.17916   0.53988   0.01128   0.00000  Uiso   1.00
C528   C     0.26355   0.52659   0.02940   0.00000  Uiso   1.00
C529   C     0.30652   0.48370   0.09327   0.00000  Uiso   1.00
H530   H     0.01542   0.51051   0.05953   0.00000  Uiso   1.00
H531   H     0.91566   0.62745   0.03627   0.00000  Uiso   1.00
H532   H     0.96845   0.44967   0.00126   0.00000  Uiso   1.00
H533   H     0.15095   0.44640   0.15337   0.00000  Uiso   1.00
H534   H     0.82270   0.76968   0.99103   0.00000  Uiso   1.00
H535   H     0.93403   0.39481   0.91721   0.00000  Uiso   1.00
H536   H     0.31887   0.38790   0.23796   0.00000  Uiso   1.00
H537   H     0.15153   0.60747   0.90964   0.00000  Uiso   1.00
H538   H     0.05924   0.72974   0.87816   0.00000  Uiso   1.00
H539   H     0.11202   0.55195   0.84315   0.00000  Uiso   1.00
H540   H     0.29452   0.54868   0.99526   0.00000  Uiso   1.00
H541   H     0.93923   0.85270   0.86269   0.00000  Uiso   1.00
H542   H     0.05057   0.47782   0.78888   0.00000  Uiso   1.00
H543   H     0.43540   0.47092   0.10963   0.00000  Uiso   1.00
O544   O     0.81778   0.88987   0.90884   0.00000  Uiso   1.00
O545   O     0.96386   0.39804   0.81201   0.00000  Uiso   1.00
O546   O     0.46875   0.38898   0.23282   0.00000  Uiso   1.00
N547   N     0.86280   0.77244   0.96515   0.00000  Uiso   1.00
N548   N     0.96688   0.42196   0.89614   0.00000  Uiso   1.00
N549   N     0.32667   0.41549   0.19600   0.00000  Uiso   1.00
N550   N     0.92551   0.81712   0.89610   0.00000  Uiso   1.00
N551   N     0.02959   0.46663   0.82708   0.00000  Uiso   1.00
N552   N     0.38938   0.46016   0.12695   0.00000  Uiso   1.00
