data_job_05439
_audit_creation_date              2018-12-19
_audit_creation_method            'Materials Studio'
_symmetry_space_group_name_H-M    'P1'
_symmetry_Int_Tables_number       1
_symmetry_cell_setting            triclinic
loop_
_symmetry_equiv_pos_as_xyz
  x,y,z
_cell_length_a                    25.8652
_cell_length_b                    7.3349
_cell_length_c                    28.3172
_cell_angle_alpha                 90.0000
_cell_angle_beta                  90.0000
_cell_angle_gamma                 90.0000
loop_
_atom_site_label
_atom_site_type_symbol
_atom_site_fract_x
_atom_site_fract_y
_atom_site_fract_z
_atom_site_U_iso_or_equiv
_atom_site_adp_type
_atom_site_occupancy
C1     C     0.16127   0.90528   0.59676   0.00000  Uiso   1.00
C2     C     0.19890   0.02860   0.62318   0.00000  Uiso   1.00
C3     C     0.22892   0.97816   0.66165   0.00000  Uiso   1.00
C4     C     0.26090   0.11088   0.68085   0.00000  Uiso   1.00
C5     C     0.31903   0.27551   0.72472   0.00000  Uiso   1.00
C6     C     0.10903   0.00145   0.59841   0.00000  Uiso   1.00
C7     C     0.06348   0.92816   0.61604   0.00000  Uiso   1.00
C8     C     0.01981   0.03803   0.61438   0.00000  Uiso   1.00
C9     C     0.93840   0.16044   0.61977   0.00000  Uiso   1.00
C10    C     0.17822   0.90879   0.54519   0.00000  Uiso   1.00
C11    C     0.19083   0.75761   0.51807   0.00000  Uiso   1.00
C12    C     0.20539   0.78946   0.47160   0.00000  Uiso   1.00
C13    C     0.23140   0.76802   0.39436   0.00000  Uiso   1.00
C14    C     0.16469   0.23068   0.56247   0.00000  Uiso   1.00
C15    C     0.20076   0.20534   0.60456   0.00000  Uiso   1.00
C16    C     0.23270   0.33818   0.62370   0.00000  Uiso   1.00
C17    C     0.26276   0.28794   0.66219   0.00000  Uiso   1.00
C18    C     0.11089   0.17818   0.57978   0.00000  Uiso   1.00
C19    C     0.06727   0.28817   0.57810   0.00000  Uiso   1.00
C20    C     0.02167   0.21509   0.59572   0.00000  Uiso   1.00
C21    C     0.18008   0.08554   0.52657   0.00000  Uiso   1.00
C22    C     0.19461   0.11763   0.48013   0.00000  Uiso   1.00
C23    C     0.20725   0.96652   0.45294   0.00000  Uiso   1.00
H24    H     0.15982   0.76768   0.61127   0.00000  Uiso   1.00
H25    H     0.22747   0.84137   0.67606   0.00000  Uiso   1.00
H26    H     0.06205   0.79138   0.63045   0.00000  Uiso   1.00
H27    H     0.18938   0.62086   0.53250   0.00000  Uiso   1.00
H28    H     0.30327   0.00104   0.73968   0.00000  Uiso   1.00
H29    H     0.95449   0.89560   0.64351   0.00000  Uiso   1.00
H30    H     0.22298   0.53601   0.43696   0.00000  Uiso   1.00
H31    H     0.16614   0.36828   0.54796   0.00000  Uiso   1.00
H32    H     0.23413   0.47494   0.60928   0.00000  Uiso   1.00
H33    H     0.06872   0.42494   0.56368   0.00000  Uiso   1.00
H34    H     0.19605   0.25441   0.46572   0.00000  Uiso   1.00
H35    H     0.30868   0.51526   0.68549   0.00000  Uiso   1.00
H36    H     0.95989   0.40981   0.58931   0.00000  Uiso   1.00
H37    H     0.22839   0.05023   0.38276   0.00000  Uiso   1.00
O38    O     0.35058   0.31749   0.75407   0.00000  Uiso   1.00
O39    O     0.89299   0.17914   0.62789   0.00000  Uiso   1.00
O40    O     0.24525   0.70737   0.35690   0.00000  Uiso   1.00
N41    N     0.29522   0.10742   0.71851   0.00000  Uiso   1.00
N42    N     0.96913   0.00884   0.62860   0.00000  Uiso   1.00
N43    N     0.22014   0.67265   0.43548   0.00000  Uiso   1.00
N44    N     0.29813   0.38412   0.68934   0.00000  Uiso   1.00
N45    N     0.97204   0.28554   0.59943   0.00000  Uiso   1.00
N46    N     0.22305   0.94935   0.40632   0.00000  Uiso   1.00
C47    C     0.40950   0.89352   0.41302   0.00000  Uiso   1.00
C48    C     0.37112   0.01278   0.38624   0.00000  Uiso   1.00
C49    C     0.34087   0.95764   0.34837   0.00000  Uiso   1.00
C50    C     0.30819   0.08718   0.32870   0.00000  Uiso   1.00
C51    C     0.24897   0.24528   0.28444   0.00000  Uiso   1.00
C52    C     0.46136   0.99187   0.41031   0.00000  Uiso   1.00
C53    C     0.50697   0.91913   0.39268   0.00000  Uiso   1.00
C54    C     0.55026   0.03108   0.39328   0.00000  Uiso   1.00
C55    C     0.63114   0.15666   0.38641   0.00000  Uiso   1.00
C56    C     0.39311   0.90079   0.46471   0.00000  Uiso   1.00
C57    C     0.38137   0.75145   0.49283   0.00000  Uiso   1.00
C58    C     0.36720   0.78671   0.53924   0.00000  Uiso   1.00
C59    C     0.34213   0.77086   0.61683   0.00000  Uiso   1.00
C60    C     0.40525   0.22166   0.44544   0.00000  Uiso   1.00
C61    C     0.36882   0.19101   0.40385   0.00000  Uiso   1.00
C62    C     0.33617   0.32068   0.38424   0.00000  Uiso   1.00
C63    C     0.30588   0.26573   0.34634   0.00000  Uiso   1.00
C64    C     0.45905   0.17010   0.42792   0.00000  Uiso   1.00
C65    C     0.50228   0.28217   0.42855   0.00000  Uiso   1.00
C66    C     0.54795   0.20963   0.41092   0.00000  Uiso   1.00
C67    C     0.39081   0.07901   0.48232   0.00000  Uiso   1.00
C68    C     0.37666   0.11450   0.52869   0.00000  Uiso   1.00
C69    C     0.36489   0.96526   0.55688   0.00000  Uiso   1.00
H70    H     0.41130   0.75477   0.39931   0.00000  Uiso   1.00
H71    H     0.34267   0.81970   0.33475   0.00000  Uiso   1.00
H72    H     0.50875   0.78120   0.37906   0.00000  Uiso   1.00
H73    H     0.38315   0.61355   0.47919   0.00000  Uiso   1.00
H74    H     0.26558   0.97031   0.27093   0.00000  Uiso   1.00
H75    H     0.61577   0.88910   0.36438   0.00000  Uiso   1.00
H76    H     0.35093   0.53558   0.57552   0.00000  Uiso   1.00
H77    H     0.40346   0.36042   0.45914   0.00000  Uiso   1.00
H78    H     0.33440   0.45859   0.39787   0.00000  Uiso   1.00
H79    H     0.50048   0.42009   0.44218   0.00000  Uiso   1.00
H80    H     0.37488   0.25244   0.54231   0.00000  Uiso   1.00
H81    H     0.25886   0.48886   0.32216   0.00000  Uiso   1.00
H82    H     0.60906   0.40764   0.41560   0.00000  Uiso   1.00
H83    H     0.34422   0.05413   0.62675   0.00000  Uiso   1.00
O84    O     0.21694   0.28325   0.25515   0.00000  Uiso   1.00
O85    O     0.67638   0.17669   0.37775   0.00000  Uiso   1.00
O86    O     0.32892   0.71289   0.65477   0.00000  Uiso   1.00
N87    N     0.27347   0.07887   0.29141   0.00000  Uiso   1.00
N88    N     0.60088   0.00295   0.37876   0.00000  Uiso   1.00
N89    N     0.35329   0.67244   0.57617   0.00000  Uiso   1.00
N90    N     0.26986   0.35789   0.31897   0.00000  Uiso   1.00
N91    N     0.59726   0.28198   0.40633   0.00000  Uiso   1.00
N92    N     0.34968   0.95147   0.60373   0.00000  Uiso   1.00
C93    C     0.83873   0.09472   0.09676   0.00000  Uiso   1.00
C94    C     0.80110   0.97140   0.12318   0.00000  Uiso   1.00
C95    C     0.77108   0.02184   0.16165   0.00000  Uiso   1.00
C96    C     0.73910   0.88912   0.18085   0.00000  Uiso   1.00
C97    C     0.68097   0.72449   0.22472   0.00000  Uiso   1.00
C98    C     0.89097   0.99855   0.09841   0.00000  Uiso   1.00
C99    C     0.93652   0.07184   0.11604   0.00000  Uiso   1.00
C100   C     0.98019   0.96197   0.11438   0.00000  Uiso   1.00
C101   C     0.06160   0.83956   0.11977   0.00000  Uiso   1.00
C102   C     0.82178   0.09121   0.04519   0.00000  Uiso   1.00
C103   C     0.80917   0.24239   0.01807   0.00000  Uiso   1.00
C104   C     0.79461   0.21054   0.97160   0.00000  Uiso   1.00
C105   C     0.76860   0.23198   0.89436   0.00000  Uiso   1.00
C106   C     0.83531   0.76932   0.06247   0.00000  Uiso   1.00
C107   C     0.79924   0.79466   0.10456   0.00000  Uiso   1.00
C108   C     0.76730   0.66182   0.12370   0.00000  Uiso   1.00
C109   C     0.73724   0.71206   0.16219   0.00000  Uiso   1.00
C110   C     0.88911   0.82182   0.07978   0.00000  Uiso   1.00
C111   C     0.93273   0.71183   0.07810   0.00000  Uiso   1.00
C112   C     0.97833   0.78491   0.09572   0.00000  Uiso   1.00
C113   C     0.81992   0.91446   0.02657   0.00000  Uiso   1.00
C114   C     0.80539   0.88237   0.98013   0.00000  Uiso   1.00
C115   C     0.79275   0.03348   0.95294   0.00000  Uiso   1.00
H116   H     0.84018   0.23232   0.11127   0.00000  Uiso   1.00
H117   H     0.77253   0.15863   0.17606   0.00000  Uiso   1.00
H118   H     0.93795   0.20862   0.13045   0.00000  Uiso   1.00
H119   H     0.81062   0.37914   0.03250   0.00000  Uiso   1.00
H120   H     0.69673   0.99896   0.23968   0.00000  Uiso   1.00
H121   H     0.04551   0.10440   0.14351   0.00000  Uiso   1.00
H122   H     0.77702   0.46399   0.93696   0.00000  Uiso   1.00
H123   H     0.83386   0.63172   0.04796   0.00000  Uiso   1.00
H124   H     0.76587   0.52506   0.10928   0.00000  Uiso   1.00
H125   H     0.93128   0.57506   0.06368   0.00000  Uiso   1.00
H126   H     0.80395   0.74559   0.96572   0.00000  Uiso   1.00
H127   H     0.69132   0.48474   0.18549   0.00000  Uiso   1.00
H128   H     0.04011   0.59019   0.08931   0.00000  Uiso   1.00
H129   H     0.77161   0.94977   0.88276   0.00000  Uiso   1.00
O130   O     0.64942   0.68251   0.25407   0.00000  Uiso   1.00
O131   O     0.10701   0.82086   0.12789   0.00000  Uiso   1.00
O132   O     0.75475   0.29263   0.85690   0.00000  Uiso   1.00
N133   N     0.70478   0.89258   0.21851   0.00000  Uiso   1.00
N134   N     0.03087   0.99116   0.12860   0.00000  Uiso   1.00
N135   N     0.77986   0.32735   0.93548   0.00000  Uiso   1.00
N136   N     0.70187   0.61588   0.18934   0.00000  Uiso   1.00
N137   N     0.02796   0.71446   0.09943   0.00000  Uiso   1.00
N138   N     0.77695   0.05065   0.90632   0.00000  Uiso   1.00
C139   C     0.59050   0.10648   0.91302   0.00000  Uiso   1.00
C140   C     0.62888   0.98722   0.88624   0.00000  Uiso   1.00
C141   C     0.65913   0.04236   0.84837   0.00000  Uiso   1.00
C142   C     0.69181   0.91282   0.82870   0.00000  Uiso   1.00
C143   C     0.75103   0.75472   0.78444   0.00000  Uiso   1.00
C144   C     0.53864   0.00813   0.91031   0.00000  Uiso   1.00
C145   C     0.49303   0.08087   0.89268   0.00000  Uiso   1.00
C146   C     0.44974   0.96892   0.89328   0.00000  Uiso   1.00
C147   C     0.36886   0.84334   0.88641   0.00000  Uiso   1.00
C148   C     0.60689   0.09921   0.96471   0.00000  Uiso   1.00
C149   C     0.61863   0.24855   0.99283   0.00000  Uiso   1.00
C150   C     0.63280   0.21329   0.03924   0.00000  Uiso   1.00
C151   C     0.65787   0.22914   0.11683   0.00000  Uiso   1.00
C152   C     0.59475   0.77834   0.94544   0.00000  Uiso   1.00
C153   C     0.63118   0.80899   0.90385   0.00000  Uiso   1.00
C154   C     0.66383   0.67932   0.88424   0.00000  Uiso   1.00
C155   C     0.69412   0.73427   0.84634   0.00000  Uiso   1.00
C156   C     0.54095   0.82990   0.92792   0.00000  Uiso   1.00
C157   C     0.49772   0.71783   0.92855   0.00000  Uiso   1.00
C158   C     0.45205   0.79037   0.91092   0.00000  Uiso   1.00
C159   C     0.60919   0.92099   0.98232   0.00000  Uiso   1.00
C160   C     0.62334   0.88550   0.02869   0.00000  Uiso   1.00
C161   C     0.63511   0.03474   0.05688   0.00000  Uiso   1.00
H162   H     0.58870   0.24523   0.89931   0.00000  Uiso   1.00
H163   H     0.65733   0.18030   0.83475   0.00000  Uiso   1.00
H164   H     0.49125   0.21880   0.87906   0.00000  Uiso   1.00
H165   H     0.61685   0.38645   0.97919   0.00000  Uiso   1.00
H166   H     0.73442   0.02969   0.77093   0.00000  Uiso   1.00
H167   H     0.38423   0.11090   0.86438   0.00000  Uiso   1.00
H168   H     0.64907   0.46442   0.07552   0.00000  Uiso   1.00
H169   H     0.59654   0.63958   0.95914   0.00000  Uiso   1.00
H170   H     0.66560   0.54141   0.89787   0.00000  Uiso   1.00
H171   H     0.49952   0.57991   0.94218   0.00000  Uiso   1.00
H172   H     0.62512   0.74756   0.04231   0.00000  Uiso   1.00
H173   H     0.74114   0.51114   0.82216   0.00000  Uiso   1.00
H174   H     0.39094   0.59236   0.91560   0.00000  Uiso   1.00
H175   H     0.65578   0.94587   0.12675   0.00000  Uiso   1.00
O176   O     0.78306   0.71675   0.75515   0.00000  Uiso   1.00
O177   O     0.32362   0.82331   0.87775   0.00000  Uiso   1.00
O178   O     0.67108   0.28711   0.15477   0.00000  Uiso   1.00
N179   N     0.72653   0.92113   0.79141   0.00000  Uiso   1.00
N180   N     0.39912   0.99705   0.87876   0.00000  Uiso   1.00
N181   N     0.64671   0.32756   0.07617   0.00000  Uiso   1.00
N182   N     0.73014   0.64211   0.81897   0.00000  Uiso   1.00
N183   N     0.40274   0.71802   0.90633   0.00000  Uiso   1.00
N184   N     0.65032   0.04853   0.10373   0.00000  Uiso   1.00
C185   C     0.66127   0.59472   0.59676   0.00000  Uiso   1.00
C186   C     0.69890   0.47140   0.62318   0.00000  Uiso   1.00
C187   C     0.72892   0.52184   0.66165   0.00000  Uiso   1.00
C188   C     0.76090   0.38912   0.68085   0.00000  Uiso   1.00
C189   C     0.81903   0.22449   0.72472   0.00000  Uiso   1.00
C190   C     0.60903   0.49855   0.59841   0.00000  Uiso   1.00
C191   C     0.56348   0.57184   0.61604   0.00000  Uiso   1.00
C192   C     0.51981   0.46197   0.61438   0.00000  Uiso   1.00
C193   C     0.43840   0.33956   0.61977   0.00000  Uiso   1.00
C194   C     0.67822   0.59121   0.54519   0.00000  Uiso   1.00
C195   C     0.69083   0.74239   0.51807   0.00000  Uiso   1.00
C196   C     0.70539   0.71054   0.47160   0.00000  Uiso   1.00
C197   C     0.73140   0.73198   0.39436   0.00000  Uiso   1.00
C198   C     0.66469   0.26932   0.56247   0.00000  Uiso   1.00
C199   C     0.70076   0.29466   0.60456   0.00000  Uiso   1.00
C200   C     0.73270   0.16182   0.62370   0.00000  Uiso   1.00
C201   C     0.76276   0.21206   0.66219   0.00000  Uiso   1.00
C202   C     0.61089   0.32182   0.57978   0.00000  Uiso   1.00
C203   C     0.56727   0.21183   0.57810   0.00000  Uiso   1.00
C204   C     0.52167   0.28491   0.59572   0.00000  Uiso   1.00
C205   C     0.68008   0.41446   0.52657   0.00000  Uiso   1.00
C206   C     0.69461   0.38237   0.48013   0.00000  Uiso   1.00
C207   C     0.70725   0.53348   0.45294   0.00000  Uiso   1.00
H208   H     0.65982   0.73232   0.61127   0.00000  Uiso   1.00
H209   H     0.72747   0.65863   0.67606   0.00000  Uiso   1.00
H210   H     0.56205   0.70862   0.63045   0.00000  Uiso   1.00
H211   H     0.68938   0.87914   0.53250   0.00000  Uiso   1.00
H212   H     0.80327   0.49896   0.73968   0.00000  Uiso   1.00
H213   H     0.45449   0.60440   0.64351   0.00000  Uiso   1.00
H214   H     0.72298   0.96399   0.43696   0.00000  Uiso   1.00
H215   H     0.66614   0.13172   0.54796   0.00000  Uiso   1.00
H216   H     0.73413   0.02506   0.60928   0.00000  Uiso   1.00
H217   H     0.56872   0.07506   0.56368   0.00000  Uiso   1.00
H218   H     0.69605   0.24559   0.46572   0.00000  Uiso   1.00
H219   H     0.80868   0.98474   0.68549   0.00000  Uiso   1.00
H220   H     0.45989   0.09019   0.58931   0.00000  Uiso   1.00
H221   H     0.72839   0.44977   0.38276   0.00000  Uiso   1.00
O222   O     0.85058   0.18251   0.75407   0.00000  Uiso   1.00
O223   O     0.39299   0.32086   0.62789   0.00000  Uiso   1.00
O224   O     0.74525   0.79263   0.35690   0.00000  Uiso   1.00
N225   N     0.79522   0.39258   0.71851   0.00000  Uiso   1.00
N226   N     0.46913   0.49116   0.62860   0.00000  Uiso   1.00
N227   N     0.72014   0.82735   0.43548   0.00000  Uiso   1.00
N228   N     0.79813   0.11588   0.68934   0.00000  Uiso   1.00
N229   N     0.47204   0.21446   0.59943   0.00000  Uiso   1.00
N230   N     0.72305   0.55065   0.40632   0.00000  Uiso   1.00
C231   C     0.90950   0.60648   0.41302   0.00000  Uiso   1.00
C232   C     0.87112   0.48722   0.38624   0.00000  Uiso   1.00
C233   C     0.84087   0.54236   0.34837   0.00000  Uiso   1.00
C234   C     0.80819   0.41282   0.32870   0.00000  Uiso   1.00
C235   C     0.74897   0.25472   0.28444   0.00000  Uiso   1.00
C236   C     0.96136   0.50813   0.41031   0.00000  Uiso   1.00
C237   C     0.00697   0.58087   0.39268   0.00000  Uiso   1.00
C238   C     0.05026   0.46892   0.39328   0.00000  Uiso   1.00
C239   C     0.13114   0.34334   0.38641   0.00000  Uiso   1.00
C240   C     0.89311   0.59921   0.46471   0.00000  Uiso   1.00
C241   C     0.88137   0.74855   0.49283   0.00000  Uiso   1.00
C242   C     0.86720   0.71329   0.53924   0.00000  Uiso   1.00
C243   C     0.84213   0.72914   0.61683   0.00000  Uiso   1.00
C244   C     0.90525   0.27834   0.44544   0.00000  Uiso   1.00
C245   C     0.86882   0.30899   0.40385   0.00000  Uiso   1.00
C246   C     0.83617   0.17932   0.38424   0.00000  Uiso   1.00
C247   C     0.80588   0.23427   0.34634   0.00000  Uiso   1.00
C248   C     0.95905   0.32990   0.42792   0.00000  Uiso   1.00
C249   C     0.00228   0.21783   0.42855   0.00000  Uiso   1.00
C250   C     0.04795   0.29037   0.41092   0.00000  Uiso   1.00
C251   C     0.89081   0.42099   0.48232   0.00000  Uiso   1.00
C252   C     0.87666   0.38550   0.52869   0.00000  Uiso   1.00
C253   C     0.86489   0.53474   0.55688   0.00000  Uiso   1.00
H254   H     0.91130   0.74523   0.39931   0.00000  Uiso   1.00
H255   H     0.84267   0.68030   0.33475   0.00000  Uiso   1.00
H256   H     0.00875   0.71880   0.37906   0.00000  Uiso   1.00
H257   H     0.88315   0.88645   0.47919   0.00000  Uiso   1.00
H258   H     0.76558   0.52969   0.27093   0.00000  Uiso   1.00
H259   H     0.11577   0.61090   0.36438   0.00000  Uiso   1.00
H260   H     0.85093   0.96442   0.57552   0.00000  Uiso   1.00
H261   H     0.90346   0.13958   0.45914   0.00000  Uiso   1.00
H262   H     0.83440   0.04141   0.39787   0.00000  Uiso   1.00
H263   H     0.00048   0.07991   0.44218   0.00000  Uiso   1.00
H264   H     0.87488   0.24756   0.54231   0.00000  Uiso   1.00
H265   H     0.75886   0.01114   0.32216   0.00000  Uiso   1.00
H266   H     0.10906   0.09236   0.41560   0.00000  Uiso   1.00
H267   H     0.84422   0.44587   0.62675   0.00000  Uiso   1.00
O268   O     0.71694   0.21675   0.25515   0.00000  Uiso   1.00
O269   O     0.17638   0.32331   0.37775   0.00000  Uiso   1.00
O270   O     0.82892   0.78711   0.65477   0.00000  Uiso   1.00
N271   N     0.77347   0.42113   0.29141   0.00000  Uiso   1.00
N272   N     0.10088   0.49705   0.37876   0.00000  Uiso   1.00
N273   N     0.85329   0.82756   0.57617   0.00000  Uiso   1.00
N274   N     0.76986   0.14211   0.31897   0.00000  Uiso   1.00
N275   N     0.09726   0.21802   0.40633   0.00000  Uiso   1.00
N276   N     0.84968   0.54853   0.60373   0.00000  Uiso   1.00
C277   C     0.33873   0.40528   0.09676   0.00000  Uiso   1.00
C278   C     0.30110   0.52860   0.12318   0.00000  Uiso   1.00
C279   C     0.27108   0.47816   0.16165   0.00000  Uiso   1.00
C280   C     0.23910   0.61088   0.18085   0.00000  Uiso   1.00
C281   C     0.18097   0.77551   0.22472   0.00000  Uiso   1.00
C282   C     0.39097   0.50145   0.09841   0.00000  Uiso   1.00
C283   C     0.43652   0.42816   0.11604   0.00000  Uiso   1.00
C284   C     0.48019   0.53803   0.11438   0.00000  Uiso   1.00
C285   C     0.56160   0.66044   0.11977   0.00000  Uiso   1.00
C286   C     0.32178   0.40879   0.04519   0.00000  Uiso   1.00
C287   C     0.30917   0.25761   0.01807   0.00000  Uiso   1.00
C288   C     0.29461   0.28946   0.97160   0.00000  Uiso   1.00
C289   C     0.26860   0.26802   0.89436   0.00000  Uiso   1.00
C290   C     0.33531   0.73068   0.06247   0.00000  Uiso   1.00
C291   C     0.29924   0.70534   0.10456   0.00000  Uiso   1.00
C292   C     0.26730   0.83818   0.12370   0.00000  Uiso   1.00
C293   C     0.23724   0.78794   0.16219   0.00000  Uiso   1.00
C294   C     0.38911   0.67818   0.07978   0.00000  Uiso   1.00
C295   C     0.43273   0.78817   0.07810   0.00000  Uiso   1.00
C296   C     0.47833   0.71509   0.09572   0.00000  Uiso   1.00
C297   C     0.31992   0.58554   0.02657   0.00000  Uiso   1.00
C298   C     0.30539   0.61763   0.98013   0.00000  Uiso   1.00
C299   C     0.29275   0.46652   0.95294   0.00000  Uiso   1.00
H300   H     0.34018   0.26768   0.11127   0.00000  Uiso   1.00
H301   H     0.27253   0.34137   0.17606   0.00000  Uiso   1.00
H302   H     0.43795   0.29138   0.13045   0.00000  Uiso   1.00
H303   H     0.31062   0.12086   0.03250   0.00000  Uiso   1.00
H304   H     0.19673   0.50104   0.23968   0.00000  Uiso   1.00
H305   H     0.54551   0.39560   0.14351   0.00000  Uiso   1.00
H306   H     0.27702   0.03601   0.93696   0.00000  Uiso   1.00
H307   H     0.33386   0.86828   0.04796   0.00000  Uiso   1.00
H308   H     0.26587   0.97494   0.10928   0.00000  Uiso   1.00
H309   H     0.43128   0.92494   0.06368   0.00000  Uiso   1.00
H310   H     0.30395   0.75441   0.96572   0.00000  Uiso   1.00
H311   H     0.19132   0.01526   0.18549   0.00000  Uiso   1.00
H312   H     0.54011   0.90981   0.08931   0.00000  Uiso   1.00
H313   H     0.27161   0.55023   0.88276   0.00000  Uiso   1.00
O314   O     0.14942   0.81749   0.25407   0.00000  Uiso   1.00
O315   O     0.60701   0.67914   0.12789   0.00000  Uiso   1.00
O316   O     0.25475   0.20737   0.85690   0.00000  Uiso   1.00
N317   N     0.20478   0.60742   0.21851   0.00000  Uiso   1.00
N318   N     0.53087   0.50884   0.12860   0.00000  Uiso   1.00
N319   N     0.27986   0.17265   0.93548   0.00000  Uiso   1.00
N320   N     0.20187   0.88412   0.18934   0.00000  Uiso   1.00
N321   N     0.52796   0.78554   0.09943   0.00000  Uiso   1.00
N322   N     0.27695   0.44935   0.90632   0.00000  Uiso   1.00
C323   C     0.09050   0.39352   0.91302   0.00000  Uiso   1.00
C324   C     0.12888   0.51278   0.88624   0.00000  Uiso   1.00
C325   C     0.15913   0.45764   0.84837   0.00000  Uiso   1.00
C326   C     0.19181   0.58718   0.82870   0.00000  Uiso   1.00
C327   C     0.25103   0.74528   0.78444   0.00000  Uiso   1.00
C328   C     0.03864   0.49187   0.91031   0.00000  Uiso   1.00
C329   C     0.99303   0.41913   0.89268   0.00000  Uiso   1.00
C330   C     0.94974   0.53108   0.89328   0.00000  Uiso   1.00
C331   C     0.86886   0.65666   0.88641   0.00000  Uiso   1.00
C332   C     0.10689   0.40079   0.96471   0.00000  Uiso   1.00
C333   C     0.11863   0.25145   0.99283   0.00000  Uiso   1.00
C334   C     0.13280   0.28671   0.03924   0.00000  Uiso   1.00
C335   C     0.15787   0.27086   0.11683   0.00000  Uiso   1.00
C336   C     0.09475   0.72166   0.94544   0.00000  Uiso   1.00
C337   C     0.13118   0.69101   0.90385   0.00000  Uiso   1.00
C338   C     0.16383   0.82068   0.88424   0.00000  Uiso   1.00
C339   C     0.19412   0.76573   0.84634   0.00000  Uiso   1.00
C340   C     0.04095   0.67010   0.92792   0.00000  Uiso   1.00
C341   C     0.99772   0.78217   0.92855   0.00000  Uiso   1.00
C342   C     0.95205   0.70963   0.91092   0.00000  Uiso   1.00
C343   C     0.10919   0.57901   0.98232   0.00000  Uiso   1.00
C344   C     0.12334   0.61450   0.02869   0.00000  Uiso   1.00
C345   C     0.13511   0.46526   0.05688   0.00000  Uiso   1.00
H346   H     0.08870   0.25477   0.89931   0.00000  Uiso   1.00
H347   H     0.15733   0.31970   0.83475   0.00000  Uiso   1.00
H348   H     0.99125   0.28120   0.87906   0.00000  Uiso   1.00
H349   H     0.11685   0.11355   0.97919   0.00000  Uiso   1.00
H350   H     0.23442   0.47031   0.77093   0.00000  Uiso   1.00
H351   H     0.88423   0.38910   0.86438   0.00000  Uiso   1.00
H352   H     0.14907   0.03558   0.07552   0.00000  Uiso   1.00
H353   H     0.09654   0.86042   0.95914   0.00000  Uiso   1.00
H354   H     0.16560   0.95859   0.89787   0.00000  Uiso   1.00
H355   H     0.99952   0.92009   0.94218   0.00000  Uiso   1.00
H356   H     0.12512   0.75244   0.04231   0.00000  Uiso   1.00
H357   H     0.24114   0.98886   0.82216   0.00000  Uiso   1.00
H358   H     0.89094   0.90764   0.91560   0.00000  Uiso   1.00
H359   H     0.15578   0.55413   0.12675   0.00000  Uiso   1.00
O360   O     0.28306   0.78325   0.75515   0.00000  Uiso   1.00
O361   O     0.82362   0.67669   0.87775   0.00000  Uiso   1.00
O362   O     0.17108   0.21289   0.15477   0.00000  Uiso   1.00
N363   N     0.22653   0.57887   0.79141   0.00000  Uiso   1.00
N364   N     0.89912   0.50295   0.87876   0.00000  Uiso   1.00
N365   N     0.14671   0.17244   0.07617   0.00000  Uiso   1.00
N366   N     0.23014   0.85789   0.81897   0.00000  Uiso   1.00
N367   N     0.90274   0.78198   0.90633   0.00000  Uiso   1.00
N368   N     0.15032   0.45147   0.10373   0.00000  Uiso   1.00
