data_job_06034
_audit_creation_date              2018-12-19
_audit_creation_method            'Materials Studio'
_symmetry_space_group_name_H-M    'P1'
_symmetry_Int_Tables_number       1
_symmetry_cell_setting            triclinic
loop_
_symmetry_equiv_pos_as_xyz
  x,y,z
_cell_length_a                    8.4419
_cell_length_b                    22.7852
_cell_length_c                    23.0643
_cell_angle_alpha                 118.1990
_cell_angle_beta                  82.9293
_cell_angle_gamma                 84.9837
loop_
_atom_site_label
_atom_site_type_symbol
_atom_site_fract_x
_atom_site_fract_y
_atom_site_fract_z
_atom_site_U_iso_or_equiv
_atom_site_adp_type
_atom_site_occupancy
C1     C     0.46913   0.12235   0.34669   0.00000  Uiso   1.00
C2     C     0.54578   0.05076   0.32682   0.00000  Uiso   1.00
C3     C     0.71048   0.02709   0.31365   0.00000  Uiso   1.00
C4     C     0.75621   0.95997   0.29625   0.00000  Uiso   1.00
C5     C     0.89272   0.85517   0.26598   0.00000  Uiso   1.00
C6     C     0.36398   0.11521   0.29522   0.00000  Uiso   1.00
C7     C     0.37582   0.14574   0.25549   0.00000  Uiso   1.00
C8     C     0.26850   0.13289   0.21150   0.00000  Uiso   1.00
C9     C     0.12268   0.12819   0.13221   0.00000  Uiso   1.00
C10    C     0.35259   0.14823   0.41290   0.00000  Uiso   1.00
C11    C     0.35481   0.20653   0.47211   0.00000  Uiso   1.00
C12    C     0.23786   0.22148   0.52719   0.00000  Uiso   1.00
C13    C     0.07436   0.26805   0.63061   0.00000  Uiso   1.00
C14    C     0.25748   0.04523   0.33922   0.00000  Uiso   1.00
C15    C     0.43081   0.00887   0.32277   0.00000  Uiso   1.00
C16    C     0.47631   0.94177   0.30539   0.00000  Uiso   1.00
C17    C     0.64105   0.91801   0.29218   0.00000  Uiso   1.00
C18    C     0.24902   0.07333   0.29117   0.00000  Uiso   1.00
C19    C     0.14165   0.06042   0.24723   0.00000  Uiso   1.00
C20    C     0.15333   0.09092   0.20743   0.00000  Uiso   1.00
C21    C     0.23762   0.10634   0.40885   0.00000  Uiso   1.00
C22    C     0.12064   0.12121   0.46385   0.00000  Uiso   1.00
C23    C     0.12269   0.17952   0.52312   0.00000  Uiso   1.00
H24    H     0.55863   0.15496   0.34985   0.00000  Uiso   1.00
H25    H     0.79941   0.05952   0.31678   0.00000  Uiso   1.00
H26    H     0.46479   0.17816   0.25864   0.00000  Uiso   1.00
H27    H     0.44379   0.23893   0.47523   0.00000  Uiso   1.00
H28    H     0.01566   0.93523   0.27832   0.00000  Uiso   1.00
H29    H     0.31006   0.18541   0.15574   0.00000  Uiso   1.00
H30    H     0.26577   0.31356   0.61245   0.00000  Uiso   1.00
H31    H     0.16797   0.01262   0.33607   0.00000  Uiso   1.00
H32    H     0.38732   0.90937   0.30225   0.00000  Uiso   1.00
H33    H     0.05270   0.02801   0.24410   0.00000  Uiso   1.00
H34    H     0.03170   0.08878   0.46069   0.00000  Uiso   1.00
H35    H     0.68120   0.81336   0.26652   0.00000  Uiso   1.00
H36    H     0.97559   0.06354   0.14394   0.00000  Uiso   1.00
H37    H     0.93130   0.19169   0.60065   0.00000  Uiso   1.00
O38    O     0.99977   0.80894   0.25040   0.00000  Uiso   1.00
O39    O     0.07403   0.13717   0.08959   0.00000  Uiso   1.00
O40    O     0.01594   0.30530   0.68878   0.00000  Uiso   1.00
N41    N     0.90684   0.92072   0.28019   0.00000  Uiso   1.00
N42    N     0.24716   0.15461   0.16558   0.00000  Uiso   1.00
N43    N     0.20573   0.27444   0.59256   0.00000  Uiso   1.00
N44    N     0.72687   0.85515   0.27384   0.00000  Uiso   1.00
N45    N     0.06719   0.08904   0.15923   0.00000  Uiso   1.00
N46    N     0.02576   0.20886   0.58621   0.00000  Uiso   1.00
C47    C     0.81575   0.65477   0.77457   0.00000  Uiso   1.00
C48    C     0.87301   0.67674   0.72359   0.00000  Uiso   1.00
C49    C     0.02391   0.69360   0.71311   0.00000  Uiso   1.00
C50    C     0.05285   0.71242   0.66414   0.00000  Uiso   1.00
C51    C     0.15967   0.74629   0.59065   0.00000  Uiso   1.00
C52    C     0.66096   0.70366   0.81836   0.00000  Uiso   1.00
C53    C     0.63357   0.74314   0.88756   0.00000  Uiso   1.00
C54    C     0.48399   0.78461   0.91836   0.00000  Uiso   1.00
C55    C     0.26155   0.86023   0.99201   0.00000  Uiso   1.00
C56    C     0.76458   0.58627   0.73492   0.00000  Uiso   1.00
C57    C     0.82429   0.52704   0.73397   0.00000  Uiso   1.00
C58    C     0.76192   0.46967   0.69453   0.00000  Uiso   1.00
C59    C     0.70037   0.36302   0.63862   0.00000  Uiso   1.00
C60    C     0.59879   0.65821   0.70621   0.00000  Uiso   1.00
C61    C     0.75516   0.67861   0.68646   0.00000  Uiso   1.00
C62    C     0.78388   0.69740   0.63749   0.00000  Uiso   1.00
C63    C     0.93480   0.71428   0.62694   0.00000  Uiso   1.00
C64    C     0.54312   0.70553   0.78123   0.00000  Uiso   1.00
C65    C     0.39354   0.74694   0.81193   0.00000  Uiso   1.00
C66    C     0.36594   0.78648   0.88116   0.00000  Uiso   1.00
C67    C     0.64674   0.58813   0.69778   0.00000  Uiso   1.00
C68    C     0.58426   0.53084   0.65834   0.00000  Uiso   1.00
C69    C     0.64386   0.47154   0.65733   0.00000  Uiso   1.00
H70    H     0.90748   0.65332   0.80348   0.00000  Uiso   1.00
H71    H     0.11507   0.69216   0.74186   0.00000  Uiso   1.00
H72    H     0.72478   0.74168   0.91628   0.00000  Uiso   1.00
H73    H     0.91547   0.52562   0.76271   0.00000  Uiso   1.00
H74    H     0.29323   0.73606   0.65720   0.00000  Uiso   1.00
H75    H     0.47027   0.84047   0.02497   0.00000  Uiso   1.00
H76    H     0.87238   0.38486   0.70114   0.00000  Uiso   1.00
H77    H     0.50704   0.65966   0.67731   0.00000  Uiso   1.00
H78    H     0.69267   0.69884   0.60876   0.00000  Uiso   1.00
H79    H     0.30238   0.74837   0.78318   0.00000  Uiso   1.00
H80    H     0.49307   0.53230   0.62961   0.00000  Uiso   1.00
H81    H     0.95039   0.74149   0.54917   0.00000  Uiso   1.00
H82    H     0.12743   0.84590   0.91694   0.00000  Uiso   1.00
H83    H     0.52954   0.39029   0.59311   0.00000  Uiso   1.00
O84    O     0.25113   0.76446   0.56039   0.00000  Uiso   1.00
O85    O     0.17143   0.90143   0.04289   0.00000  Uiso   1.00
O86    O     0.69899   0.30368   0.61803   0.00000  Uiso   1.00
N87    N     0.18708   0.73195   0.64117   0.00000  Uiso   1.00
N88    N     0.41767   0.82957   0.98501   0.00000  Uiso   1.00
N89    N     0.79358   0.40362   0.68227   0.00000  Uiso   1.00
N90    N     0.00260   0.73487   0.58304   0.00000  Uiso   1.00
N91    N     0.23319   0.83249   0.92688   0.00000  Uiso   1.00
N92    N     0.60910   0.40654   0.62414   0.00000  Uiso   1.00
C93    C     0.58859   0.22658   0.88045   0.00000  Uiso   1.00
C94    C     0.59539   0.27828   0.95226   0.00000  Uiso   1.00
C95    C     0.73491   0.29183   0.97903   0.00000  Uiso   1.00
C96    C     0.71555   0.34095   0.04579   0.00000  Uiso   1.00
C97    C     0.74945   0.41599   0.15144   0.00000  Uiso   1.00
C98    C     0.47730   0.17933   0.88559   0.00000  Uiso   1.00
C99    C     0.51753   0.10968   0.85629   0.00000  Uiso   1.00
C100   C     0.39875   0.07551   0.86691   0.00000  Uiso   1.00
C101   C     0.24928   0.99692   0.86900   0.00000  Uiso   1.00
C102   C     0.49949   0.26540   0.85214   0.00000  Uiso   1.00
C103   C     0.55835   0.26811   0.79470   0.00000  Uiso   1.00
C104   C     0.45823   0.30639   0.77715   0.00000  Uiso   1.00
C105   C     0.34321   0.36144   0.72731   0.00000  Uiso   1.00
C106   C     0.30611   0.28973   0.95140   0.00000  Uiso   1.00
C107   C     0.44196   0.31258   0.99080   0.00000  Uiso   1.00
C108   C     0.42239   0.36170   0.05753   0.00000  Uiso   1.00
C109   C     0.56185   0.37532   0.08440   0.00000  Uiso   1.00
C110   C     0.32388   0.21363   0.92412   0.00000  Uiso   1.00
C111   C     0.20501   0.17955   0.93478   0.00000  Uiso   1.00
C112   C     0.24505   0.10987   0.90552   0.00000  Uiso   1.00
C113   C     0.34606   0.29970   0.89067   0.00000  Uiso   1.00
C114   C     0.24583   0.33798   0.87320   0.00000  Uiso   1.00
C115   C     0.30453   0.34075   0.81576   0.00000  Uiso   1.00
H116   H     0.70803   0.19987   0.85045   0.00000  Uiso   1.00
H117   H     0.85362   0.26527   0.94920   0.00000  Uiso   1.00
H118   H     0.63627   0.08315   0.82646   0.00000  Uiso   1.00
H119   H     0.67708   0.24156   0.76489   0.00000  Uiso   1.00
H120   H     0.94737   0.35288   0.07567   0.00000  Uiso   1.00
H121   H     0.48905   0.96887   0.81687   0.00000  Uiso   1.00
H122   H     0.57511   0.30291   0.68703   0.00000  Uiso   1.00
H123   H     0.18666   0.31643   0.98141   0.00000  Uiso   1.00
H124   H     0.30364   0.38823   0.08734   0.00000  Uiso   1.00
H125   H     0.08629   0.20611   0.96461   0.00000  Uiso   1.00
H126   H     0.12710   0.36452   0.90304   0.00000  Uiso   1.00
H127   H     0.50099   0.45268   0.18780   0.00000  Uiso   1.00
H128   H     0.04266   0.06867   0.92899   0.00000  Uiso   1.00
H129   H     0.12873   0.40271   0.79915   0.00000  Uiso   1.00
O130   O     0.81053   0.44790   0.19907   0.00000  Uiso   1.00
O131   O     0.20923   0.94409   0.85951   0.00000  Uiso   1.00
O132   O     0.32215   0.38234   0.68917   0.00000  Uiso   1.00
N133   N     0.82626   0.36653   0.08752   0.00000  Uiso   1.00
N134   N     0.39777   0.00750   0.84556   0.00000  Uiso   1.00
N135   N     0.47821   0.31978   0.72416   0.00000  Uiso   1.00
N136   N     0.58607   0.42023   0.14786   0.00000  Uiso   1.00
N137   N     0.15757   0.06120   0.90589   0.00000  Uiso   1.00
N138   N     0.23802   0.37348   0.78450   0.00000  Uiso   1.00
C139   C     0.53087   0.87765   0.65331   0.00000  Uiso   1.00
C140   C     0.45422   0.94924   0.67318   0.00000  Uiso   1.00
C141   C     0.28952   0.97291   0.68635   0.00000  Uiso   1.00
C142   C     0.24378   0.04003   0.70375   0.00000  Uiso   1.00
C143   C     0.10728   0.14483   0.73402   0.00000  Uiso   1.00
C144   C     0.63602   0.88479   0.70478   0.00000  Uiso   1.00
C145   C     0.62418   0.85426   0.74451   0.00000  Uiso   1.00
C146   C     0.73150   0.86712   0.78851   0.00000  Uiso   1.00
C147   C     0.87732   0.87181   0.86779   0.00000  Uiso   1.00
C148   C     0.64741   0.85177   0.58710   0.00000  Uiso   1.00
C149   C     0.64519   0.79347   0.52789   0.00000  Uiso   1.00
C150   C     0.76214   0.77852   0.47281   0.00000  Uiso   1.00
C151   C     0.92564   0.73195   0.36939   0.00000  Uiso   1.00
C152   C     0.74252   0.95477   0.66078   0.00000  Uiso   1.00
C153   C     0.56919   0.99113   0.67723   0.00000  Uiso   1.00
C154   C     0.52369   0.05823   0.69461   0.00000  Uiso   1.00
C155   C     0.35895   0.08199   0.70782   0.00000  Uiso   1.00
C156   C     0.75098   0.92667   0.70883   0.00000  Uiso   1.00
C157   C     0.85835   0.93958   0.75277   0.00000  Uiso   1.00
C158   C     0.84667   0.90908   0.79257   0.00000  Uiso   1.00
C159   C     0.76238   0.89366   0.59115   0.00000  Uiso   1.00
C160   C     0.87936   0.87880   0.53616   0.00000  Uiso   1.00
C161   C     0.87731   0.82048   0.47688   0.00000  Uiso   1.00
H162   H     0.44137   0.84504   0.65015   0.00000  Uiso   1.00
H163   H     0.20059   0.94048   0.68322   0.00000  Uiso   1.00
H164   H     0.53521   0.82184   0.74136   0.00000  Uiso   1.00
H165   H     0.55621   0.76107   0.52477   0.00000  Uiso   1.00
H166   H     0.98434   0.06477   0.72168   0.00000  Uiso   1.00
H167   H     0.68994   0.81459   0.84426   0.00000  Uiso   1.00
H168   H     0.73423   0.68644   0.38755   0.00000  Uiso   1.00
H169   H     0.83203   0.98738   0.66393   0.00000  Uiso   1.00
H170   H     0.61268   0.09063   0.69775   0.00000  Uiso   1.00
H171   H     0.94730   0.97199   0.75590   0.00000  Uiso   1.00
H172   H     0.96830   0.91122   0.53931   0.00000  Uiso   1.00
H173   H     0.31880   0.18664   0.73348   0.00000  Uiso   1.00
H174   H     0.02441   0.93646   0.85606   0.00000  Uiso   1.00
H175   H     0.06870   0.80831   0.39935   0.00000  Uiso   1.00
O176   O     0.00022   0.19106   0.74960   0.00000  Uiso   1.00
O177   O     0.92597   0.86283   0.91041   0.00000  Uiso   1.00
O178   O     0.98406   0.69470   0.31122   0.00000  Uiso   1.00
N179   N     0.09316   0.07928   0.71981   0.00000  Uiso   1.00
N180   N     0.75284   0.84539   0.83442   0.00000  Uiso   1.00
N181   N     0.79427   0.72557   0.40744   0.00000  Uiso   1.00
N182   N     0.27313   0.14485   0.72616   0.00000  Uiso   1.00
N183   N     0.93281   0.91096   0.84077   0.00000  Uiso   1.00
N184   N     0.97424   0.79114   0.41379   0.00000  Uiso   1.00
C185   C     0.18425   0.34523   0.22543   0.00000  Uiso   1.00
C186   C     0.12699   0.32326   0.27641   0.00000  Uiso   1.00
C187   C     0.97609   0.30640   0.28689   0.00000  Uiso   1.00
C188   C     0.94715   0.28758   0.33586   0.00000  Uiso   1.00
C189   C     0.84033   0.25372   0.40935   0.00000  Uiso   1.00
C190   C     0.33904   0.29634   0.18164   0.00000  Uiso   1.00
C191   C     0.36643   0.25686   0.11244   0.00000  Uiso   1.00
C192   C     0.51601   0.21539   0.08164   0.00000  Uiso   1.00
C193   C     0.73844   0.13977   0.00799   0.00000  Uiso   1.00
C194   C     0.23542   0.41373   0.26509   0.00000  Uiso   1.00
C195   C     0.17571   0.47296   0.26603   0.00000  Uiso   1.00
C196   C     0.23808   0.53033   0.30547   0.00000  Uiso   1.00
C197   C     0.29963   0.63698   0.36138   0.00000  Uiso   1.00
C198   C     0.40121   0.34180   0.29379   0.00000  Uiso   1.00
C199   C     0.24483   0.32139   0.31354   0.00000  Uiso   1.00
C200   C     0.21612   0.30260   0.36251   0.00000  Uiso   1.00
C201   C     0.06520   0.28572   0.37306   0.00000  Uiso   1.00
C202   C     0.45688   0.29447   0.21877   0.00000  Uiso   1.00
C203   C     0.60646   0.25306   0.18807   0.00000  Uiso   1.00
C204   C     0.63406   0.21352   0.11884   0.00000  Uiso   1.00
C205   C     0.35325   0.41187   0.30222   0.00000  Uiso   1.00
C206   C     0.41574   0.46916   0.34166   0.00000  Uiso   1.00
C207   C     0.35614   0.52846   0.34267   0.00000  Uiso   1.00
H208   H     0.09252   0.34668   0.19652   0.00000  Uiso   1.00
H209   H     0.88493   0.30784   0.25814   0.00000  Uiso   1.00
H210   H     0.27522   0.25832   0.08372   0.00000  Uiso   1.00
H211   H     0.08453   0.47438   0.23729   0.00000  Uiso   1.00
H212   H     0.70677   0.26394   0.34280   0.00000  Uiso   1.00
H213   H     0.52973   0.15953   0.97503   0.00000  Uiso   1.00
H214   H     0.12762   0.61514   0.29886   0.00000  Uiso   1.00
H215   H     0.49296   0.34034   0.32270   0.00000  Uiso   1.00
H216   H     0.30733   0.30116   0.39124   0.00000  Uiso   1.00
H217   H     0.69762   0.25163   0.21682   0.00000  Uiso   1.00
H218   H     0.50693   0.46770   0.37039   0.00000  Uiso   1.00
H219   H     0.04961   0.25851   0.45083   0.00000  Uiso   1.00
H220   H     0.87257   0.15410   0.08306   0.00000  Uiso   1.00
H221   H     0.47046   0.60971   0.40689   0.00000  Uiso   1.00
O222   O     0.74887   0.23554   0.43961   0.00000  Uiso   1.00
O223   O     0.82857   0.09857   0.95711   0.00000  Uiso   1.00
O224   O     0.30101   0.69632   0.38197   0.00000  Uiso   1.00
N225   N     0.81292   0.26805   0.35883   0.00000  Uiso   1.00
N226   N     0.58233   0.17043   0.01499   0.00000  Uiso   1.00
N227   N     0.20642   0.59638   0.31773   0.00000  Uiso   1.00
N228   N     0.99740   0.26513   0.41696   0.00000  Uiso   1.00
N229   N     0.76681   0.16751   0.07312   0.00000  Uiso   1.00
N230   N     0.39090   0.59346   0.37586   0.00000  Uiso   1.00
C231   C     0.41141   0.77342   0.11955   0.00000  Uiso   1.00
C232   C     0.40461   0.72172   0.04774   0.00000  Uiso   1.00
C233   C     0.26509   0.70817   0.02097   0.00000  Uiso   1.00
C234   C     0.28445   0.65905   0.95421   0.00000  Uiso   1.00
C235   C     0.25055   0.58401   0.84856   0.00000  Uiso   1.00
C236   C     0.52270   0.82067   0.11441   0.00000  Uiso   1.00
C237   C     0.48247   0.89032   0.14371   0.00000  Uiso   1.00
C238   C     0.60125   0.92449   0.13309   0.00000  Uiso   1.00
C239   C     0.75072   0.00308   0.13100   0.00000  Uiso   1.00
C240   C     0.50051   0.73460   0.14787   0.00000  Uiso   1.00
C241   C     0.44165   0.73189   0.20530   0.00000  Uiso   1.00
C242   C     0.54177   0.69361   0.22285   0.00000  Uiso   1.00
C243   C     0.65679   0.63856   0.27269   0.00000  Uiso   1.00
C244   C     0.69389   0.71027   0.04860   0.00000  Uiso   1.00
C245   C     0.55804   0.68742   0.00920   0.00000  Uiso   1.00
C246   C     0.57761   0.63830   0.94247   0.00000  Uiso   1.00
C247   C     0.43815   0.62468   0.91560   0.00000  Uiso   1.00
C248   C     0.67612   0.78637   0.07588   0.00000  Uiso   1.00
C249   C     0.79499   0.82045   0.06522   0.00000  Uiso   1.00
C250   C     0.75495   0.89013   0.09448   0.00000  Uiso   1.00
C251   C     0.65394   0.70030   0.10933   0.00000  Uiso   1.00
C252   C     0.75417   0.66202   0.12680   0.00000  Uiso   1.00
C253   C     0.69547   0.65925   0.18424   0.00000  Uiso   1.00
H254   H     0.29197   0.80013   0.14955   0.00000  Uiso   1.00
H255   H     0.14638   0.73473   0.05081   0.00000  Uiso   1.00
H256   H     0.36373   0.91685   0.17354   0.00000  Uiso   1.00
H257   H     0.32292   0.75844   0.23511   0.00000  Uiso   1.00
H258   H     0.05263   0.64712   0.92433   0.00000  Uiso   1.00
H259   H     0.51095   0.03113   0.18313   0.00000  Uiso   1.00
H260   H     0.42489   0.69709   0.31297   0.00000  Uiso   1.00
H261   H     0.81334   0.68357   0.01859   0.00000  Uiso   1.00
H262   H     0.69636   0.61177   0.91266   0.00000  Uiso   1.00
H263   H     0.91371   0.79389   0.03539   0.00000  Uiso   1.00
H264   H     0.87289   0.63548   0.09696   0.00000  Uiso   1.00
H265   H     0.49901   0.54732   0.81220   0.00000  Uiso   1.00
H266   H     0.95734   0.93133   0.07101   0.00000  Uiso   1.00
H267   H     0.87127   0.59729   0.20085   0.00000  Uiso   1.00
O268   O     0.18946   0.55210   0.80093   0.00000  Uiso   1.00
O269   O     0.79077   0.05591   0.14049   0.00000  Uiso   1.00
O270   O     0.67785   0.61766   0.31083   0.00000  Uiso   1.00
N271   N     0.17374   0.63347   0.91248   0.00000  Uiso   1.00
N272   N     0.60223   0.99250   0.15444   0.00000  Uiso   1.00
N273   N     0.52179   0.68022   0.27584   0.00000  Uiso   1.00
N274   N     0.41393   0.57977   0.85214   0.00000  Uiso   1.00
N275   N     0.84243   0.93880   0.09411   0.00000  Uiso   1.00
N276   N     0.76198   0.62652   0.21550   0.00000  Uiso   1.00
