data_job_06079
_audit_creation_date              2018-12-19
_audit_creation_method            'Materials Studio'
_symmetry_space_group_name_H-M    'P1'
_symmetry_Int_Tables_number       1
_symmetry_cell_setting            triclinic
loop_
_symmetry_equiv_pos_as_xyz
  x,y,z
_cell_length_a                    7.2045
_cell_length_b                    35.9421
_cell_length_c                    35.9442
_cell_angle_alpha                 60.4360
_cell_angle_beta                  93.8827
_cell_angle_gamma                 86.2728
loop_
_atom_site_label
_atom_site_type_symbol
_atom_site_fract_x
_atom_site_fract_y
_atom_site_fract_z
_atom_site_U_iso_or_equiv
_atom_site_adp_type
_atom_site_occupancy
C1     C     0.24424   0.57251   0.23181   0.00000  Uiso   1.00
C2     C     0.33663   0.59475   0.25377   0.00000  Uiso   1.00
C3     C     0.24369   0.61788   0.26981   0.00000  Uiso   1.00
C4     C     0.35346   0.63578   0.28874   0.00000  Uiso   1.00
C5     C     0.46715   0.67110   0.32240   0.00000  Uiso   1.00
C6     C     0.31567   0.59094   0.18781   0.00000  Uiso   1.00
C7     C     0.20510   0.61087   0.14841   0.00000  Uiso   1.00
C8     C     0.29722   0.62555   0.11182   0.00000  Uiso   1.00
C9     C     0.37836   0.65494   0.04309   0.00000  Uiso   1.00
C10    C     0.32728   0.52543   0.25733   0.00000  Uiso   1.00
C11    C     0.22646   0.49028   0.27637   0.00000  Uiso   1.00
C12    C     0.32836   0.44980   0.29830   0.00000  Uiso   1.00
C13    C     0.42752   0.37747   0.33750   0.00000  Uiso   1.00
C14    C     0.60445   0.56314   0.23690   0.00000  Uiso   1.00
C15    C     0.53229   0.58966   0.25653   0.00000  Uiso   1.00
C16    C     0.64222   0.60752   0.27545   0.00000  Uiso   1.00
C17    C     0.54946   0.63068   0.29152   0.00000  Uiso   1.00
C18    C     0.51131   0.58585   0.19058   0.00000  Uiso   1.00
C19    C     0.60363   0.60051   0.15404   0.00000  Uiso   1.00
C20    C     0.49323   0.62046   0.11459   0.00000  Uiso   1.00
C21    C     0.52293   0.52034   0.26010   0.00000  Uiso   1.00
C22    C     0.62500   0.47991   0.28201   0.00000  Uiso   1.00
C23    C     0.52436   0.44471   0.30107   0.00000  Uiso   1.00
H24    H     0.09192   0.57647   0.22965   0.00000  Uiso   1.00
H25    H     0.09228   0.62182   0.26766   0.00000  Uiso   1.00
H26    H     0.05369   0.61480   0.14627   0.00000  Uiso   1.00
H27    H     0.07506   0.49423   0.27422   0.00000  Uiso   1.00
H28    H     0.17895   0.66986   0.31100   0.00000  Uiso   1.00
H29    H     0.09759   0.65505   0.05506   0.00000  Uiso   1.00
H30    H     0.14265   0.40080   0.32485   0.00000  Uiso   1.00
H31    H     0.75678   0.55918   0.23906   0.00000  Uiso   1.00
H32    H     0.79363   0.60358   0.27758   0.00000  Uiso   1.00
H33    H     0.75503   0.59656   0.15620   0.00000  Uiso   1.00
H34    H     0.77640   0.47599   0.28414   0.00000  Uiso   1.00
H35    H     0.74819   0.65506   0.31906   0.00000  Uiso   1.00
H36    H     0.66683   0.64025   0.06311   0.00000  Uiso   1.00
H37    H     0.71188   0.38600   0.33291   0.00000  Uiso   1.00
O38    O     0.47581   0.69199   0.34019   0.00000  Uiso   1.00
O39    O     0.36906   0.67255   0.00441   0.00000  Uiso   1.00
O40    O     0.42817   0.33898   0.35837   0.00000  Uiso   1.00
N41    N     0.30787   0.66027   0.30762   0.00000  Uiso   1.00
N42    N     0.23180   0.64644   0.06833   0.00000  Uiso   1.00
N43    N     0.27392   0.40873   0.32055   0.00000  Uiso   1.00
N44    N     0.61417   0.65231   0.31195   0.00000  Uiso   1.00
N45    N     0.53810   0.63847   0.07266   0.00000  Uiso   1.00
N46    N     0.58022   0.40077   0.32488   0.00000  Uiso   1.00
C47    C     0.81358   0.19572   0.57244   0.00000  Uiso   1.00
C48    C     0.92789   0.15156   0.59466   0.00000  Uiso   1.00
C49    C     0.85784   0.11235   0.61782   0.00000  Uiso   1.00
C50    C     0.98523   0.07557   0.63569   0.00000  Uiso   1.00
C51    C     0.13376   0.00664   0.67099   0.00000  Uiso   1.00
C52    C     0.90359   0.22131   0.59085   0.00000  Uiso   1.00
C53    C     0.81310   0.24075   0.61080   0.00000  Uiso   1.00
C54    C     0.92004   0.26269   0.62547   0.00000  Uiso   1.00
C55    C     0.03081   0.30208   0.65483   0.00000  Uiso   1.00
C56    C     0.84966   0.21730   0.52534   0.00000  Uiso   1.00
C57    C     0.71382   0.23338   0.49021   0.00000  Uiso   1.00
C58    C     0.77536   0.25195   0.44971   0.00000  Uiso   1.00
C59    C     0.80239   0.28511   0.37736   0.00000  Uiso   1.00
C60    C     0.16438   0.20013   0.56300   0.00000  Uiso   1.00
C61    C     0.11843   0.15396   0.58953   0.00000  Uiso   1.00
C62    C     0.24597   0.11722   0.60738   0.00000  Uiso   1.00
C63    C     0.17612   0.07796   0.63056   0.00000  Uiso   1.00
C64    C     0.09413   0.22371   0.58573   0.00000  Uiso   1.00
C65    C     0.20122   0.24562   0.60036   0.00000  Uiso   1.00
C66    C     0.11093   0.26509   0.62033   0.00000  Uiso   1.00
C67    C     0.04020   0.21969   0.52021   0.00000  Uiso   1.00
C68    C     0.10195   0.23825   0.47977   0.00000  Uiso   1.00
C69    C     0.96624   0.25435   0.44458   0.00000  Uiso   1.00
H70    H     0.66524   0.19386   0.57643   0.00000  Uiso   1.00
H71    H     0.71038   0.11051   0.62178   0.00000  Uiso   1.00
H72    H     0.66564   0.23890   0.61476   0.00000  Uiso   1.00
H73    H     0.56639   0.23152   0.49418   0.00000  Uiso   1.00
H74    H     0.84446   0.01917   0.66981   0.00000  Uiso   1.00
H75    H     0.75013   0.28988   0.65500   0.00000  Uiso   1.00
H76    H     0.54082   0.27433   0.40074   0.00000  Uiso   1.00
H77    H     0.31273   0.20199   0.55901   0.00000  Uiso   1.00
H78    H     0.39341   0.11909   0.60341   0.00000  Uiso   1.00
H79    H     0.34867   0.24747   0.59639   0.00000  Uiso   1.00
H80    H     0.24942   0.24010   0.47581   0.00000  Uiso   1.00
H81    H     0.39884   0.02612   0.65490   0.00000  Uiso   1.00
H82    H     0.30450   0.29684   0.64009   0.00000  Uiso   1.00
H83    H     0.09520   0.28129   0.38583   0.00000  Uiso   1.00
O84    O     0.16305   0.96796   0.69188   0.00000  Uiso   1.00
O85    O     0.03927   0.32314   0.67245   0.00000  Uiso   1.00
O86    O     0.76467   0.30273   0.33887   0.00000  Uiso   1.00
N87    N     0.96386   0.03218   0.66020   0.00000  Uiso   1.00
N88    N     0.87566   0.28528   0.64636   0.00000  Uiso   1.00
N89    N     0.67998   0.27075   0.40865   0.00000  Uiso   1.00
N90    N     0.26216   0.03592   0.65218   0.00000  Uiso   1.00
N91    N     0.17397   0.28902   0.63834   0.00000  Uiso   1.00
N92    N     0.97828   0.27449   0.40062   0.00000  Uiso   1.00
C93    C     0.01199   0.23187   0.19575   0.00000  Uiso   1.00
C94    C     0.08227   0.25384   0.15158   0.00000  Uiso   1.00
C95    C     0.97313   0.26986   0.11238   0.00000  Uiso   1.00
C96    C     0.06384   0.28881   0.07557   0.00000  Uiso   1.00
C97    C     0.14364   0.32248   0.00661   0.00000  Uiso   1.00
C98    C     0.12728   0.18789   0.22133   0.00000  Uiso   1.00
C99    C     0.05598   0.14847   0.24079   0.00000  Uiso   1.00
C100   C     0.18459   0.11191   0.26271   0.00000  Uiso   1.00
C101   C     0.33427   0.04321   0.30208   0.00000  Uiso   1.00
C102   C     0.06982   0.25740   0.21733   0.00000  Uiso   1.00
C103   C     0.95021   0.27641   0.23343   0.00000  Uiso   1.00
C104   C     0.03044   0.29835   0.25199   0.00000  Uiso   1.00
C105   C     0.09089   0.33756   0.28514   0.00000  Uiso   1.00
C106   C     0.36717   0.23703   0.20010   0.00000  Uiso   1.00
C107   C     0.27519   0.25664   0.15394   0.00000  Uiso   1.00
C108   C     0.36609   0.27557   0.11718   0.00000  Uiso   1.00
C109   C     0.25711   0.29162   0.07793   0.00000  Uiso   1.00
C110   C     0.32020   0.19070   0.22369   0.00000  Uiso   1.00
C111   C     0.44894   0.15418   0.24559   0.00000  Uiso   1.00
C112   C     0.37786   0.11472   0.26507   0.00000  Uiso   1.00
C113   C     0.26274   0.26020   0.21969   0.00000  Uiso   1.00
C114   C     0.34317   0.28212   0.23823   0.00000  Uiso   1.00
C115   C     0.22371   0.30116   0.25435   0.00000  Uiso   1.00
H116   H     0.86180   0.22968   0.19392   0.00000  Uiso   1.00
H117   H     0.82384   0.26768   0.11057   0.00000  Uiso   1.00
H118   H     0.90668   0.14632   0.23897   0.00000  Uiso   1.00
H119   H     0.80093   0.27423   0.23160   0.00000  Uiso   1.00
H120   H     0.86685   0.31104   0.01919   0.00000  Uiso   1.00
H121   H     0.04152   0.05513   0.28994   0.00000  Uiso   1.00
H122   H     0.81851   0.32486   0.27441   0.00000  Uiso   1.00
H123   H     0.51737   0.23921   0.20193   0.00000  Uiso   1.00
H124   H     0.51539   0.27774   0.11901   0.00000  Uiso   1.00
H125   H     0.59822   0.15637   0.24741   0.00000  Uiso   1.00
H126   H     0.49247   0.28428   0.24005   0.00000  Uiso   1.00
H127   H     0.42813   0.31919   0.02605   0.00000  Uiso   1.00
H128   H     0.60280   0.06328   0.29680   0.00000  Uiso   1.00
H129   H     0.37980   0.33302   0.28127   0.00000  Uiso   1.00
O130   O     0.13437   0.34028   0.96793   0.00000  Uiso   1.00
O131   O     0.36352   0.00453   0.32315   0.00000  Uiso   1.00
O132   O     0.07094   0.35842   0.30277   0.00000  Uiso   1.00
N133   N     0.99921   0.30768   0.03218   0.00000  Uiso   1.00
N134   N     0.16252   0.06842   0.28531   0.00000  Uiso   1.00
N135   N     0.95403   0.32059   0.27080   0.00000  Uiso   1.00
N136   N     0.30123   0.31207   0.03587   0.00000  Uiso   1.00
N137   N     0.46454   0.07281   0.28900   0.00000  Uiso   1.00
N138   N     0.25605   0.32497   0.27449   0.00000  Uiso   1.00
C139   C     0.75576   0.42749   0.76819   0.00000  Uiso   1.00
C140   C     0.66337   0.40525   0.74623   0.00000  Uiso   1.00
C141   C     0.75631   0.38212   0.73019   0.00000  Uiso   1.00
C142   C     0.64654   0.36422   0.71126   0.00000  Uiso   1.00
C143   C     0.53285   0.32891   0.67760   0.00000  Uiso   1.00
C144   C     0.68433   0.40906   0.81219   0.00000  Uiso   1.00
C145   C     0.79490   0.38913   0.85159   0.00000  Uiso   1.00
C146   C     0.70278   0.37445   0.88818   0.00000  Uiso   1.00
C147   C     0.62164   0.34506   0.95691   0.00000  Uiso   1.00
C148   C     0.67272   0.47457   0.74267   0.00000  Uiso   1.00
C149   C     0.77354   0.50972   0.72363   0.00000  Uiso   1.00
C150   C     0.67164   0.55020   0.70170   0.00000  Uiso   1.00
C151   C     0.57248   0.62253   0.66250   0.00000  Uiso   1.00
C152   C     0.39555   0.43686   0.76310   0.00000  Uiso   1.00
C153   C     0.46771   0.41034   0.74347   0.00000  Uiso   1.00
C154   C     0.35778   0.39248   0.72455   0.00000  Uiso   1.00
C155   C     0.45054   0.36932   0.70848   0.00000  Uiso   1.00
C156   C     0.48869   0.41415   0.80942   0.00000  Uiso   1.00
C157   C     0.39637   0.39949   0.84596   0.00000  Uiso   1.00
C158   C     0.50677   0.37954   0.88541   0.00000  Uiso   1.00
C159   C     0.47707   0.47966   0.73990   0.00000  Uiso   1.00
C160   C     0.37500   0.52009   0.71799   0.00000  Uiso   1.00
C161   C     0.47564   0.55529   0.69893   0.00000  Uiso   1.00
H162   H     0.90808   0.42353   0.77035   0.00000  Uiso   1.00
H163   H     0.90772   0.37818   0.73234   0.00000  Uiso   1.00
H164   H     0.94631   0.38520   0.85373   0.00000  Uiso   1.00
H165   H     0.92494   0.50577   0.72578   0.00000  Uiso   1.00
H166   H     0.82105   0.33014   0.68900   0.00000  Uiso   1.00
H167   H     0.90241   0.34495   0.94494   0.00000  Uiso   1.00
H168   H     0.85735   0.59920   0.67515   0.00000  Uiso   1.00
H169   H     0.24322   0.44082   0.76094   0.00000  Uiso   1.00
H170   H     0.20637   0.39642   0.72242   0.00000  Uiso   1.00
H171   H     0.24497   0.40344   0.84380   0.00000  Uiso   1.00
H172   H     0.22360   0.52401   0.71586   0.00000  Uiso   1.00
H173   H     0.25181   0.34494   0.68094   0.00000  Uiso   1.00
H174   H     0.33317   0.35975   0.93689   0.00000  Uiso   1.00
H175   H     0.28812   0.61400   0.66709   0.00000  Uiso   1.00
O176   O     0.52419   0.30801   0.65981   0.00000  Uiso   1.00
O177   O     0.63094   0.32745   0.99559   0.00000  Uiso   1.00
O178   O     0.57183   0.66102   0.64163   0.00000  Uiso   1.00
N179   N     0.69213   0.33973   0.69238   0.00000  Uiso   1.00
N180   N     0.76820   0.35356   0.93167   0.00000  Uiso   1.00
N181   N     0.72608   0.59127   0.67945   0.00000  Uiso   1.00
N182   N     0.38583   0.34769   0.68805   0.00000  Uiso   1.00
N183   N     0.46190   0.36153   0.92734   0.00000  Uiso   1.00
N184   N     0.41978   0.59923   0.67512   0.00000  Uiso   1.00
C185   C     0.18642   0.80428   0.42756   0.00000  Uiso   1.00
C186   C     0.07211   0.84844   0.40534   0.00000  Uiso   1.00
C187   C     0.14216   0.88765   0.38218   0.00000  Uiso   1.00
C188   C     0.01477   0.92443   0.36431   0.00000  Uiso   1.00
C189   C     0.86624   0.99336   0.32901   0.00000  Uiso   1.00
C190   C     0.09641   0.77869   0.40915   0.00000  Uiso   1.00
C191   C     0.18690   0.75925   0.38920   0.00000  Uiso   1.00
C192   C     0.07996   0.73731   0.37453   0.00000  Uiso   1.00
C193   C     0.96919   0.69792   0.34517   0.00000  Uiso   1.00
C194   C     0.15034   0.78270   0.47466   0.00000  Uiso   1.00
C195   C     0.28618   0.76662   0.50979   0.00000  Uiso   1.00
C196   C     0.22464   0.74805   0.55029   0.00000  Uiso   1.00
C197   C     0.19761   0.71489   0.62264   0.00000  Uiso   1.00
C198   C     0.83562   0.79987   0.43700   0.00000  Uiso   1.00
C199   C     0.88157   0.84604   0.41047   0.00000  Uiso   1.00
C200   C     0.75404   0.88278   0.39262   0.00000  Uiso   1.00
C201   C     0.82388   0.92204   0.36944   0.00000  Uiso   1.00
C202   C     0.90587   0.77629   0.41427   0.00000  Uiso   1.00
C203   C     0.79878   0.75438   0.39964   0.00000  Uiso   1.00
C204   C     0.88907   0.73491   0.37967   0.00000  Uiso   1.00
C205   C     0.95980   0.78031   0.47979   0.00000  Uiso   1.00
C206   C     0.89805   0.76175   0.52023   0.00000  Uiso   1.00
C207   C     0.03376   0.74565   0.55542   0.00000  Uiso   1.00
H208   H     0.33476   0.80614   0.42357   0.00000  Uiso   1.00
H209   H     0.28963   0.88949   0.37822   0.00000  Uiso   1.00
H210   H     0.33436   0.76110   0.38524   0.00000  Uiso   1.00
H211   H     0.43361   0.76848   0.50582   0.00000  Uiso   1.00
H212   H     0.15554   0.98083   0.33019   0.00000  Uiso   1.00
H213   H     0.24988   0.71012   0.34500   0.00000  Uiso   1.00
H214   H     0.45918   0.72567   0.59926   0.00000  Uiso   1.00
H215   H     0.68727   0.79801   0.44099   0.00000  Uiso   1.00
H216   H     0.60659   0.88091   0.39659   0.00000  Uiso   1.00
H217   H     0.65133   0.75253   0.40361   0.00000  Uiso   1.00
H218   H     0.75058   0.75990   0.52419   0.00000  Uiso   1.00
H219   H     0.60116   0.97388   0.34510   0.00000  Uiso   1.00
H220   H     0.69551   0.70316   0.35991   0.00000  Uiso   1.00
H221   H     0.90480   0.71871   0.61417   0.00000  Uiso   1.00
O222   O     0.83695   0.03204   0.30812   0.00000  Uiso   1.00
O223   O     0.96073   0.67686   0.32755   0.00000  Uiso   1.00
O224   O     0.23533   0.69727   0.66113   0.00000  Uiso   1.00
N225   N     0.03614   0.96782   0.33980   0.00000  Uiso   1.00
N226   N     0.12434   0.71472   0.35364   0.00000  Uiso   1.00
N227   N     0.32002   0.72925   0.59135   0.00000  Uiso   1.00
N228   N     0.73784   0.96408   0.34782   0.00000  Uiso   1.00
N229   N     0.82603   0.71098   0.36166   0.00000  Uiso   1.00
N230   N     0.02172   0.72551   0.59938   0.00000  Uiso   1.00
C231   C     0.98801   0.76813   0.80425   0.00000  Uiso   1.00
C232   C     0.91773   0.74616   0.84842   0.00000  Uiso   1.00
C233   C     0.02687   0.73014   0.88762   0.00000  Uiso   1.00
C234   C     0.93616   0.71119   0.92443   0.00000  Uiso   1.00
C235   C     0.85636   0.67752   0.99339   0.00000  Uiso   1.00
C236   C     0.87272   0.81211   0.77867   0.00000  Uiso   1.00
C237   C     0.94402   0.85153   0.75921   0.00000  Uiso   1.00
C238   C     0.81541   0.88809   0.73729   0.00000  Uiso   1.00
C239   C     0.66573   0.95679   0.69792   0.00000  Uiso   1.00
C240   C     0.93018   0.74260   0.78267   0.00000  Uiso   1.00
C241   C     0.04979   0.72359   0.76657   0.00000  Uiso   1.00
C242   C     0.96956   0.70165   0.74801   0.00000  Uiso   1.00
C243   C     0.90911   0.66244   0.71486   0.00000  Uiso   1.00
C244   C     0.63283   0.76298   0.79990   0.00000  Uiso   1.00
C245   C     0.72481   0.74336   0.84606   0.00000  Uiso   1.00
C246   C     0.63391   0.72443   0.88282   0.00000  Uiso   1.00
C247   C     0.74289   0.70838   0.92207   0.00000  Uiso   1.00
C248   C     0.67980   0.80930   0.77631   0.00000  Uiso   1.00
C249   C     0.55106   0.84582   0.75441   0.00000  Uiso   1.00
C250   C     0.62214   0.88528   0.73493   0.00000  Uiso   1.00
C251   C     0.73726   0.73980   0.78031   0.00000  Uiso   1.00
C252   C     0.65683   0.71788   0.76177   0.00000  Uiso   1.00
C253   C     0.77629   0.69884   0.74565   0.00000  Uiso   1.00
H254   H     0.13820   0.77032   0.80608   0.00000  Uiso   1.00
H255   H     0.17616   0.73232   0.88943   0.00000  Uiso   1.00
H256   H     0.09332   0.85368   0.76104   0.00000  Uiso   1.00
H257   H     0.19907   0.72577   0.76840   0.00000  Uiso   1.00
H258   H     0.13315   0.68896   0.98081   0.00000  Uiso   1.00
H259   H     0.95848   0.94487   0.71006   0.00000  Uiso   1.00
H260   H     0.18149   0.67514   0.72559   0.00000  Uiso   1.00
H261   H     0.48263   0.76079   0.79807   0.00000  Uiso   1.00
H262   H     0.48461   0.72226   0.88099   0.00000  Uiso   1.00
H263   H     0.40178   0.84364   0.75259   0.00000  Uiso   1.00
H264   H     0.50753   0.71572   0.75995   0.00000  Uiso   1.00
H265   H     0.57187   0.68081   0.97396   0.00000  Uiso   1.00
H266   H     0.39720   0.93672   0.70320   0.00000  Uiso   1.00
H267   H     0.62020   0.66698   0.71873   0.00000  Uiso   1.00
O268   O     0.86563   0.65972   0.03207   0.00000  Uiso   1.00
O269   O     0.63648   0.99547   0.67685   0.00000  Uiso   1.00
O270   O     0.92906   0.64158   0.69723   0.00000  Uiso   1.00
N271   N     0.00079   0.69232   0.96782   0.00000  Uiso   1.00
N272   N     0.83748   0.93158   0.71469   0.00000  Uiso   1.00
N273   N     0.04597   0.67941   0.72920   0.00000  Uiso   1.00
N274   N     0.69877   0.68793   0.96413   0.00000  Uiso   1.00
N275   N     0.53546   0.92719   0.71100   0.00000  Uiso   1.00
N276   N     0.74395   0.67503   0.72551   0.00000  Uiso   1.00
