data_job_02597
_audit_creation_date              2018-12-19
_audit_creation_method            'Materials Studio'
_symmetry_space_group_name_H-M    'P1'
_symmetry_Int_Tables_number       1
_symmetry_cell_setting            triclinic
loop_
_symmetry_equiv_pos_as_xyz
  x,y,z
_cell_length_a                    12.3071
_cell_length_b                    26.8790
_cell_length_c                    14.8503
_cell_angle_alpha                 90.0000
_cell_angle_beta                  90.0000
_cell_angle_gamma                 90.0000
loop_
_atom_site_label
_atom_site_type_symbol
_atom_site_fract_x
_atom_site_fract_y
_atom_site_fract_z
_atom_site_U_iso_or_equiv
_atom_site_adp_type
_atom_site_occupancy
C1     C     0.92846   0.34725   0.83842   0.00000  Uiso   1.00
C2     C     0.97254   0.30043   0.88345   0.00000  Uiso   1.00
C3     C     0.94579   0.25189   0.86057   0.00000  Uiso   1.00
C4     C     0.99489   0.21419   0.90985   0.00000  Uiso   1.00
C5     C     0.05225   0.13989   0.96915   0.00000  Uiso   1.00
C6     C     0.02750   0.37634   0.80625   0.00000  Uiso   1.00
C7     C     0.04694   0.39164   0.71846   0.00000  Uiso   1.00
C8     C     0.14229   0.41785   0.70276   0.00000  Uiso   1.00
C9     C     0.28493   0.46144   0.64221   0.00000  Uiso   1.00
C10    C     0.87769   0.37824   0.91343   0.00000  Uiso   1.00
C11    C     0.77118   0.39515   0.91574   0.00000  Uiso   1.00
C12    C     0.74041   0.42298   0.99028   0.00000  Uiso   1.00
C13    C     0.65045   0.46952   0.09614   0.00000  Uiso   1.00
C14    C     0.06322   0.36661   0.96666   0.00000  Uiso   1.00
C15    C     0.04574   0.31094   0.95310   0.00000  Uiso   1.00
C16    C     0.09489   0.27331   0.00244   0.00000  Uiso   1.00
C17    C     0.06821   0.22472   0.97963   0.00000  Uiso   1.00
C18    C     0.10069   0.38686   0.87590   0.00000  Uiso   1.00
C19    C     0.19603   0.41305   0.86033   0.00000  Uiso   1.00
C20    C     0.21562   0.42838   0.77254   0.00000  Uiso   1.00
C21    C     0.95088   0.38876   0.98308   0.00000  Uiso   1.00
C22    C     0.92027   0.41656   0.05762   0.00000  Uiso   1.00
C23    C     0.81374   0.43351   0.06006   0.00000  Uiso   1.00
H24    H     0.87148   0.33906   0.78419   0.00000  Uiso   1.00
H25    H     0.88915   0.24377   0.80665   0.00000  Uiso   1.00
H26    H     0.99028   0.38350   0.66457   0.00000  Uiso   1.00
H27    H     0.71456   0.38701   0.86183   0.00000  Uiso   1.00
H28    H     0.94106   0.14275   0.86225   0.00000  Uiso   1.00
H29    H     0.15427   0.43740   0.56267   0.00000  Uiso   1.00
H30    H     0.57286   0.44480   0.97863   0.00000  Uiso   1.00
H31    H     0.12020   0.37479   0.02088   0.00000  Uiso   1.00
H32    H     0.15152   0.28146   0.05634   0.00000  Uiso   1.00
H33    H     0.25265   0.42119   0.91425   0.00000  Uiso   1.00
H34    H     0.97694   0.42469   0.11151   0.00000  Uiso   1.00
H35    H     0.15401   0.17334   0.06490   0.00000  Uiso   1.00
H36    H     0.36722   0.46799   0.76532   0.00000  Uiso   1.00
H37    H     0.78582   0.47538   0.18128   0.00000  Uiso   1.00
O38    O     0.06368   0.09600   0.98261   0.00000  Uiso   1.00
O39    O     0.34339   0.48257   0.58957   0.00000  Uiso   1.00
O40    O     0.58060   0.49228   0.13530   0.00000  Uiso   1.00
N41    N     0.98686   0.16276   0.90509   0.00000  Uiso   1.00
N42    N     0.18621   0.43823   0.62500   0.00000  Uiso   1.00
N43    N     0.64265   0.44516   0.01387   0.00000  Uiso   1.00
N44    N     0.10145   0.17922   0.01414   0.00000  Uiso   1.00
N45    N     0.30079   0.45469   0.73404   0.00000  Uiso   1.00
N46    N     0.75724   0.46162   0.12292   0.00000  Uiso   1.00
C47    C     0.57154   0.15275   0.83842   0.00000  Uiso   1.00
C48    C     0.52746   0.19957   0.88345   0.00000  Uiso   1.00
C49    C     0.55421   0.24811   0.86057   0.00000  Uiso   1.00
C50    C     0.50511   0.28581   0.90985   0.00000  Uiso   1.00
C51    C     0.44775   0.36011   0.96915   0.00000  Uiso   1.00
C52    C     0.47250   0.12366   0.80625   0.00000  Uiso   1.00
C53    C     0.45306   0.10836   0.71846   0.00000  Uiso   1.00
C54    C     0.35771   0.08215   0.70276   0.00000  Uiso   1.00
C55    C     0.21507   0.03856   0.64221   0.00000  Uiso   1.00
C56    C     0.62231   0.12176   0.91343   0.00000  Uiso   1.00
C57    C     0.72882   0.10485   0.91574   0.00000  Uiso   1.00
C58    C     0.75959   0.07702   0.99028   0.00000  Uiso   1.00
C59    C     0.84955   0.03048   0.09614   0.00000  Uiso   1.00
C60    C     0.43678   0.13339   0.96666   0.00000  Uiso   1.00
C61    C     0.45426   0.18906   0.95310   0.00000  Uiso   1.00
C62    C     0.40511   0.22669   0.00244   0.00000  Uiso   1.00
C63    C     0.43179   0.27528   0.97963   0.00000  Uiso   1.00
C64    C     0.39931   0.11314   0.87590   0.00000  Uiso   1.00
C65    C     0.30397   0.08695   0.86033   0.00000  Uiso   1.00
C66    C     0.28438   0.07162   0.77254   0.00000  Uiso   1.00
C67    C     0.54912   0.11124   0.98308   0.00000  Uiso   1.00
C68    C     0.57973   0.08344   0.05762   0.00000  Uiso   1.00
C69    C     0.68626   0.06649   0.06006   0.00000  Uiso   1.00
H70    H     0.62852   0.16094   0.78419   0.00000  Uiso   1.00
H71    H     0.61085   0.25623   0.80665   0.00000  Uiso   1.00
H72    H     0.50972   0.11650   0.66457   0.00000  Uiso   1.00
H73    H     0.78544   0.11299   0.86183   0.00000  Uiso   1.00
H74    H     0.55894   0.35725   0.86225   0.00000  Uiso   1.00
H75    H     0.34573   0.06260   0.56267   0.00000  Uiso   1.00
H76    H     0.92714   0.05520   0.97863   0.00000  Uiso   1.00
H77    H     0.37980   0.12521   0.02088   0.00000  Uiso   1.00
H78    H     0.34848   0.21854   0.05634   0.00000  Uiso   1.00
H79    H     0.24735   0.07881   0.91425   0.00000  Uiso   1.00
H80    H     0.52306   0.07531   0.11151   0.00000  Uiso   1.00
H81    H     0.34599   0.32666   0.06490   0.00000  Uiso   1.00
H82    H     0.13278   0.03201   0.76532   0.00000  Uiso   1.00
H83    H     0.71418   0.02462   0.18128   0.00000  Uiso   1.00
O84    O     0.43632   0.40400   0.98261   0.00000  Uiso   1.00
O85    O     0.15661   0.01743   0.58957   0.00000  Uiso   1.00
O86    O     0.91940   0.00772   0.13530   0.00000  Uiso   1.00
N87    N     0.51314   0.33724   0.90509   0.00000  Uiso   1.00
N88    N     0.31379   0.06177   0.62500   0.00000  Uiso   1.00
N89    N     0.85735   0.05484   0.01387   0.00000  Uiso   1.00
N90    N     0.39855   0.32078   0.01414   0.00000  Uiso   1.00
N91    N     0.19921   0.04531   0.73404   0.00000  Uiso   1.00
N92    N     0.74276   0.03838   0.12292   0.00000  Uiso   1.00
C93    C     0.07154   0.84725   0.66158   0.00000  Uiso   1.00
C94    C     0.02746   0.80043   0.61655   0.00000  Uiso   1.00
C95    C     0.05421   0.75189   0.63943   0.00000  Uiso   1.00
C96    C     0.00511   0.71419   0.59015   0.00000  Uiso   1.00
C97    C     0.94775   0.63989   0.53085   0.00000  Uiso   1.00
C98    C     0.97250   0.87634   0.69375   0.00000  Uiso   1.00
C99    C     0.95306   0.89164   0.78154   0.00000  Uiso   1.00
C100   C     0.85771   0.91785   0.79724   0.00000  Uiso   1.00
C101   C     0.71507   0.96144   0.85779   0.00000  Uiso   1.00
C102   C     0.12231   0.87824   0.58657   0.00000  Uiso   1.00
C103   C     0.22882   0.89515   0.58426   0.00000  Uiso   1.00
C104   C     0.25959   0.92298   0.50972   0.00000  Uiso   1.00
C105   C     0.34955   0.96952   0.40386   0.00000  Uiso   1.00
C106   C     0.93678   0.86661   0.53334   0.00000  Uiso   1.00
C107   C     0.95426   0.81094   0.54690   0.00000  Uiso   1.00
C108   C     0.90511   0.77331   0.49756   0.00000  Uiso   1.00
C109   C     0.93179   0.72472   0.52037   0.00000  Uiso   1.00
C110   C     0.89931   0.88686   0.62410   0.00000  Uiso   1.00
C111   C     0.80397   0.91305   0.63967   0.00000  Uiso   1.00
C112   C     0.78438   0.92838   0.72746   0.00000  Uiso   1.00
C113   C     0.04912   0.88876   0.51692   0.00000  Uiso   1.00
C114   C     0.07973   0.91656   0.44238   0.00000  Uiso   1.00
C115   C     0.18626   0.93351   0.43994   0.00000  Uiso   1.00
H116   H     0.12852   0.83906   0.71581   0.00000  Uiso   1.00
H117   H     0.11085   0.74377   0.69335   0.00000  Uiso   1.00
H118   H     0.00972   0.88350   0.83543   0.00000  Uiso   1.00
H119   H     0.28544   0.88701   0.63817   0.00000  Uiso   1.00
H120   H     0.05894   0.64275   0.63775   0.00000  Uiso   1.00
H121   H     0.84573   0.93740   0.93733   0.00000  Uiso   1.00
H122   H     0.42714   0.94480   0.52137   0.00000  Uiso   1.00
H123   H     0.87980   0.87479   0.47912   0.00000  Uiso   1.00
H124   H     0.84848   0.78146   0.44366   0.00000  Uiso   1.00
H125   H     0.74735   0.92119   0.58575   0.00000  Uiso   1.00
H126   H     0.02306   0.92469   0.38849   0.00000  Uiso   1.00
H127   H     0.84599   0.67334   0.43510   0.00000  Uiso   1.00
H128   H     0.63278   0.96799   0.73468   0.00000  Uiso   1.00
H129   H     0.21418   0.97538   0.31872   0.00000  Uiso   1.00
O130   O     0.93632   0.59600   0.51739   0.00000  Uiso   1.00
O131   O     0.65661   0.98257   0.91043   0.00000  Uiso   1.00
O132   O     0.41940   0.99228   0.36470   0.00000  Uiso   1.00
N133   N     0.01314   0.66276   0.59491   0.00000  Uiso   1.00
N134   N     0.81379   0.93823   0.87500   0.00000  Uiso   1.00
N135   N     0.35735   0.94516   0.48613   0.00000  Uiso   1.00
N136   N     0.89855   0.67922   0.48586   0.00000  Uiso   1.00
N137   N     0.69921   0.95469   0.76596   0.00000  Uiso   1.00
N138   N     0.24276   0.96162   0.37708   0.00000  Uiso   1.00
C139   C     0.42846   0.65275   0.66158   0.00000  Uiso   1.00
C140   C     0.47254   0.69957   0.61655   0.00000  Uiso   1.00
C141   C     0.44579   0.74811   0.63943   0.00000  Uiso   1.00
C142   C     0.49489   0.78581   0.59015   0.00000  Uiso   1.00
C143   C     0.55225   0.86011   0.53085   0.00000  Uiso   1.00
C144   C     0.52750   0.62366   0.69375   0.00000  Uiso   1.00
C145   C     0.54694   0.60836   0.78154   0.00000  Uiso   1.00
C146   C     0.64229   0.58215   0.79724   0.00000  Uiso   1.00
C147   C     0.78493   0.53856   0.85779   0.00000  Uiso   1.00
C148   C     0.37769   0.62176   0.58657   0.00000  Uiso   1.00
C149   C     0.27118   0.60485   0.58426   0.00000  Uiso   1.00
C150   C     0.24041   0.57702   0.50972   0.00000  Uiso   1.00
C151   C     0.15045   0.53048   0.40386   0.00000  Uiso   1.00
C152   C     0.56322   0.63339   0.53334   0.00000  Uiso   1.00
C153   C     0.54574   0.68906   0.54690   0.00000  Uiso   1.00
C154   C     0.59489   0.72669   0.49756   0.00000  Uiso   1.00
C155   C     0.56821   0.77528   0.52037   0.00000  Uiso   1.00
C156   C     0.60069   0.61314   0.62410   0.00000  Uiso   1.00
C157   C     0.69603   0.58695   0.63967   0.00000  Uiso   1.00
C158   C     0.71562   0.57162   0.72746   0.00000  Uiso   1.00
C159   C     0.45088   0.61124   0.51692   0.00000  Uiso   1.00
C160   C     0.42027   0.58344   0.44238   0.00000  Uiso   1.00
C161   C     0.31374   0.56649   0.43994   0.00000  Uiso   1.00
H162   H     0.37148   0.66094   0.71581   0.00000  Uiso   1.00
H163   H     0.38915   0.75623   0.69335   0.00000  Uiso   1.00
H164   H     0.49028   0.61650   0.83543   0.00000  Uiso   1.00
H165   H     0.21456   0.61299   0.63817   0.00000  Uiso   1.00
H166   H     0.44106   0.85725   0.63775   0.00000  Uiso   1.00
H167   H     0.65427   0.56260   0.93733   0.00000  Uiso   1.00
H168   H     0.07286   0.55520   0.52137   0.00000  Uiso   1.00
H169   H     0.62020   0.62521   0.47912   0.00000  Uiso   1.00
H170   H     0.65152   0.71854   0.44366   0.00000  Uiso   1.00
H171   H     0.75265   0.57881   0.58575   0.00000  Uiso   1.00
H172   H     0.47694   0.57531   0.38849   0.00000  Uiso   1.00
H173   H     0.65401   0.82666   0.43510   0.00000  Uiso   1.00
H174   H     0.86722   0.53201   0.73468   0.00000  Uiso   1.00
H175   H     0.28582   0.52462   0.31872   0.00000  Uiso   1.00
O176   O     0.56368   0.90400   0.51739   0.00000  Uiso   1.00
O177   O     0.84339   0.51743   0.91043   0.00000  Uiso   1.00
O178   O     0.08060   0.50772   0.36470   0.00000  Uiso   1.00
N179   N     0.48686   0.83724   0.59491   0.00000  Uiso   1.00
N180   N     0.68621   0.56177   0.87500   0.00000  Uiso   1.00
N181   N     0.14265   0.55484   0.48613   0.00000  Uiso   1.00
N182   N     0.60145   0.82078   0.48586   0.00000  Uiso   1.00
N183   N     0.80079   0.54531   0.76596   0.00000  Uiso   1.00
N184   N     0.25724   0.53838   0.37708   0.00000  Uiso   1.00
C185   C     0.07154   0.65275   0.16158   0.00000  Uiso   1.00
C186   C     0.02746   0.69957   0.11655   0.00000  Uiso   1.00
C187   C     0.05421   0.74811   0.13943   0.00000  Uiso   1.00
C188   C     0.00511   0.78581   0.09015   0.00000  Uiso   1.00
C189   C     0.94775   0.86011   0.03085   0.00000  Uiso   1.00
C190   C     0.97250   0.62366   0.19375   0.00000  Uiso   1.00
C191   C     0.95306   0.60836   0.28154   0.00000  Uiso   1.00
C192   C     0.85771   0.58215   0.29724   0.00000  Uiso   1.00
C193   C     0.71507   0.53856   0.35779   0.00000  Uiso   1.00
C194   C     0.12231   0.62176   0.08657   0.00000  Uiso   1.00
C195   C     0.22882   0.60485   0.08426   0.00000  Uiso   1.00
C196   C     0.25959   0.57702   0.00972   0.00000  Uiso   1.00
C197   C     0.34955   0.53048   0.90386   0.00000  Uiso   1.00
C198   C     0.93678   0.63339   0.03334   0.00000  Uiso   1.00
C199   C     0.95426   0.68906   0.04690   0.00000  Uiso   1.00
C200   C     0.90511   0.72669   0.99756   0.00000  Uiso   1.00
C201   C     0.93179   0.77528   0.02037   0.00000  Uiso   1.00
C202   C     0.89931   0.61314   0.12410   0.00000  Uiso   1.00
C203   C     0.80397   0.58695   0.13967   0.00000  Uiso   1.00
C204   C     0.78438   0.57162   0.22746   0.00000  Uiso   1.00
C205   C     0.04912   0.61124   0.01692   0.00000  Uiso   1.00
C206   C     0.07973   0.58344   0.94238   0.00000  Uiso   1.00
C207   C     0.18626   0.56649   0.93994   0.00000  Uiso   1.00
H208   H     0.12852   0.66094   0.21581   0.00000  Uiso   1.00
H209   H     0.11085   0.75623   0.19335   0.00000  Uiso   1.00
H210   H     0.00972   0.61650   0.33543   0.00000  Uiso   1.00
H211   H     0.28544   0.61299   0.13817   0.00000  Uiso   1.00
H212   H     0.05894   0.85725   0.13775   0.00000  Uiso   1.00
H213   H     0.84573   0.56260   0.43733   0.00000  Uiso   1.00
H214   H     0.42714   0.55520   0.02137   0.00000  Uiso   1.00
H215   H     0.87980   0.62521   0.97912   0.00000  Uiso   1.00
H216   H     0.84848   0.71854   0.94366   0.00000  Uiso   1.00
H217   H     0.74735   0.57881   0.08575   0.00000  Uiso   1.00
H218   H     0.02306   0.57531   0.88849   0.00000  Uiso   1.00
H219   H     0.84599   0.82666   0.93510   0.00000  Uiso   1.00
H220   H     0.63278   0.53201   0.23468   0.00000  Uiso   1.00
H221   H     0.21418   0.52462   0.81872   0.00000  Uiso   1.00
O222   O     0.93632   0.90400   0.01739   0.00000  Uiso   1.00
O223   O     0.65661   0.51743   0.41043   0.00000  Uiso   1.00
O224   O     0.41940   0.50772   0.86470   0.00000  Uiso   1.00
N225   N     0.01314   0.83724   0.09491   0.00000  Uiso   1.00
N226   N     0.81379   0.56177   0.37500   0.00000  Uiso   1.00
N227   N     0.35735   0.55484   0.98613   0.00000  Uiso   1.00
N228   N     0.89855   0.82078   0.98586   0.00000  Uiso   1.00
N229   N     0.69921   0.54531   0.26596   0.00000  Uiso   1.00
N230   N     0.24276   0.53838   0.87708   0.00000  Uiso   1.00
C231   C     0.42846   0.84725   0.16158   0.00000  Uiso   1.00
C232   C     0.47254   0.80043   0.11655   0.00000  Uiso   1.00
C233   C     0.44579   0.75189   0.13943   0.00000  Uiso   1.00
C234   C     0.49489   0.71419   0.09015   0.00000  Uiso   1.00
C235   C     0.55225   0.63989   0.03085   0.00000  Uiso   1.00
C236   C     0.52750   0.87634   0.19375   0.00000  Uiso   1.00
C237   C     0.54694   0.89164   0.28154   0.00000  Uiso   1.00
C238   C     0.64229   0.91785   0.29724   0.00000  Uiso   1.00
C239   C     0.78493   0.96144   0.35779   0.00000  Uiso   1.00
C240   C     0.37769   0.87824   0.08657   0.00000  Uiso   1.00
C241   C     0.27118   0.89515   0.08426   0.00000  Uiso   1.00
C242   C     0.24041   0.92298   0.00972   0.00000  Uiso   1.00
C243   C     0.15045   0.96952   0.90386   0.00000  Uiso   1.00
C244   C     0.56322   0.86661   0.03334   0.00000  Uiso   1.00
C245   C     0.54574   0.81094   0.04690   0.00000  Uiso   1.00
C246   C     0.59489   0.77331   0.99756   0.00000  Uiso   1.00
C247   C     0.56821   0.72472   0.02037   0.00000  Uiso   1.00
C248   C     0.60069   0.88686   0.12410   0.00000  Uiso   1.00
C249   C     0.69603   0.91305   0.13967   0.00000  Uiso   1.00
C250   C     0.71562   0.92838   0.22746   0.00000  Uiso   1.00
C251   C     0.45088   0.88876   0.01692   0.00000  Uiso   1.00
C252   C     0.42027   0.91656   0.94238   0.00000  Uiso   1.00
C253   C     0.31374   0.93351   0.93994   0.00000  Uiso   1.00
H254   H     0.37148   0.83906   0.21581   0.00000  Uiso   1.00
H255   H     0.38915   0.74377   0.19335   0.00000  Uiso   1.00
H256   H     0.49028   0.88350   0.33543   0.00000  Uiso   1.00
H257   H     0.21456   0.88701   0.13817   0.00000  Uiso   1.00
H258   H     0.44106   0.64275   0.13775   0.00000  Uiso   1.00
H259   H     0.65427   0.93740   0.43733   0.00000  Uiso   1.00
H260   H     0.07286   0.94480   0.02137   0.00000  Uiso   1.00
H261   H     0.62020   0.87479   0.97912   0.00000  Uiso   1.00
H262   H     0.65152   0.78146   0.94366   0.00000  Uiso   1.00
H263   H     0.75265   0.92119   0.08575   0.00000  Uiso   1.00
H264   H     0.47694   0.92469   0.88849   0.00000  Uiso   1.00
H265   H     0.65401   0.67334   0.93510   0.00000  Uiso   1.00
H266   H     0.86722   0.96799   0.23468   0.00000  Uiso   1.00
H267   H     0.28582   0.97538   0.81872   0.00000  Uiso   1.00
O268   O     0.56368   0.59600   0.01739   0.00000  Uiso   1.00
O269   O     0.84339   0.98257   0.41043   0.00000  Uiso   1.00
O270   O     0.08060   0.99228   0.86470   0.00000  Uiso   1.00
N271   N     0.48686   0.66276   0.09491   0.00000  Uiso   1.00
N272   N     0.68621   0.93823   0.37500   0.00000  Uiso   1.00
N273   N     0.14265   0.94516   0.98613   0.00000  Uiso   1.00
N274   N     0.60145   0.67922   0.98586   0.00000  Uiso   1.00
N275   N     0.80079   0.95469   0.26596   0.00000  Uiso   1.00
N276   N     0.25724   0.96162   0.87708   0.00000  Uiso   1.00
C277   C     0.92846   0.15275   0.33842   0.00000  Uiso   1.00
C278   C     0.97254   0.19957   0.38345   0.00000  Uiso   1.00
C279   C     0.94579   0.24811   0.36057   0.00000  Uiso   1.00
C280   C     0.99489   0.28581   0.40985   0.00000  Uiso   1.00
C281   C     0.05225   0.36011   0.46915   0.00000  Uiso   1.00
C282   C     0.02750   0.12366   0.30625   0.00000  Uiso   1.00
C283   C     0.04694   0.10836   0.21846   0.00000  Uiso   1.00
C284   C     0.14229   0.08215   0.20276   0.00000  Uiso   1.00
C285   C     0.28493   0.03856   0.14221   0.00000  Uiso   1.00
C286   C     0.87769   0.12176   0.41343   0.00000  Uiso   1.00
C287   C     0.77118   0.10485   0.41574   0.00000  Uiso   1.00
C288   C     0.74041   0.07702   0.49028   0.00000  Uiso   1.00
C289   C     0.65045   0.03048   0.59614   0.00000  Uiso   1.00
C290   C     0.06322   0.13339   0.46666   0.00000  Uiso   1.00
C291   C     0.04574   0.18906   0.45310   0.00000  Uiso   1.00
C292   C     0.09489   0.22669   0.50244   0.00000  Uiso   1.00
C293   C     0.06821   0.27528   0.47963   0.00000  Uiso   1.00
C294   C     0.10069   0.11314   0.37590   0.00000  Uiso   1.00
C295   C     0.19603   0.08695   0.36033   0.00000  Uiso   1.00
C296   C     0.21562   0.07162   0.27254   0.00000  Uiso   1.00
C297   C     0.95088   0.11124   0.48308   0.00000  Uiso   1.00
C298   C     0.92027   0.08344   0.55762   0.00000  Uiso   1.00
C299   C     0.81374   0.06649   0.56006   0.00000  Uiso   1.00
H300   H     0.87148   0.16094   0.28419   0.00000  Uiso   1.00
H301   H     0.88915   0.25623   0.30665   0.00000  Uiso   1.00
H302   H     0.99028   0.11650   0.16457   0.00000  Uiso   1.00
H303   H     0.71456   0.11299   0.36183   0.00000  Uiso   1.00
H304   H     0.94106   0.35725   0.36225   0.00000  Uiso   1.00
H305   H     0.15427   0.06260   0.06267   0.00000  Uiso   1.00
H306   H     0.57286   0.05520   0.47863   0.00000  Uiso   1.00
H307   H     0.12020   0.12521   0.52088   0.00000  Uiso   1.00
H308   H     0.15152   0.21854   0.55634   0.00000  Uiso   1.00
H309   H     0.25265   0.07881   0.41425   0.00000  Uiso   1.00
H310   H     0.97694   0.07531   0.61151   0.00000  Uiso   1.00
H311   H     0.15401   0.32666   0.56490   0.00000  Uiso   1.00
H312   H     0.36722   0.03201   0.26532   0.00000  Uiso   1.00
H313   H     0.78582   0.02462   0.68128   0.00000  Uiso   1.00
O314   O     0.06368   0.40400   0.48261   0.00000  Uiso   1.00
O315   O     0.34339   0.01743   0.08957   0.00000  Uiso   1.00
O316   O     0.58060   0.00772   0.63530   0.00000  Uiso   1.00
N317   N     0.98686   0.33724   0.40509   0.00000  Uiso   1.00
N318   N     0.18621   0.06177   0.12500   0.00000  Uiso   1.00
N319   N     0.64265   0.05484   0.51387   0.00000  Uiso   1.00
N320   N     0.10145   0.32078   0.51414   0.00000  Uiso   1.00
N321   N     0.30079   0.04531   0.23404   0.00000  Uiso   1.00
N322   N     0.75724   0.03838   0.62292   0.00000  Uiso   1.00
C323   C     0.57154   0.34725   0.33842   0.00000  Uiso   1.00
C324   C     0.52746   0.30043   0.38345   0.00000  Uiso   1.00
C325   C     0.55421   0.25189   0.36057   0.00000  Uiso   1.00
C326   C     0.50511   0.21419   0.40985   0.00000  Uiso   1.00
C327   C     0.44775   0.13989   0.46915   0.00000  Uiso   1.00
C328   C     0.47250   0.37634   0.30625   0.00000  Uiso   1.00
C329   C     0.45306   0.39164   0.21846   0.00000  Uiso   1.00
C330   C     0.35771   0.41785   0.20276   0.00000  Uiso   1.00
C331   C     0.21507   0.46144   0.14221   0.00000  Uiso   1.00
C332   C     0.62231   0.37824   0.41343   0.00000  Uiso   1.00
C333   C     0.72882   0.39515   0.41574   0.00000  Uiso   1.00
C334   C     0.75959   0.42298   0.49028   0.00000  Uiso   1.00
C335   C     0.84955   0.46952   0.59614   0.00000  Uiso   1.00
C336   C     0.43678   0.36661   0.46666   0.00000  Uiso   1.00
C337   C     0.45426   0.31094   0.45310   0.00000  Uiso   1.00
C338   C     0.40511   0.27331   0.50244   0.00000  Uiso   1.00
C339   C     0.43179   0.22472   0.47963   0.00000  Uiso   1.00
C340   C     0.39931   0.38686   0.37590   0.00000  Uiso   1.00
C341   C     0.30397   0.41305   0.36033   0.00000  Uiso   1.00
C342   C     0.28438   0.42838   0.27254   0.00000  Uiso   1.00
C343   C     0.54912   0.38876   0.48308   0.00000  Uiso   1.00
C344   C     0.57973   0.41656   0.55762   0.00000  Uiso   1.00
C345   C     0.68626   0.43351   0.56006   0.00000  Uiso   1.00
H346   H     0.62852   0.33906   0.28419   0.00000  Uiso   1.00
H347   H     0.61085   0.24377   0.30665   0.00000  Uiso   1.00
H348   H     0.50972   0.38350   0.16457   0.00000  Uiso   1.00
H349   H     0.78544   0.38701   0.36183   0.00000  Uiso   1.00
H350   H     0.55894   0.14275   0.36225   0.00000  Uiso   1.00
H351   H     0.34573   0.43740   0.06267   0.00000  Uiso   1.00
H352   H     0.92714   0.44480   0.47863   0.00000  Uiso   1.00
H353   H     0.37980   0.37479   0.52088   0.00000  Uiso   1.00
H354   H     0.34848   0.28146   0.55634   0.00000  Uiso   1.00
H355   H     0.24735   0.42119   0.41425   0.00000  Uiso   1.00
H356   H     0.52306   0.42469   0.61151   0.00000  Uiso   1.00
H357   H     0.34599   0.17334   0.56490   0.00000  Uiso   1.00
H358   H     0.13278   0.46799   0.26532   0.00000  Uiso   1.00
H359   H     0.71418   0.47538   0.68128   0.00000  Uiso   1.00
O360   O     0.43632   0.09600   0.48261   0.00000  Uiso   1.00
O361   O     0.15661   0.48257   0.08957   0.00000  Uiso   1.00
O362   O     0.91940   0.49228   0.63530   0.00000  Uiso   1.00
N363   N     0.51314   0.16276   0.40509   0.00000  Uiso   1.00
N364   N     0.31379   0.43823   0.12500   0.00000  Uiso   1.00
N365   N     0.85735   0.44516   0.51387   0.00000  Uiso   1.00
N366   N     0.39855   0.17922   0.51414   0.00000  Uiso   1.00
N367   N     0.19921   0.45469   0.23404   0.00000  Uiso   1.00
N368   N     0.74276   0.46162   0.62292   0.00000  Uiso   1.00
