data_job_02237
_audit_creation_date              2018-12-19
_audit_creation_method            'Materials Studio'
_symmetry_space_group_name_H-M    'P1'
_symmetry_Int_Tables_number       1
_symmetry_cell_setting            triclinic
loop_
_symmetry_equiv_pos_as_xyz
  x,y,z
_cell_length_a                    23.1448
_cell_length_b                    23.1448
_cell_length_c                    8.1757
_cell_angle_alpha                 90.0000
_cell_angle_beta                  90.0000
_cell_angle_gamma                 120.0000
loop_
_atom_site_label
_atom_site_type_symbol
_atom_site_fract_x
_atom_site_fract_y
_atom_site_fract_z
_atom_site_U_iso_or_equiv
_atom_site_adp_type
_atom_site_occupancy
C1     C     0.04867   0.37207   0.38763   0.00000  Uiso   1.00
C2     C     0.08857   0.34147   0.31873   0.00000  Uiso   1.00
C3     C     0.09758   0.29284   0.39417   0.00000  Uiso   1.00
C4     C     0.13578   0.27138   0.31119   0.00000  Uiso   1.00
C5     C     0.19348   0.21990   0.22751   0.00000  Uiso   1.00
C6     C     0.09651   0.44719   0.39261   0.00000  Uiso   1.00
C7     C     0.11219   0.48743   0.53017   0.00000  Uiso   1.00
C8     C     0.15708   0.55497   0.50936   0.00000  Uiso   1.00
C9     C     0.22707   0.66762   0.54037   0.00000  Uiso   1.00
C10    C     0.99644   0.36071   0.25861   0.00000  Uiso   1.00
C11    C     0.92798   0.32826   0.28349   0.00000  Uiso   1.00
C12    C     0.88861   0.32300   0.14987   0.00000  Uiso   1.00
C13    C     0.80323   0.30138   0.97280   0.00000  Uiso   1.00
C14    C     0.10048   0.42045   0.10608   0.00000  Uiso   1.00
C15    C     0.11671   0.36776   0.16581   0.00000  Uiso   1.00
C16    C     0.15491   0.34637   0.08268   0.00000  Uiso   1.00
C17    C     0.16397   0.29771   0.15798   0.00000  Uiso   1.00
C18    C     0.12466   0.47347   0.23970   0.00000  Uiso   1.00
C19    C     0.16952   0.54097   0.21868   0.00000  Uiso   1.00
C20    C     0.18527   0.58130   0.35617   0.00000  Uiso   1.00
C21    C     0.02458   0.38699   0.10568   0.00000  Uiso   1.00
C22    C     0.98531   0.38179   0.97199   0.00000  Uiso   1.00
C23    C     0.91680   0.34933   0.99667   0.00000  Uiso   1.00
H24    H     0.02676   0.35161   0.50669   0.00000  Uiso   1.00
H25    H     0.07580   0.27252   0.51253   0.00000  Uiso   1.00
H26    H     0.09040   0.46708   0.64849   0.00000  Uiso   1.00
H27    H     0.90622   0.30793   0.40185   0.00000  Uiso   1.00
H28    H     0.14260   0.19643   0.45159   0.00000  Uiso   1.00
H29    H     0.17337   0.60669   0.73827   0.00000  Uiso   1.00
H30    H     0.78499   0.27108   0.21818   0.00000  Uiso   1.00
H31    H     0.12240   0.44092   0.98702   0.00000  Uiso   1.00
H32    H     0.17668   0.36672   0.96434   0.00000  Uiso   1.00
H33    H     0.19129   0.56129   0.10031   0.00000  Uiso   1.00
H34    H     0.00710   0.40213   0.85367   0.00000  Uiso   1.00
H35    H     0.22448   0.27289   0.00666   0.00000  Uiso   1.00
H36    H     0.25525   0.68315   0.29335   0.00000  Uiso   1.00
H37    H     0.86687   0.34754   0.77325   0.00000  Uiso   1.00
O38    O     0.21754   0.18425   0.22361   0.00000  Uiso   1.00
O39    O     0.25791   0.72250   0.59972   0.00000  Uiso   1.00
O40    O     0.74836   0.28219   0.91737   0.00000  Uiso   1.00
N41    N     0.15441   0.22460   0.34997   0.00000  Uiso   1.00
N42    N     0.18319   0.60816   0.61801   0.00000  Uiso   1.00
N43    N     0.82008   0.29441   0.13178   0.00000  Uiso   1.00
N44    N     0.19847   0.26574   0.11056   0.00000  Uiso   1.00
N45    N     0.22725   0.64931   0.37860   0.00000  Uiso   1.00
N46    N     0.86414   0.33556   0.89237   0.00000  Uiso   1.00
C47    C     0.62793   0.67660   0.38763   0.00000  Uiso   1.00
C48    C     0.65853   0.74710   0.31873   0.00000  Uiso   1.00
C49    C     0.70716   0.80475   0.39417   0.00000  Uiso   1.00
C50    C     0.72862   0.86440   0.31119   0.00000  Uiso   1.00
C51    C     0.78010   0.97358   0.22751   0.00000  Uiso   1.00
C52    C     0.55281   0.64933   0.39261   0.00000  Uiso   1.00
C53    C     0.51257   0.62476   0.53017   0.00000  Uiso   1.00
C54    C     0.44503   0.60210   0.50936   0.00000  Uiso   1.00
C55    C     0.33238   0.55944   0.54037   0.00000  Uiso   1.00
C56    C     0.63929   0.63573   0.25861   0.00000  Uiso   1.00
C57    C     0.67174   0.59972   0.28349   0.00000  Uiso   1.00
C58    C     0.67700   0.56561   0.14987   0.00000  Uiso   1.00
C59    C     0.69862   0.50185   0.97280   0.00000  Uiso   1.00
C60    C     0.57955   0.68003   0.10608   0.00000  Uiso   1.00
C61    C     0.63224   0.74896   0.16581   0.00000  Uiso   1.00
C62    C     0.65363   0.80854   0.08268   0.00000  Uiso   1.00
C63    C     0.70229   0.86627   0.15798   0.00000  Uiso   1.00
C64    C     0.52653   0.65119   0.23970   0.00000  Uiso   1.00
C65    C     0.45903   0.62855   0.21868   0.00000  Uiso   1.00
C66    C     0.41870   0.60397   0.35617   0.00000  Uiso   1.00
C67    C     0.61301   0.63759   0.10568   0.00000  Uiso   1.00
C68    C     0.61821   0.60352   0.97199   0.00000  Uiso   1.00
C69    C     0.65067   0.56747   0.99667   0.00000  Uiso   1.00
H70    H     0.64839   0.67515   0.50669   0.00000  Uiso   1.00
H71    H     0.72748   0.80328   0.51253   0.00000  Uiso   1.00
H72    H     0.53292   0.62332   0.64849   0.00000  Uiso   1.00
H73    H     0.69207   0.59829   0.40185   0.00000  Uiso   1.00
H74    H     0.80357   0.94617   0.45159   0.00000  Uiso   1.00
H75    H     0.39331   0.56669   0.73827   0.00000  Uiso   1.00
H76    H     0.72892   0.51391   0.21818   0.00000  Uiso   1.00
H77    H     0.55908   0.68148   0.98702   0.00000  Uiso   1.00
H78    H     0.63328   0.80996   0.96434   0.00000  Uiso   1.00
H79    H     0.43871   0.63000   0.10031   0.00000  Uiso   1.00
H80    H     0.59787   0.60497   0.85367   0.00000  Uiso   1.00
H81    H     0.72711   0.95159   0.00666   0.00000  Uiso   1.00
H82    H     0.31685   0.57210   0.29335   0.00000  Uiso   1.00
H83    H     0.65246   0.51933   0.77325   0.00000  Uiso   1.00
O84    O     0.81575   0.03329   0.22361   0.00000  Uiso   1.00
O85    O     0.27750   0.53541   0.59972   0.00000  Uiso   1.00
O86    O     0.71781   0.46617   0.91737   0.00000  Uiso   1.00
N87    N     0.77540   0.92981   0.34997   0.00000  Uiso   1.00
N88    N     0.39184   0.57503   0.61801   0.00000  Uiso   1.00
N89    N     0.70559   0.52567   0.13178   0.00000  Uiso   1.00
N90    N     0.73426   0.93273   0.11056   0.00000  Uiso   1.00
N91    N     0.35069   0.57794   0.37860   0.00000  Uiso   1.00
N92    N     0.66444   0.52859   0.89237   0.00000  Uiso   1.00
C93    C     0.32340   0.95133   0.38763   0.00000  Uiso   1.00
C94    C     0.25290   0.91143   0.31873   0.00000  Uiso   1.00
C95    C     0.19525   0.90242   0.39417   0.00000  Uiso   1.00
C96    C     0.13560   0.86422   0.31119   0.00000  Uiso   1.00
C97    C     0.02642   0.80652   0.22751   0.00000  Uiso   1.00
C98    C     0.35067   0.90349   0.39261   0.00000  Uiso   1.00
C99    C     0.37524   0.88781   0.53017   0.00000  Uiso   1.00
C100   C     0.39790   0.84292   0.50936   0.00000  Uiso   1.00
C101   C     0.44056   0.77293   0.54037   0.00000  Uiso   1.00
C102   C     0.36427   0.00356   0.25861   0.00000  Uiso   1.00
C103   C     0.40028   0.07202   0.28349   0.00000  Uiso   1.00
C104   C     0.43439   0.11139   0.14987   0.00000  Uiso   1.00
C105   C     0.49815   0.19677   0.97280   0.00000  Uiso   1.00
C106   C     0.31997   0.89952   0.10608   0.00000  Uiso   1.00
C107   C     0.25104   0.88329   0.16581   0.00000  Uiso   1.00
C108   C     0.19146   0.84509   0.08268   0.00000  Uiso   1.00
C109   C     0.13373   0.83603   0.15798   0.00000  Uiso   1.00
C110   C     0.34881   0.87534   0.23970   0.00000  Uiso   1.00
C111   C     0.37145   0.83048   0.21868   0.00000  Uiso   1.00
C112   C     0.39603   0.81473   0.35617   0.00000  Uiso   1.00
C113   C     0.36241   0.97542   0.10568   0.00000  Uiso   1.00
C114   C     0.39648   0.01469   0.97199   0.00000  Uiso   1.00
C115   C     0.43253   0.08320   0.99667   0.00000  Uiso   1.00
H116   H     0.32485   0.97324   0.50669   0.00000  Uiso   1.00
H117   H     0.19672   0.92420   0.51253   0.00000  Uiso   1.00
H118   H     0.37668   0.90960   0.64849   0.00000  Uiso   1.00
H119   H     0.40171   0.09378   0.40185   0.00000  Uiso   1.00
H120   H     0.05383   0.85740   0.45159   0.00000  Uiso   1.00
H121   H     0.43331   0.82663   0.73827   0.00000  Uiso   1.00
H122   H     0.48609   0.21501   0.21818   0.00000  Uiso   1.00
H123   H     0.31852   0.87760   0.98702   0.00000  Uiso   1.00
H124   H     0.19004   0.82332   0.96434   0.00000  Uiso   1.00
H125   H     0.37000   0.80871   0.10031   0.00000  Uiso   1.00
H126   H     0.39503   0.99290   0.85367   0.00000  Uiso   1.00
H127   H     0.04841   0.77552   0.00666   0.00000  Uiso   1.00
H128   H     0.42790   0.74475   0.29335   0.00000  Uiso   1.00
H129   H     0.48067   0.13313   0.77325   0.00000  Uiso   1.00
O130   O     0.96671   0.78246   0.22361   0.00000  Uiso   1.00
O131   O     0.46459   0.74209   0.59972   0.00000  Uiso   1.00
O132   O     0.53383   0.25164   0.91737   0.00000  Uiso   1.00
N133   N     0.07019   0.84559   0.34997   0.00000  Uiso   1.00
N134   N     0.42497   0.81681   0.61801   0.00000  Uiso   1.00
N135   N     0.47433   0.17992   0.13178   0.00000  Uiso   1.00
N136   N     0.06727   0.80153   0.11056   0.00000  Uiso   1.00
N137   N     0.42206   0.77275   0.37860   0.00000  Uiso   1.00
N138   N     0.47141   0.13586   0.89237   0.00000  Uiso   1.00
C139   C     0.95133   0.62793   0.61237   0.00000  Uiso   1.00
C140   C     0.91143   0.65853   0.68127   0.00000  Uiso   1.00
C141   C     0.90242   0.70716   0.60583   0.00000  Uiso   1.00
C142   C     0.86422   0.72862   0.68881   0.00000  Uiso   1.00
C143   C     0.80652   0.78010   0.77249   0.00000  Uiso   1.00
C144   C     0.90349   0.55281   0.60739   0.00000  Uiso   1.00
C145   C     0.88781   0.51257   0.46983   0.00000  Uiso   1.00
C146   C     0.84292   0.44503   0.49064   0.00000  Uiso   1.00
C147   C     0.77293   0.33238   0.45963   0.00000  Uiso   1.00
C148   C     0.00356   0.63929   0.74139   0.00000  Uiso   1.00
C149   C     0.07202   0.67174   0.71651   0.00000  Uiso   1.00
C150   C     0.11139   0.67700   0.85013   0.00000  Uiso   1.00
C151   C     0.19677   0.69862   0.02720   0.00000  Uiso   1.00
C152   C     0.89952   0.57955   0.89392   0.00000  Uiso   1.00
C153   C     0.88329   0.63224   0.83419   0.00000  Uiso   1.00
C154   C     0.84509   0.65363   0.91732   0.00000  Uiso   1.00
C155   C     0.83603   0.70229   0.84202   0.00000  Uiso   1.00
C156   C     0.87534   0.52653   0.76030   0.00000  Uiso   1.00
C157   C     0.83048   0.45903   0.78132   0.00000  Uiso   1.00
C158   C     0.81473   0.41870   0.64383   0.00000  Uiso   1.00
C159   C     0.97542   0.61301   0.89432   0.00000  Uiso   1.00
C160   C     0.01469   0.61821   0.02801   0.00000  Uiso   1.00
C161   C     0.08320   0.65067   0.00333   0.00000  Uiso   1.00
H162   H     0.97324   0.64839   0.49331   0.00000  Uiso   1.00
H163   H     0.92420   0.72748   0.48747   0.00000  Uiso   1.00
H164   H     0.90960   0.53292   0.35151   0.00000  Uiso   1.00
H165   H     0.09378   0.69207   0.59815   0.00000  Uiso   1.00
H166   H     0.85740   0.80357   0.54841   0.00000  Uiso   1.00
H167   H     0.82663   0.39331   0.26173   0.00000  Uiso   1.00
H168   H     0.21501   0.72892   0.78182   0.00000  Uiso   1.00
H169   H     0.87760   0.55908   0.01298   0.00000  Uiso   1.00
H170   H     0.82332   0.63328   0.03566   0.00000  Uiso   1.00
H171   H     0.80871   0.43871   0.89969   0.00000  Uiso   1.00
H172   H     0.99290   0.59787   0.14633   0.00000  Uiso   1.00
H173   H     0.77552   0.72711   0.99334   0.00000  Uiso   1.00
H174   H     0.74475   0.31685   0.70665   0.00000  Uiso   1.00
H175   H     0.13313   0.65246   0.22675   0.00000  Uiso   1.00
O176   O     0.78246   0.81575   0.77639   0.00000  Uiso   1.00
O177   O     0.74209   0.27750   0.40028   0.00000  Uiso   1.00
O178   O     0.25164   0.71781   0.08263   0.00000  Uiso   1.00
N179   N     0.84559   0.77540   0.65003   0.00000  Uiso   1.00
N180   N     0.81681   0.39184   0.38199   0.00000  Uiso   1.00
N181   N     0.17992   0.70559   0.86822   0.00000  Uiso   1.00
N182   N     0.80153   0.73426   0.88944   0.00000  Uiso   1.00
N183   N     0.77275   0.35069   0.62140   0.00000  Uiso   1.00
N184   N     0.13586   0.66444   0.10763   0.00000  Uiso   1.00
C185   C     0.37207   0.32340   0.61237   0.00000  Uiso   1.00
C186   C     0.34147   0.25290   0.68127   0.00000  Uiso   1.00
C187   C     0.29284   0.19525   0.60583   0.00000  Uiso   1.00
C188   C     0.27138   0.13560   0.68881   0.00000  Uiso   1.00
C189   C     0.21990   0.02642   0.77249   0.00000  Uiso   1.00
C190   C     0.44719   0.35067   0.60739   0.00000  Uiso   1.00
C191   C     0.48743   0.37524   0.46983   0.00000  Uiso   1.00
C192   C     0.55497   0.39790   0.49064   0.00000  Uiso   1.00
C193   C     0.66762   0.44056   0.45963   0.00000  Uiso   1.00
C194   C     0.36071   0.36427   0.74139   0.00000  Uiso   1.00
C195   C     0.32826   0.40028   0.71651   0.00000  Uiso   1.00
C196   C     0.32300   0.43439   0.85013   0.00000  Uiso   1.00
C197   C     0.30138   0.49815   0.02720   0.00000  Uiso   1.00
C198   C     0.42045   0.31997   0.89392   0.00000  Uiso   1.00
C199   C     0.36776   0.25104   0.83419   0.00000  Uiso   1.00
C200   C     0.34637   0.19146   0.91732   0.00000  Uiso   1.00
C201   C     0.29771   0.13373   0.84202   0.00000  Uiso   1.00
C202   C     0.47347   0.34881   0.76030   0.00000  Uiso   1.00
C203   C     0.54097   0.37145   0.78132   0.00000  Uiso   1.00
C204   C     0.58130   0.39603   0.64383   0.00000  Uiso   1.00
C205   C     0.38699   0.36241   0.89432   0.00000  Uiso   1.00
C206   C     0.38179   0.39648   0.02801   0.00000  Uiso   1.00
C207   C     0.34933   0.43253   0.00333   0.00000  Uiso   1.00
H208   H     0.35161   0.32485   0.49331   0.00000  Uiso   1.00
H209   H     0.27252   0.19672   0.48747   0.00000  Uiso   1.00
H210   H     0.46708   0.37668   0.35151   0.00000  Uiso   1.00
H211   H     0.30793   0.40171   0.59815   0.00000  Uiso   1.00
H212   H     0.19643   0.05383   0.54841   0.00000  Uiso   1.00
H213   H     0.60669   0.43331   0.26173   0.00000  Uiso   1.00
H214   H     0.27108   0.48609   0.78182   0.00000  Uiso   1.00
H215   H     0.44092   0.31852   0.01298   0.00000  Uiso   1.00
H216   H     0.36672   0.19004   0.03566   0.00000  Uiso   1.00
H217   H     0.56129   0.37000   0.89969   0.00000  Uiso   1.00
H218   H     0.40213   0.39503   0.14633   0.00000  Uiso   1.00
H219   H     0.27289   0.04841   0.99334   0.00000  Uiso   1.00
H220   H     0.68315   0.42790   0.70665   0.00000  Uiso   1.00
H221   H     0.34754   0.48067   0.22675   0.00000  Uiso   1.00
O222   O     0.18425   0.96671   0.77639   0.00000  Uiso   1.00
O223   O     0.72250   0.46459   0.40028   0.00000  Uiso   1.00
O224   O     0.28219   0.53383   0.08263   0.00000  Uiso   1.00
N225   N     0.22460   0.07019   0.65003   0.00000  Uiso   1.00
N226   N     0.60816   0.42497   0.38199   0.00000  Uiso   1.00
N227   N     0.29441   0.47433   0.86822   0.00000  Uiso   1.00
N228   N     0.26574   0.06727   0.88944   0.00000  Uiso   1.00
N229   N     0.64931   0.42206   0.62140   0.00000  Uiso   1.00
N230   N     0.33556   0.47141   0.10763   0.00000  Uiso   1.00
C231   C     0.67660   0.04867   0.61237   0.00000  Uiso   1.00
C232   C     0.74710   0.08857   0.68127   0.00000  Uiso   1.00
C233   C     0.80475   0.09758   0.60583   0.00000  Uiso   1.00
C234   C     0.86440   0.13578   0.68881   0.00000  Uiso   1.00
C235   C     0.97358   0.19348   0.77249   0.00000  Uiso   1.00
C236   C     0.64933   0.09651   0.60739   0.00000  Uiso   1.00
C237   C     0.62476   0.11219   0.46983   0.00000  Uiso   1.00
C238   C     0.60210   0.15708   0.49064   0.00000  Uiso   1.00
C239   C     0.55944   0.22707   0.45963   0.00000  Uiso   1.00
C240   C     0.63573   0.99644   0.74139   0.00000  Uiso   1.00
C241   C     0.59972   0.92798   0.71651   0.00000  Uiso   1.00
C242   C     0.56561   0.88861   0.85013   0.00000  Uiso   1.00
C243   C     0.50185   0.80323   0.02720   0.00000  Uiso   1.00
C244   C     0.68003   0.10048   0.89392   0.00000  Uiso   1.00
C245   C     0.74896   0.11671   0.83419   0.00000  Uiso   1.00
C246   C     0.80854   0.15491   0.91732   0.00000  Uiso   1.00
C247   C     0.86627   0.16397   0.84202   0.00000  Uiso   1.00
C248   C     0.65119   0.12466   0.76030   0.00000  Uiso   1.00
C249   C     0.62855   0.16952   0.78132   0.00000  Uiso   1.00
C250   C     0.60397   0.18527   0.64383   0.00000  Uiso   1.00
C251   C     0.63759   0.02458   0.89432   0.00000  Uiso   1.00
C252   C     0.60352   0.98531   0.02801   0.00000  Uiso   1.00
C253   C     0.56747   0.91680   0.00333   0.00000  Uiso   1.00
H254   H     0.67515   0.02676   0.49331   0.00000  Uiso   1.00
H255   H     0.80328   0.07580   0.48747   0.00000  Uiso   1.00
H256   H     0.62332   0.09040   0.35151   0.00000  Uiso   1.00
H257   H     0.59829   0.90622   0.59815   0.00000  Uiso   1.00
H258   H     0.94617   0.14260   0.54841   0.00000  Uiso   1.00
H259   H     0.56669   0.17337   0.26173   0.00000  Uiso   1.00
H260   H     0.51391   0.78499   0.78182   0.00000  Uiso   1.00
H261   H     0.68148   0.12240   0.01298   0.00000  Uiso   1.00
H262   H     0.80996   0.17668   0.03566   0.00000  Uiso   1.00
H263   H     0.63000   0.19129   0.89969   0.00000  Uiso   1.00
H264   H     0.60497   0.00710   0.14633   0.00000  Uiso   1.00
H265   H     0.95159   0.22448   0.99334   0.00000  Uiso   1.00
H266   H     0.57210   0.25525   0.70665   0.00000  Uiso   1.00
H267   H     0.51933   0.86687   0.22675   0.00000  Uiso   1.00
O268   O     0.03329   0.21754   0.77639   0.00000  Uiso   1.00
O269   O     0.53541   0.25791   0.40028   0.00000  Uiso   1.00
O270   O     0.46617   0.74836   0.08263   0.00000  Uiso   1.00
N271   N     0.92981   0.15441   0.65003   0.00000  Uiso   1.00
N272   N     0.57503   0.18319   0.38199   0.00000  Uiso   1.00
N273   N     0.52567   0.82008   0.86822   0.00000  Uiso   1.00
N274   N     0.93273   0.19847   0.88944   0.00000  Uiso   1.00
N275   N     0.57794   0.22725   0.62140   0.00000  Uiso   1.00
N276   N     0.52859   0.86414   0.10763   0.00000  Uiso   1.00
