data_job_03593
_audit_creation_date              2018-12-19
_audit_creation_method            'Materials Studio'
_symmetry_space_group_name_H-M    'P1'
_symmetry_Int_Tables_number       1
_symmetry_cell_setting            triclinic
loop_
_symmetry_equiv_pos_as_xyz
  x,y,z
_cell_length_a                    22.5951
_cell_length_b                    18.7338
_cell_length_c                    13.5335
_cell_angle_alpha                 90.0000
_cell_angle_beta                  90.0000
_cell_angle_gamma                 90.0000
loop_
_atom_site_label
_atom_site_type_symbol
_atom_site_fract_x
_atom_site_fract_y
_atom_site_fract_z
_atom_site_U_iso_or_equiv
_atom_site_adp_type
_atom_site_occupancy
C1     C     0.23161   0.28524   0.09741   0.00000  Uiso   1.00
C2     C     0.18573   0.22714   0.07838   0.00000  Uiso   1.00
C3     C     0.14073   0.20726   0.14251   0.00000  Uiso   1.00
C4     C     0.10332   0.15291   0.11148   0.00000  Uiso   1.00
C5     C     0.03098   0.06774   0.09594   0.00000  Uiso   1.00
C6     C     0.29185   0.24936   0.08673   0.00000  Uiso   1.00
C7     C     0.33608   0.24817   0.15788   0.00000  Uiso   1.00
C8     C     0.38800   0.21253   0.13388   0.00000  Uiso   1.00
C9     C     0.48043   0.16188   0.13127   0.00000  Uiso   1.00
C10    C     0.22656   0.33729   0.01120   0.00000  Uiso   1.00
C11    C     0.21590   0.41004   0.01883   0.00000  Uiso   1.00
C12    C     0.21287   0.44843   0.93122   0.00000  Uiso   1.00
C13    C     0.20392   0.53432   0.81133   0.00000  Uiso   1.00
C14    C     0.24519   0.22407   0.92826   0.00000  Uiso   1.00
C15    C     0.19311   0.19392   0.98651   0.00000  Uiso   1.00
C16    C     0.15576   0.13959   0.95537   0.00000  Uiso   1.00
C17    C     0.11071   0.11963   0.01944   0.00000  Uiso   1.00
C18    C     0.29923   0.21613   0.99486   0.00000  Uiso   1.00
C19    C     0.35110   0.18049   0.97074   0.00000  Uiso   1.00
C20    C     0.39539   0.17924   0.04184   0.00000  Uiso   1.00
C21    C     0.23394   0.30407   0.91932   0.00000  Uiso   1.00
C22    C     0.23093   0.34236   0.83168   0.00000  Uiso   1.00
C23    C     0.22026   0.41515   0.83918   0.00000  Uiso   1.00
H24    H     0.22587   0.31110   0.16894   0.00000  Uiso   1.00
H25    H     0.13504   0.23298   0.21361   0.00000  Uiso   1.00
H26    H     0.33036   0.27389   0.22897   0.00000  Uiso   1.00
H27    H     0.21020   0.43573   0.08994   0.00000  Uiso   1.00
H28    H     0.03760   0.13170   0.22264   0.00000  Uiso   1.00
H29    H     0.44944   0.21797   0.25502   0.00000  Uiso   1.00
H30    H     0.19607   0.55925   0.96183   0.00000  Uiso   1.00
H31    H     0.25094   0.19820   0.85673   0.00000  Uiso   1.00
H32    H     0.16148   0.11389   0.88427   0.00000  Uiso   1.00
H33    H     0.35680   0.15479   0.89963   0.00000  Uiso   1.00
H34    H     0.23664   0.31663   0.76060   0.00000  Uiso   1.00
H35    H     0.05906   0.03504   0.95534   0.00000  Uiso   1.00
H36    H     0.47091   0.12131   0.98771   0.00000  Uiso   1.00
H37    H     0.21753   0.46258   0.69453   0.00000  Uiso   1.00
O38    O     0.98904   0.02993   0.11275   0.00000  Uiso   1.00
O39    O     0.52937   0.14312   0.15522   0.00000  Uiso   1.00
O40    O     0.19694   0.59087   0.77058   0.00000  Uiso   1.00
N41    N     0.05492   0.12053   0.15594   0.00000  Uiso   1.00
N42    N     0.43997   0.20118   0.18622   0.00000  Uiso   1.00
N43    N     0.20310   0.52025   0.91212   0.00000  Uiso   1.00
N44    N     0.06647   0.06852   0.01211   0.00000  Uiso   1.00
N45    N     0.45151   0.14917   0.04238   0.00000  Uiso   1.00
N46    N     0.21464   0.46824   0.76828   0.00000  Uiso   1.00
C47    C     0.26839   0.71476   0.59741   0.00000  Uiso   1.00
C48    C     0.31427   0.77286   0.57838   0.00000  Uiso   1.00
C49    C     0.35927   0.79274   0.64251   0.00000  Uiso   1.00
C50    C     0.39668   0.84709   0.61148   0.00000  Uiso   1.00
C51    C     0.46902   0.93226   0.59594   0.00000  Uiso   1.00
C52    C     0.20815   0.75064   0.58673   0.00000  Uiso   1.00
C53    C     0.16392   0.75183   0.65788   0.00000  Uiso   1.00
C54    C     0.11200   0.78747   0.63388   0.00000  Uiso   1.00
C55    C     0.01957   0.83812   0.63127   0.00000  Uiso   1.00
C56    C     0.27344   0.66271   0.51120   0.00000  Uiso   1.00
C57    C     0.28410   0.58996   0.51883   0.00000  Uiso   1.00
C58    C     0.28713   0.55157   0.43122   0.00000  Uiso   1.00
C59    C     0.29608   0.46568   0.31133   0.00000  Uiso   1.00
C60    C     0.25481   0.77593   0.42826   0.00000  Uiso   1.00
C61    C     0.30689   0.80608   0.48651   0.00000  Uiso   1.00
C62    C     0.34424   0.86041   0.45537   0.00000  Uiso   1.00
C63    C     0.38929   0.88037   0.51944   0.00000  Uiso   1.00
C64    C     0.20077   0.78387   0.49486   0.00000  Uiso   1.00
C65    C     0.14890   0.81951   0.47074   0.00000  Uiso   1.00
C66    C     0.10461   0.82076   0.54184   0.00000  Uiso   1.00
C67    C     0.26606   0.69593   0.41932   0.00000  Uiso   1.00
C68    C     0.26907   0.65764   0.33168   0.00000  Uiso   1.00
C69    C     0.27974   0.58485   0.33918   0.00000  Uiso   1.00
H70    H     0.27413   0.68890   0.66894   0.00000  Uiso   1.00
H71    H     0.36496   0.76702   0.71361   0.00000  Uiso   1.00
H72    H     0.16964   0.72611   0.72897   0.00000  Uiso   1.00
H73    H     0.28980   0.56427   0.58994   0.00000  Uiso   1.00
H74    H     0.46240   0.86830   0.72264   0.00000  Uiso   1.00
H75    H     0.05056   0.78203   0.75502   0.00000  Uiso   1.00
H76    H     0.30393   0.44075   0.46183   0.00000  Uiso   1.00
H77    H     0.24906   0.80180   0.35673   0.00000  Uiso   1.00
H78    H     0.33852   0.88611   0.38427   0.00000  Uiso   1.00
H79    H     0.14320   0.84521   0.39963   0.00000  Uiso   1.00
H80    H     0.26336   0.68337   0.26060   0.00000  Uiso   1.00
H81    H     0.44094   0.96496   0.45534   0.00000  Uiso   1.00
H82    H     0.02909   0.87869   0.48771   0.00000  Uiso   1.00
H83    H     0.28247   0.53742   0.19453   0.00000  Uiso   1.00
O84    O     0.51096   0.97007   0.61275   0.00000  Uiso   1.00
O85    O     0.97063   0.85688   0.65522   0.00000  Uiso   1.00
O86    O     0.30306   0.40913   0.27058   0.00000  Uiso   1.00
N87    N     0.44508   0.87947   0.65594   0.00000  Uiso   1.00
N88    N     0.06003   0.79882   0.68622   0.00000  Uiso   1.00
N89    N     0.29690   0.47975   0.41212   0.00000  Uiso   1.00
N90    N     0.43353   0.93148   0.51211   0.00000  Uiso   1.00
N91    N     0.04849   0.85083   0.54238   0.00000  Uiso   1.00
N92    N     0.28536   0.53176   0.26828   0.00000  Uiso   1.00
C93    C     0.76839   0.78524   0.40259   0.00000  Uiso   1.00
C94    C     0.81427   0.72714   0.42162   0.00000  Uiso   1.00
C95    C     0.85927   0.70726   0.35749   0.00000  Uiso   1.00
C96    C     0.89668   0.65291   0.38852   0.00000  Uiso   1.00
C97    C     0.96902   0.56774   0.40406   0.00000  Uiso   1.00
C98    C     0.70815   0.74936   0.41327   0.00000  Uiso   1.00
C99    C     0.66392   0.74817   0.34212   0.00000  Uiso   1.00
C100   C     0.61200   0.71253   0.36612   0.00000  Uiso   1.00
C101   C     0.51957   0.66188   0.36873   0.00000  Uiso   1.00
C102   C     0.77344   0.83729   0.48880   0.00000  Uiso   1.00
C103   C     0.78410   0.91004   0.48117   0.00000  Uiso   1.00
C104   C     0.78713   0.94843   0.56878   0.00000  Uiso   1.00
C105   C     0.79608   0.03432   0.68867   0.00000  Uiso   1.00
C106   C     0.75481   0.72407   0.57174   0.00000  Uiso   1.00
C107   C     0.80689   0.69392   0.51349   0.00000  Uiso   1.00
C108   C     0.84424   0.63959   0.54463   0.00000  Uiso   1.00
C109   C     0.88929   0.61963   0.48056   0.00000  Uiso   1.00
C110   C     0.70077   0.71613   0.50514   0.00000  Uiso   1.00
C111   C     0.64890   0.68049   0.52926   0.00000  Uiso   1.00
C112   C     0.60461   0.67924   0.45816   0.00000  Uiso   1.00
C113   C     0.76606   0.80407   0.58068   0.00000  Uiso   1.00
C114   C     0.76907   0.84236   0.66832   0.00000  Uiso   1.00
C115   C     0.77974   0.91515   0.66082   0.00000  Uiso   1.00
H116   H     0.77413   0.81110   0.33106   0.00000  Uiso   1.00
H117   H     0.86496   0.73298   0.28639   0.00000  Uiso   1.00
H118   H     0.66964   0.77389   0.27103   0.00000  Uiso   1.00
H119   H     0.78980   0.93573   0.41006   0.00000  Uiso   1.00
H120   H     0.96240   0.63170   0.27736   0.00000  Uiso   1.00
H121   H     0.55056   0.71797   0.24498   0.00000  Uiso   1.00
H122   H     0.80393   0.05925   0.53817   0.00000  Uiso   1.00
H123   H     0.74906   0.69820   0.64327   0.00000  Uiso   1.00
H124   H     0.83852   0.61389   0.61573   0.00000  Uiso   1.00
H125   H     0.64320   0.65479   0.60037   0.00000  Uiso   1.00
H126   H     0.76336   0.81663   0.73940   0.00000  Uiso   1.00
H127   H     0.94094   0.53504   0.54466   0.00000  Uiso   1.00
H128   H     0.52909   0.62131   0.51229   0.00000  Uiso   1.00
H129   H     0.78247   0.96258   0.80547   0.00000  Uiso   1.00
O130   O     0.01096   0.52993   0.38725   0.00000  Uiso   1.00
O131   O     0.47063   0.64312   0.34478   0.00000  Uiso   1.00
O132   O     0.80306   0.09087   0.72942   0.00000  Uiso   1.00
N133   N     0.94508   0.62053   0.34406   0.00000  Uiso   1.00
N134   N     0.56003   0.70118   0.31378   0.00000  Uiso   1.00
N135   N     0.79690   0.02025   0.58788   0.00000  Uiso   1.00
N136   N     0.93353   0.56852   0.48789   0.00000  Uiso   1.00
N137   N     0.54849   0.64917   0.45762   0.00000  Uiso   1.00
N138   N     0.78536   0.96824   0.73172   0.00000  Uiso   1.00
C139   C     0.73161   0.21476   0.90259   0.00000  Uiso   1.00
C140   C     0.68573   0.27286   0.92162   0.00000  Uiso   1.00
C141   C     0.64073   0.29274   0.85749   0.00000  Uiso   1.00
C142   C     0.60332   0.34709   0.88852   0.00000  Uiso   1.00
C143   C     0.53098   0.43226   0.90406   0.00000  Uiso   1.00
C144   C     0.79185   0.25064   0.91327   0.00000  Uiso   1.00
C145   C     0.83608   0.25183   0.84212   0.00000  Uiso   1.00
C146   C     0.88800   0.28747   0.86612   0.00000  Uiso   1.00
C147   C     0.98043   0.33812   0.86873   0.00000  Uiso   1.00
C148   C     0.72656   0.16271   0.98880   0.00000  Uiso   1.00
C149   C     0.71590   0.08996   0.98117   0.00000  Uiso   1.00
C150   C     0.71287   0.05157   0.06878   0.00000  Uiso   1.00
C151   C     0.70392   0.96568   0.18867   0.00000  Uiso   1.00
C152   C     0.74519   0.27593   0.07174   0.00000  Uiso   1.00
C153   C     0.69311   0.30608   0.01349   0.00000  Uiso   1.00
C154   C     0.65576   0.36041   0.04463   0.00000  Uiso   1.00
C155   C     0.61071   0.38037   0.98056   0.00000  Uiso   1.00
C156   C     0.79923   0.28387   0.00514   0.00000  Uiso   1.00
C157   C     0.85110   0.31951   0.02926   0.00000  Uiso   1.00
C158   C     0.89539   0.32076   0.95816   0.00000  Uiso   1.00
C159   C     0.73394   0.19593   0.08068   0.00000  Uiso   1.00
C160   C     0.73093   0.15764   0.16832   0.00000  Uiso   1.00
C161   C     0.72026   0.08485   0.16082   0.00000  Uiso   1.00
H162   H     0.72587   0.18890   0.83106   0.00000  Uiso   1.00
H163   H     0.63504   0.26702   0.78639   0.00000  Uiso   1.00
H164   H     0.83036   0.22611   0.77103   0.00000  Uiso   1.00
H165   H     0.71020   0.06427   0.91006   0.00000  Uiso   1.00
H166   H     0.53760   0.36830   0.77736   0.00000  Uiso   1.00
H167   H     0.94944   0.28203   0.74498   0.00000  Uiso   1.00
H168   H     0.69607   0.94075   0.03817   0.00000  Uiso   1.00
H169   H     0.75094   0.30180   0.14327   0.00000  Uiso   1.00
H170   H     0.66148   0.38611   0.11573   0.00000  Uiso   1.00
H171   H     0.85680   0.34521   0.10037   0.00000  Uiso   1.00
H172   H     0.73664   0.18337   0.23940   0.00000  Uiso   1.00
H173   H     0.55906   0.46496   0.04466   0.00000  Uiso   1.00
H174   H     0.97091   0.37869   0.01229   0.00000  Uiso   1.00
H175   H     0.71753   0.03742   0.30547   0.00000  Uiso   1.00
O176   O     0.48904   0.47007   0.88725   0.00000  Uiso   1.00
O177   O     0.02937   0.35688   0.84478   0.00000  Uiso   1.00
O178   O     0.69694   0.90913   0.22942   0.00000  Uiso   1.00
N179   N     0.55492   0.37947   0.84406   0.00000  Uiso   1.00
N180   N     0.93997   0.29882   0.81378   0.00000  Uiso   1.00
N181   N     0.70310   0.97975   0.08788   0.00000  Uiso   1.00
N182   N     0.56647   0.43148   0.98789   0.00000  Uiso   1.00
N183   N     0.95151   0.35083   0.95762   0.00000  Uiso   1.00
N184   N     0.71464   0.03176   0.23172   0.00000  Uiso   1.00
C185   C     0.76839   0.71476   0.90259   0.00000  Uiso   1.00
C186   C     0.81427   0.77286   0.92162   0.00000  Uiso   1.00
C187   C     0.85927   0.79274   0.85749   0.00000  Uiso   1.00
C188   C     0.89668   0.84709   0.88852   0.00000  Uiso   1.00
C189   C     0.96902   0.93226   0.90406   0.00000  Uiso   1.00
C190   C     0.70815   0.75064   0.91327   0.00000  Uiso   1.00
C191   C     0.66392   0.75183   0.84212   0.00000  Uiso   1.00
C192   C     0.61200   0.78747   0.86612   0.00000  Uiso   1.00
C193   C     0.51957   0.83812   0.86873   0.00000  Uiso   1.00
C194   C     0.77344   0.66271   0.98880   0.00000  Uiso   1.00
C195   C     0.78410   0.58996   0.98117   0.00000  Uiso   1.00
C196   C     0.78713   0.55157   0.06878   0.00000  Uiso   1.00
C197   C     0.79608   0.46568   0.18867   0.00000  Uiso   1.00
C198   C     0.75481   0.77593   0.07174   0.00000  Uiso   1.00
C199   C     0.80689   0.80608   0.01349   0.00000  Uiso   1.00
C200   C     0.84424   0.86041   0.04463   0.00000  Uiso   1.00
C201   C     0.88929   0.88037   0.98056   0.00000  Uiso   1.00
C202   C     0.70077   0.78387   0.00514   0.00000  Uiso   1.00
C203   C     0.64890   0.81951   0.02926   0.00000  Uiso   1.00
C204   C     0.60461   0.82076   0.95816   0.00000  Uiso   1.00
C205   C     0.76606   0.69593   0.08068   0.00000  Uiso   1.00
C206   C     0.76907   0.65764   0.16832   0.00000  Uiso   1.00
C207   C     0.77974   0.58485   0.16082   0.00000  Uiso   1.00
H208   H     0.77413   0.68890   0.83106   0.00000  Uiso   1.00
H209   H     0.86496   0.76702   0.78639   0.00000  Uiso   1.00
H210   H     0.66964   0.72611   0.77103   0.00000  Uiso   1.00
H211   H     0.78980   0.56427   0.91006   0.00000  Uiso   1.00
H212   H     0.96240   0.86830   0.77736   0.00000  Uiso   1.00
H213   H     0.55056   0.78203   0.74498   0.00000  Uiso   1.00
H214   H     0.80393   0.44075   0.03817   0.00000  Uiso   1.00
H215   H     0.74906   0.80180   0.14327   0.00000  Uiso   1.00
H216   H     0.83852   0.88611   0.11573   0.00000  Uiso   1.00
H217   H     0.64320   0.84521   0.10037   0.00000  Uiso   1.00
H218   H     0.76336   0.68337   0.23940   0.00000  Uiso   1.00
H219   H     0.94094   0.96496   0.04466   0.00000  Uiso   1.00
H220   H     0.52909   0.87869   0.01229   0.00000  Uiso   1.00
H221   H     0.78247   0.53742   0.30547   0.00000  Uiso   1.00
O222   O     0.01096   0.97007   0.88725   0.00000  Uiso   1.00
O223   O     0.47063   0.85688   0.84478   0.00000  Uiso   1.00
O224   O     0.80306   0.40913   0.22942   0.00000  Uiso   1.00
N225   N     0.94508   0.87947   0.84406   0.00000  Uiso   1.00
N226   N     0.56003   0.79882   0.81378   0.00000  Uiso   1.00
N227   N     0.79690   0.47975   0.08788   0.00000  Uiso   1.00
N228   N     0.93353   0.93148   0.98789   0.00000  Uiso   1.00
N229   N     0.54849   0.85083   0.95762   0.00000  Uiso   1.00
N230   N     0.78536   0.53176   0.23172   0.00000  Uiso   1.00
C231   C     0.73161   0.28524   0.40259   0.00000  Uiso   1.00
C232   C     0.68573   0.22714   0.42162   0.00000  Uiso   1.00
C233   C     0.64073   0.20726   0.35749   0.00000  Uiso   1.00
C234   C     0.60332   0.15291   0.38852   0.00000  Uiso   1.00
C235   C     0.53098   0.06774   0.40406   0.00000  Uiso   1.00
C236   C     0.79185   0.24936   0.41327   0.00000  Uiso   1.00
C237   C     0.83608   0.24817   0.34212   0.00000  Uiso   1.00
C238   C     0.88800   0.21253   0.36612   0.00000  Uiso   1.00
C239   C     0.98043   0.16188   0.36873   0.00000  Uiso   1.00
C240   C     0.72656   0.33729   0.48880   0.00000  Uiso   1.00
C241   C     0.71590   0.41004   0.48117   0.00000  Uiso   1.00
C242   C     0.71287   0.44843   0.56878   0.00000  Uiso   1.00
C243   C     0.70392   0.53432   0.68867   0.00000  Uiso   1.00
C244   C     0.74519   0.22407   0.57174   0.00000  Uiso   1.00
C245   C     0.69311   0.19392   0.51349   0.00000  Uiso   1.00
C246   C     0.65576   0.13959   0.54463   0.00000  Uiso   1.00
C247   C     0.61071   0.11963   0.48056   0.00000  Uiso   1.00
C248   C     0.79923   0.21613   0.50514   0.00000  Uiso   1.00
C249   C     0.85110   0.18049   0.52926   0.00000  Uiso   1.00
C250   C     0.89539   0.17924   0.45816   0.00000  Uiso   1.00
C251   C     0.73394   0.30407   0.58068   0.00000  Uiso   1.00
C252   C     0.73093   0.34236   0.66832   0.00000  Uiso   1.00
C253   C     0.72026   0.41515   0.66082   0.00000  Uiso   1.00
H254   H     0.72587   0.31110   0.33106   0.00000  Uiso   1.00
H255   H     0.63504   0.23298   0.28639   0.00000  Uiso   1.00
H256   H     0.83036   0.27389   0.27103   0.00000  Uiso   1.00
H257   H     0.71020   0.43573   0.41006   0.00000  Uiso   1.00
H258   H     0.53760   0.13170   0.27736   0.00000  Uiso   1.00
H259   H     0.94944   0.21797   0.24498   0.00000  Uiso   1.00
H260   H     0.69607   0.55925   0.53817   0.00000  Uiso   1.00
H261   H     0.75094   0.19820   0.64327   0.00000  Uiso   1.00
H262   H     0.66148   0.11389   0.61573   0.00000  Uiso   1.00
H263   H     0.85680   0.15479   0.60037   0.00000  Uiso   1.00
H264   H     0.73664   0.31663   0.73940   0.00000  Uiso   1.00
H265   H     0.55906   0.03504   0.54466   0.00000  Uiso   1.00
H266   H     0.97091   0.12131   0.51229   0.00000  Uiso   1.00
H267   H     0.71753   0.46258   0.80547   0.00000  Uiso   1.00
O268   O     0.48904   0.02993   0.38725   0.00000  Uiso   1.00
O269   O     0.02937   0.14312   0.34478   0.00000  Uiso   1.00
O270   O     0.69694   0.59087   0.72942   0.00000  Uiso   1.00
N271   N     0.55492   0.12053   0.34406   0.00000  Uiso   1.00
N272   N     0.93997   0.20118   0.31378   0.00000  Uiso   1.00
N273   N     0.70310   0.52025   0.58788   0.00000  Uiso   1.00
N274   N     0.56647   0.06852   0.48789   0.00000  Uiso   1.00
N275   N     0.95151   0.14917   0.45762   0.00000  Uiso   1.00
N276   N     0.71464   0.46824   0.73172   0.00000  Uiso   1.00
C277   C     0.23161   0.21476   0.59741   0.00000  Uiso   1.00
C278   C     0.18573   0.27286   0.57838   0.00000  Uiso   1.00
C279   C     0.14073   0.29274   0.64251   0.00000  Uiso   1.00
C280   C     0.10332   0.34709   0.61148   0.00000  Uiso   1.00
C281   C     0.03098   0.43226   0.59594   0.00000  Uiso   1.00
C282   C     0.29185   0.25064   0.58673   0.00000  Uiso   1.00
C283   C     0.33608   0.25183   0.65788   0.00000  Uiso   1.00
C284   C     0.38800   0.28747   0.63388   0.00000  Uiso   1.00
C285   C     0.48043   0.33812   0.63127   0.00000  Uiso   1.00
C286   C     0.22656   0.16271   0.51120   0.00000  Uiso   1.00
C287   C     0.21590   0.08996   0.51883   0.00000  Uiso   1.00
C288   C     0.21287   0.05157   0.43122   0.00000  Uiso   1.00
C289   C     0.20392   0.96568   0.31133   0.00000  Uiso   1.00
C290   C     0.24519   0.27593   0.42826   0.00000  Uiso   1.00
C291   C     0.19311   0.30608   0.48651   0.00000  Uiso   1.00
C292   C     0.15576   0.36041   0.45537   0.00000  Uiso   1.00
C293   C     0.11071   0.38037   0.51944   0.00000  Uiso   1.00
C294   C     0.29923   0.28387   0.49486   0.00000  Uiso   1.00
C295   C     0.35110   0.31951   0.47074   0.00000  Uiso   1.00
C296   C     0.39539   0.32076   0.54184   0.00000  Uiso   1.00
C297   C     0.23394   0.19593   0.41932   0.00000  Uiso   1.00
C298   C     0.23093   0.15764   0.33168   0.00000  Uiso   1.00
C299   C     0.22026   0.08485   0.33918   0.00000  Uiso   1.00
H300   H     0.22587   0.18890   0.66894   0.00000  Uiso   1.00
H301   H     0.13504   0.26702   0.71361   0.00000  Uiso   1.00
H302   H     0.33036   0.22611   0.72897   0.00000  Uiso   1.00
H303   H     0.21020   0.06427   0.58994   0.00000  Uiso   1.00
H304   H     0.03760   0.36830   0.72264   0.00000  Uiso   1.00
H305   H     0.44944   0.28203   0.75502   0.00000  Uiso   1.00
H306   H     0.19607   0.94075   0.46183   0.00000  Uiso   1.00
H307   H     0.25094   0.30180   0.35673   0.00000  Uiso   1.00
H308   H     0.16148   0.38611   0.38427   0.00000  Uiso   1.00
H309   H     0.35680   0.34521   0.39963   0.00000  Uiso   1.00
H310   H     0.23664   0.18337   0.26060   0.00000  Uiso   1.00
H311   H     0.05906   0.46496   0.45534   0.00000  Uiso   1.00
H312   H     0.47091   0.37869   0.48771   0.00000  Uiso   1.00
H313   H     0.21753   0.03742   0.19453   0.00000  Uiso   1.00
O314   O     0.98904   0.47007   0.61275   0.00000  Uiso   1.00
O315   O     0.52937   0.35688   0.65522   0.00000  Uiso   1.00
O316   O     0.19694   0.90913   0.27058   0.00000  Uiso   1.00
N317   N     0.05492   0.37947   0.65594   0.00000  Uiso   1.00
N318   N     0.43997   0.29882   0.68622   0.00000  Uiso   1.00
N319   N     0.20310   0.97975   0.41212   0.00000  Uiso   1.00
N320   N     0.06647   0.43148   0.51211   0.00000  Uiso   1.00
N321   N     0.45151   0.35083   0.54238   0.00000  Uiso   1.00
N322   N     0.21464   0.03176   0.26828   0.00000  Uiso   1.00
C323   C     0.26839   0.78524   0.09741   0.00000  Uiso   1.00
C324   C     0.31427   0.72714   0.07838   0.00000  Uiso   1.00
C325   C     0.35927   0.70726   0.14251   0.00000  Uiso   1.00
C326   C     0.39668   0.65291   0.11148   0.00000  Uiso   1.00
C327   C     0.46902   0.56774   0.09594   0.00000  Uiso   1.00
C328   C     0.20815   0.74936   0.08673   0.00000  Uiso   1.00
C329   C     0.16392   0.74817   0.15788   0.00000  Uiso   1.00
C330   C     0.11200   0.71253   0.13388   0.00000  Uiso   1.00
C331   C     0.01957   0.66188   0.13127   0.00000  Uiso   1.00
C332   C     0.27344   0.83729   0.01120   0.00000  Uiso   1.00
C333   C     0.28410   0.91004   0.01883   0.00000  Uiso   1.00
C334   C     0.28713   0.94843   0.93122   0.00000  Uiso   1.00
C335   C     0.29608   0.03432   0.81133   0.00000  Uiso   1.00
C336   C     0.25481   0.72407   0.92826   0.00000  Uiso   1.00
C337   C     0.30689   0.69392   0.98651   0.00000  Uiso   1.00
C338   C     0.34424   0.63959   0.95537   0.00000  Uiso   1.00
C339   C     0.38929   0.61963   0.01944   0.00000  Uiso   1.00
C340   C     0.20077   0.71613   0.99486   0.00000  Uiso   1.00
C341   C     0.14890   0.68049   0.97074   0.00000  Uiso   1.00
C342   C     0.10461   0.67924   0.04184   0.00000  Uiso   1.00
C343   C     0.26606   0.80407   0.91932   0.00000  Uiso   1.00
C344   C     0.26907   0.84236   0.83168   0.00000  Uiso   1.00
C345   C     0.27974   0.91515   0.83918   0.00000  Uiso   1.00
H346   H     0.27413   0.81110   0.16894   0.00000  Uiso   1.00
H347   H     0.36496   0.73298   0.21361   0.00000  Uiso   1.00
H348   H     0.16964   0.77389   0.22897   0.00000  Uiso   1.00
H349   H     0.28980   0.93573   0.08994   0.00000  Uiso   1.00
H350   H     0.46240   0.63170   0.22264   0.00000  Uiso   1.00
H351   H     0.05056   0.71797   0.25502   0.00000  Uiso   1.00
H352   H     0.30393   0.05925   0.96183   0.00000  Uiso   1.00
H353   H     0.24906   0.69820   0.85673   0.00000  Uiso   1.00
H354   H     0.33852   0.61389   0.88427   0.00000  Uiso   1.00
H355   H     0.14320   0.65479   0.89963   0.00000  Uiso   1.00
H356   H     0.26336   0.81663   0.76060   0.00000  Uiso   1.00
H357   H     0.44094   0.53504   0.95534   0.00000  Uiso   1.00
H358   H     0.02909   0.62131   0.98771   0.00000  Uiso   1.00
H359   H     0.28247   0.96258   0.69453   0.00000  Uiso   1.00
O360   O     0.51096   0.52993   0.11275   0.00000  Uiso   1.00
O361   O     0.97063   0.64312   0.15522   0.00000  Uiso   1.00
O362   O     0.30306   0.09087   0.77058   0.00000  Uiso   1.00
N363   N     0.44508   0.62053   0.15594   0.00000  Uiso   1.00
N364   N     0.06003   0.70118   0.18622   0.00000  Uiso   1.00
N365   N     0.29690   0.02025   0.91212   0.00000  Uiso   1.00
N366   N     0.43353   0.56852   0.01211   0.00000  Uiso   1.00
N367   N     0.04849   0.64917   0.04238   0.00000  Uiso   1.00
N368   N     0.28536   0.96824   0.76828   0.00000  Uiso   1.00
