data_job_02629
_audit_creation_date              2018-12-19
_audit_creation_method            'Materials Studio'
_symmetry_space_group_name_H-M    'P1'
_symmetry_Int_Tables_number       1
_symmetry_cell_setting            triclinic
loop_
_symmetry_equiv_pos_as_xyz
  x,y,z
_cell_length_a                    35.9812
_cell_length_b                    17.5887
_cell_length_c                    11.6126
_cell_angle_alpha                 90.0000
_cell_angle_beta                  74.6510
_cell_angle_gamma                 90.0000
loop_
_atom_site_label
_atom_site_type_symbol
_atom_site_fract_x
_atom_site_fract_y
_atom_site_fract_z
_atom_site_U_iso_or_equiv
_atom_site_adp_type
_atom_site_occupancy
C1     C     0.32084   0.01452   0.99338   0.00000  Uiso   1.00
C2     C     0.28757   0.01178   0.93500   0.00000  Uiso   1.00
C3     C     0.25741   0.95996   0.96112   0.00000  Uiso   1.00
C4     C     0.22981   0.96693   0.89785   0.00000  Uiso   1.00
C5     C     0.17777   0.95402   0.82029   0.00000  Uiso   1.00
C6     C     0.35760   0.00898   0.89175   0.00000  Uiso   1.00
C7     C     0.38634   0.95481   0.88152   0.00000  Uiso   1.00
C8     C     0.41770   0.95943   0.78185   0.00000  Uiso   1.00
C9     C     0.47440   0.94220   0.63718   0.00000  Uiso   1.00
C10    C     0.32051   0.09443   0.04455   0.00000  Uiso   1.00
C11    C     0.31807   0.11211   0.16280   0.00000  Uiso   1.00
C12    C     0.31821   0.18868   0.19178   0.00000  Uiso   1.00
C13    C     0.31733   0.30412   0.28436   0.00000  Uiso   1.00
C14    C     0.32544   0.11907   0.83458   0.00000  Uiso   1.00
C15    C     0.29006   0.06857   0.84874   0.00000  Uiso   1.00
C16    C     0.26250   0.07562   0.78543   0.00000  Uiso   1.00
C17    C     0.23231   0.02382   0.81145   0.00000  Uiso   1.00
C18    C     0.36010   0.06576   0.80550   0.00000  Uiso   1.00
C19    C     0.39142   0.07047   0.70583   0.00000  Uiso   1.00
C20    C     0.42020   0.01631   0.69544   0.00000  Uiso   1.00
C21    C     0.32301   0.15122   0.95830   0.00000  Uiso   1.00
C22    C     0.32315   0.22777   0.98711   0.00000  Uiso   1.00
C23    C     0.32071   0.24556   0.10537   0.00000  Uiso   1.00
H24    H     0.31890   0.97031   0.06052   0.00000  Uiso   1.00
H25    H     0.25549   0.91602   0.02786   0.00000  Uiso   1.00
H26    H     0.38440   0.91087   0.94828   0.00000  Uiso   1.00
H27    H     0.31614   0.06815   0.22952   0.00000  Uiso   1.00
H28    H     0.18630   0.88084   0.95359   0.00000  Uiso   1.00
H29    H     0.45812   0.87002   0.78581   0.00000  Uiso   1.00
H30    H     0.31418   0.20167   0.37885   0.00000  Uiso   1.00
H31    H     0.32738   0.16328   0.76743   0.00000  Uiso   1.00
H32    H     0.26444   0.11957   0.71869   0.00000  Uiso   1.00
H33    H     0.39335   0.11443   0.63910   0.00000  Uiso   1.00
H34    H     0.32509   0.27170   0.92034   0.00000  Uiso   1.00
H35    H     0.19356   0.04605   0.70265   0.00000  Uiso   1.00
H36    H     0.46538   0.03523   0.53487   0.00000  Uiso   1.00
H37    H     0.32144   0.36688   0.12791   0.00000  Uiso   1.00
O38    O     0.14838   0.93120   0.80131   0.00000  Uiso   1.00
O39    O     0.50499   0.91700   0.58121   0.00000  Uiso   1.00
O40    O     0.31615   0.35212   0.35926   0.00000  Uiso   1.00
N41    N     0.19664   0.92573   0.90124   0.00000  Uiso   1.00
N42    N     0.45077   0.91560   0.74436   0.00000  Uiso   1.00
N43    N     0.31621   0.22567   0.29880   0.00000  Uiso   1.00
N44    N     0.20055   0.01463   0.76621   0.00000  Uiso   1.00
N45    N     0.45468   0.00450   0.60933   0.00000  Uiso   1.00
N46    N     0.32012   0.31457   0.16377   0.00000  Uiso   1.00
C47    C     0.82084   0.51452   0.99338   0.00000  Uiso   1.00
C48    C     0.78757   0.51178   0.93500   0.00000  Uiso   1.00
C49    C     0.75741   0.45996   0.96112   0.00000  Uiso   1.00
C50    C     0.72981   0.46693   0.89785   0.00000  Uiso   1.00
C51    C     0.67777   0.45402   0.82029   0.00000  Uiso   1.00
C52    C     0.85760   0.50898   0.89175   0.00000  Uiso   1.00
C53    C     0.88634   0.45481   0.88152   0.00000  Uiso   1.00
C54    C     0.91770   0.45943   0.78185   0.00000  Uiso   1.00
C55    C     0.97440   0.44220   0.63718   0.00000  Uiso   1.00
C56    C     0.82051   0.59443   0.04455   0.00000  Uiso   1.00
C57    C     0.81807   0.61211   0.16280   0.00000  Uiso   1.00
C58    C     0.81821   0.68868   0.19178   0.00000  Uiso   1.00
C59    C     0.81733   0.80412   0.28436   0.00000  Uiso   1.00
C60    C     0.82544   0.61907   0.83458   0.00000  Uiso   1.00
C61    C     0.79006   0.56857   0.84874   0.00000  Uiso   1.00
C62    C     0.76250   0.57562   0.78543   0.00000  Uiso   1.00
C63    C     0.73231   0.52382   0.81145   0.00000  Uiso   1.00
C64    C     0.86010   0.56576   0.80550   0.00000  Uiso   1.00
C65    C     0.89142   0.57047   0.70583   0.00000  Uiso   1.00
C66    C     0.92020   0.51631   0.69544   0.00000  Uiso   1.00
C67    C     0.82301   0.65122   0.95830   0.00000  Uiso   1.00
C68    C     0.82315   0.72777   0.98711   0.00000  Uiso   1.00
C69    C     0.82071   0.74556   0.10537   0.00000  Uiso   1.00
H70    H     0.81890   0.47031   0.06052   0.00000  Uiso   1.00
H71    H     0.75549   0.41602   0.02786   0.00000  Uiso   1.00
H72    H     0.88440   0.41087   0.94828   0.00000  Uiso   1.00
H73    H     0.81614   0.56815   0.22952   0.00000  Uiso   1.00
H74    H     0.68630   0.38084   0.95359   0.00000  Uiso   1.00
H75    H     0.95812   0.37002   0.78581   0.00000  Uiso   1.00
H76    H     0.81418   0.70167   0.37885   0.00000  Uiso   1.00
H77    H     0.82738   0.66328   0.76743   0.00000  Uiso   1.00
H78    H     0.76444   0.61957   0.71869   0.00000  Uiso   1.00
H79    H     0.89335   0.61443   0.63910   0.00000  Uiso   1.00
H80    H     0.82509   0.77170   0.92034   0.00000  Uiso   1.00
H81    H     0.69356   0.54605   0.70265   0.00000  Uiso   1.00
H82    H     0.96538   0.53523   0.53487   0.00000  Uiso   1.00
H83    H     0.82144   0.86688   0.12791   0.00000  Uiso   1.00
O84    O     0.64838   0.43120   0.80131   0.00000  Uiso   1.00
O85    O     0.00499   0.41700   0.58121   0.00000  Uiso   1.00
O86    O     0.81615   0.85212   0.35926   0.00000  Uiso   1.00
N87    N     0.69664   0.42573   0.90124   0.00000  Uiso   1.00
N88    N     0.95077   0.41560   0.74436   0.00000  Uiso   1.00
N89    N     0.81621   0.72567   0.29880   0.00000  Uiso   1.00
N90    N     0.70055   0.51463   0.76621   0.00000  Uiso   1.00
N91    N     0.95468   0.50450   0.60933   0.00000  Uiso   1.00
N92    N     0.82012   0.81457   0.16377   0.00000  Uiso   1.00
C93    C     0.67916   0.01452   0.50662   0.00000  Uiso   1.00
C94    C     0.71243   0.01178   0.56500   0.00000  Uiso   1.00
C95    C     0.74259   0.95996   0.53888   0.00000  Uiso   1.00
C96    C     0.77019   0.96693   0.60215   0.00000  Uiso   1.00
C97    C     0.82223   0.95402   0.67971   0.00000  Uiso   1.00
C98    C     0.64240   0.00898   0.60825   0.00000  Uiso   1.00
C99    C     0.61366   0.95481   0.61848   0.00000  Uiso   1.00
C100   C     0.58230   0.95943   0.71815   0.00000  Uiso   1.00
C101   C     0.52560   0.94220   0.86282   0.00000  Uiso   1.00
C102   C     0.67949   0.09443   0.45545   0.00000  Uiso   1.00
C103   C     0.68193   0.11211   0.33720   0.00000  Uiso   1.00
C104   C     0.68179   0.18868   0.30822   0.00000  Uiso   1.00
C105   C     0.68267   0.30412   0.21564   0.00000  Uiso   1.00
C106   C     0.67456   0.11907   0.66542   0.00000  Uiso   1.00
C107   C     0.70994   0.06857   0.65126   0.00000  Uiso   1.00
C108   C     0.73750   0.07562   0.71457   0.00000  Uiso   1.00
C109   C     0.76769   0.02382   0.68855   0.00000  Uiso   1.00
C110   C     0.63990   0.06576   0.69450   0.00000  Uiso   1.00
C111   C     0.60858   0.07047   0.79417   0.00000  Uiso   1.00
C112   C     0.57980   0.01631   0.80456   0.00000  Uiso   1.00
C113   C     0.67699   0.15122   0.54170   0.00000  Uiso   1.00
C114   C     0.67685   0.22777   0.51289   0.00000  Uiso   1.00
C115   C     0.67929   0.24556   0.39463   0.00000  Uiso   1.00
H116   H     0.68110   0.97031   0.43948   0.00000  Uiso   1.00
H117   H     0.74451   0.91602   0.47214   0.00000  Uiso   1.00
H118   H     0.61560   0.91087   0.55172   0.00000  Uiso   1.00
H119   H     0.68386   0.06815   0.27048   0.00000  Uiso   1.00
H120   H     0.81370   0.88084   0.54641   0.00000  Uiso   1.00
H121   H     0.54188   0.87002   0.71419   0.00000  Uiso   1.00
H122   H     0.68582   0.20167   0.12115   0.00000  Uiso   1.00
H123   H     0.67262   0.16328   0.73257   0.00000  Uiso   1.00
H124   H     0.73556   0.11957   0.78131   0.00000  Uiso   1.00
H125   H     0.60665   0.11443   0.86090   0.00000  Uiso   1.00
H126   H     0.67491   0.27170   0.57966   0.00000  Uiso   1.00
H127   H     0.80644   0.04605   0.79735   0.00000  Uiso   1.00
H128   H     0.53462   0.03523   0.96513   0.00000  Uiso   1.00
H129   H     0.67856   0.36688   0.37209   0.00000  Uiso   1.00
O130   O     0.85162   0.93120   0.69869   0.00000  Uiso   1.00
O131   O     0.49501   0.91700   0.91879   0.00000  Uiso   1.00
O132   O     0.68385   0.35212   0.14074   0.00000  Uiso   1.00
N133   N     0.80336   0.92573   0.59876   0.00000  Uiso   1.00
N134   N     0.54923   0.91560   0.75564   0.00000  Uiso   1.00
N135   N     0.68379   0.22567   0.20120   0.00000  Uiso   1.00
N136   N     0.79945   0.01463   0.73379   0.00000  Uiso   1.00
N137   N     0.54532   0.00450   0.89067   0.00000  Uiso   1.00
N138   N     0.67988   0.31457   0.33623   0.00000  Uiso   1.00
C139   C     0.17916   0.51452   0.50662   0.00000  Uiso   1.00
C140   C     0.21243   0.51178   0.56500   0.00000  Uiso   1.00
C141   C     0.24259   0.45996   0.53888   0.00000  Uiso   1.00
C142   C     0.27019   0.46693   0.60215   0.00000  Uiso   1.00
C143   C     0.32223   0.45402   0.67971   0.00000  Uiso   1.00
C144   C     0.14240   0.50898   0.60825   0.00000  Uiso   1.00
C145   C     0.11366   0.45481   0.61848   0.00000  Uiso   1.00
C146   C     0.08230   0.45943   0.71815   0.00000  Uiso   1.00
C147   C     0.02560   0.44220   0.86282   0.00000  Uiso   1.00
C148   C     0.17949   0.59443   0.45545   0.00000  Uiso   1.00
C149   C     0.18193   0.61211   0.33720   0.00000  Uiso   1.00
C150   C     0.18179   0.68868   0.30822   0.00000  Uiso   1.00
C151   C     0.18267   0.80412   0.21564   0.00000  Uiso   1.00
C152   C     0.17456   0.61907   0.66542   0.00000  Uiso   1.00
C153   C     0.20994   0.56857   0.65126   0.00000  Uiso   1.00
C154   C     0.23750   0.57562   0.71457   0.00000  Uiso   1.00
C155   C     0.26769   0.52382   0.68855   0.00000  Uiso   1.00
C156   C     0.13990   0.56576   0.69450   0.00000  Uiso   1.00
C157   C     0.10858   0.57047   0.79417   0.00000  Uiso   1.00
C158   C     0.07980   0.51631   0.80456   0.00000  Uiso   1.00
C159   C     0.17699   0.65122   0.54170   0.00000  Uiso   1.00
C160   C     0.17685   0.72777   0.51289   0.00000  Uiso   1.00
C161   C     0.17929   0.74556   0.39463   0.00000  Uiso   1.00
H162   H     0.18110   0.47031   0.43948   0.00000  Uiso   1.00
H163   H     0.24451   0.41602   0.47214   0.00000  Uiso   1.00
H164   H     0.11560   0.41087   0.55172   0.00000  Uiso   1.00
H165   H     0.18386   0.56815   0.27048   0.00000  Uiso   1.00
H166   H     0.31370   0.38084   0.54641   0.00000  Uiso   1.00
H167   H     0.04188   0.37002   0.71419   0.00000  Uiso   1.00
H168   H     0.18582   0.70167   0.12115   0.00000  Uiso   1.00
H169   H     0.17262   0.66328   0.73257   0.00000  Uiso   1.00
H170   H     0.23556   0.61957   0.78131   0.00000  Uiso   1.00
H171   H     0.10665   0.61443   0.86090   0.00000  Uiso   1.00
H172   H     0.17491   0.77170   0.57966   0.00000  Uiso   1.00
H173   H     0.30644   0.54605   0.79735   0.00000  Uiso   1.00
H174   H     0.03462   0.53523   0.96513   0.00000  Uiso   1.00
H175   H     0.17856   0.86688   0.37209   0.00000  Uiso   1.00
O176   O     0.35162   0.43120   0.69869   0.00000  Uiso   1.00
O177   O     0.99501   0.41700   0.91879   0.00000  Uiso   1.00
O178   O     0.18385   0.85212   0.14074   0.00000  Uiso   1.00
N179   N     0.30336   0.42573   0.59876   0.00000  Uiso   1.00
N180   N     0.04923   0.41560   0.75564   0.00000  Uiso   1.00
N181   N     0.18379   0.72567   0.20120   0.00000  Uiso   1.00
N182   N     0.29945   0.51463   0.73379   0.00000  Uiso   1.00
N183   N     0.04532   0.50450   0.89067   0.00000  Uiso   1.00
N184   N     0.17988   0.81457   0.33623   0.00000  Uiso   1.00
C185   C     0.67916   0.98548   0.00662   0.00000  Uiso   1.00
C186   C     0.71243   0.98822   0.06500   0.00000  Uiso   1.00
C187   C     0.74259   0.04004   0.03888   0.00000  Uiso   1.00
C188   C     0.77019   0.03307   0.10215   0.00000  Uiso   1.00
C189   C     0.82223   0.04598   0.17971   0.00000  Uiso   1.00
C190   C     0.64240   0.99102   0.10825   0.00000  Uiso   1.00
C191   C     0.61366   0.04519   0.11848   0.00000  Uiso   1.00
C192   C     0.58230   0.04057   0.21815   0.00000  Uiso   1.00
C193   C     0.52560   0.05780   0.36282   0.00000  Uiso   1.00
C194   C     0.67949   0.90557   0.95545   0.00000  Uiso   1.00
C195   C     0.68193   0.88789   0.83720   0.00000  Uiso   1.00
C196   C     0.68179   0.81132   0.80822   0.00000  Uiso   1.00
C197   C     0.68267   0.69588   0.71564   0.00000  Uiso   1.00
C198   C     0.67456   0.88093   0.16542   0.00000  Uiso   1.00
C199   C     0.70994   0.93143   0.15126   0.00000  Uiso   1.00
C200   C     0.73750   0.92438   0.21457   0.00000  Uiso   1.00
C201   C     0.76769   0.97618   0.18855   0.00000  Uiso   1.00
C202   C     0.63990   0.93424   0.19450   0.00000  Uiso   1.00
C203   C     0.60858   0.92953   0.29417   0.00000  Uiso   1.00
C204   C     0.57980   0.98369   0.30456   0.00000  Uiso   1.00
C205   C     0.67699   0.84878   0.04170   0.00000  Uiso   1.00
C206   C     0.67685   0.77223   0.01289   0.00000  Uiso   1.00
C207   C     0.67929   0.75444   0.89463   0.00000  Uiso   1.00
H208   H     0.68110   0.02969   0.93948   0.00000  Uiso   1.00
H209   H     0.74451   0.08398   0.97214   0.00000  Uiso   1.00
H210   H     0.61560   0.08913   0.05172   0.00000  Uiso   1.00
H211   H     0.68386   0.93185   0.77048   0.00000  Uiso   1.00
H212   H     0.81370   0.11916   0.04641   0.00000  Uiso   1.00
H213   H     0.54188   0.12998   0.21419   0.00000  Uiso   1.00
H214   H     0.68582   0.79833   0.62115   0.00000  Uiso   1.00
H215   H     0.67262   0.83672   0.23257   0.00000  Uiso   1.00
H216   H     0.73556   0.88043   0.28131   0.00000  Uiso   1.00
H217   H     0.60665   0.88557   0.36090   0.00000  Uiso   1.00
H218   H     0.67491   0.72830   0.07966   0.00000  Uiso   1.00
H219   H     0.80644   0.95395   0.29735   0.00000  Uiso   1.00
H220   H     0.53462   0.96477   0.46513   0.00000  Uiso   1.00
H221   H     0.67856   0.63312   0.87209   0.00000  Uiso   1.00
O222   O     0.85162   0.06880   0.19869   0.00000  Uiso   1.00
O223   O     0.49501   0.08300   0.41879   0.00000  Uiso   1.00
O224   O     0.68385   0.64788   0.64074   0.00000  Uiso   1.00
N225   N     0.80336   0.07427   0.09876   0.00000  Uiso   1.00
N226   N     0.54923   0.08440   0.25564   0.00000  Uiso   1.00
N227   N     0.68379   0.77433   0.70120   0.00000  Uiso   1.00
N228   N     0.79945   0.98537   0.23379   0.00000  Uiso   1.00
N229   N     0.54532   0.99550   0.39067   0.00000  Uiso   1.00
N230   N     0.67988   0.68543   0.83623   0.00000  Uiso   1.00
C231   C     0.17916   0.48548   0.00662   0.00000  Uiso   1.00
C232   C     0.21243   0.48822   0.06500   0.00000  Uiso   1.00
C233   C     0.24259   0.54004   0.03888   0.00000  Uiso   1.00
C234   C     0.27019   0.53307   0.10215   0.00000  Uiso   1.00
C235   C     0.32223   0.54598   0.17971   0.00000  Uiso   1.00
C236   C     0.14240   0.49102   0.10825   0.00000  Uiso   1.00
C237   C     0.11366   0.54519   0.11848   0.00000  Uiso   1.00
C238   C     0.08230   0.54057   0.21815   0.00000  Uiso   1.00
C239   C     0.02560   0.55780   0.36282   0.00000  Uiso   1.00
C240   C     0.17949   0.40557   0.95545   0.00000  Uiso   1.00
C241   C     0.18193   0.38789   0.83720   0.00000  Uiso   1.00
C242   C     0.18179   0.31132   0.80822   0.00000  Uiso   1.00
C243   C     0.18267   0.19588   0.71564   0.00000  Uiso   1.00
C244   C     0.17456   0.38093   0.16542   0.00000  Uiso   1.00
C245   C     0.20994   0.43143   0.15126   0.00000  Uiso   1.00
C246   C     0.23750   0.42438   0.21457   0.00000  Uiso   1.00
C247   C     0.26769   0.47618   0.18855   0.00000  Uiso   1.00
C248   C     0.13990   0.43424   0.19450   0.00000  Uiso   1.00
C249   C     0.10858   0.42953   0.29417   0.00000  Uiso   1.00
C250   C     0.07980   0.48369   0.30456   0.00000  Uiso   1.00
C251   C     0.17699   0.34878   0.04170   0.00000  Uiso   1.00
C252   C     0.17685   0.27223   0.01289   0.00000  Uiso   1.00
C253   C     0.17929   0.25444   0.89463   0.00000  Uiso   1.00
H254   H     0.18110   0.52969   0.93948   0.00000  Uiso   1.00
H255   H     0.24451   0.58398   0.97214   0.00000  Uiso   1.00
H256   H     0.11560   0.58913   0.05172   0.00000  Uiso   1.00
H257   H     0.18386   0.43185   0.77048   0.00000  Uiso   1.00
H258   H     0.31370   0.61916   0.04641   0.00000  Uiso   1.00
H259   H     0.04188   0.62998   0.21419   0.00000  Uiso   1.00
H260   H     0.18582   0.29833   0.62115   0.00000  Uiso   1.00
H261   H     0.17262   0.33672   0.23257   0.00000  Uiso   1.00
H262   H     0.23556   0.38043   0.28131   0.00000  Uiso   1.00
H263   H     0.10665   0.38557   0.36090   0.00000  Uiso   1.00
H264   H     0.17491   0.22830   0.07966   0.00000  Uiso   1.00
H265   H     0.30644   0.45395   0.29735   0.00000  Uiso   1.00
H266   H     0.03462   0.46477   0.46513   0.00000  Uiso   1.00
H267   H     0.17856   0.13312   0.87209   0.00000  Uiso   1.00
O268   O     0.35162   0.56880   0.19869   0.00000  Uiso   1.00
O269   O     0.99501   0.58300   0.41879   0.00000  Uiso   1.00
O270   O     0.18385   0.14788   0.64074   0.00000  Uiso   1.00
N271   N     0.30336   0.57427   0.09876   0.00000  Uiso   1.00
N272   N     0.04923   0.58440   0.25564   0.00000  Uiso   1.00
N273   N     0.18379   0.27433   0.70120   0.00000  Uiso   1.00
N274   N     0.29945   0.48537   0.23379   0.00000  Uiso   1.00
N275   N     0.04532   0.49550   0.39067   0.00000  Uiso   1.00
N276   N     0.17988   0.18543   0.83623   0.00000  Uiso   1.00
C277   C     0.32084   0.98548   0.49338   0.00000  Uiso   1.00
C278   C     0.28757   0.98822   0.43500   0.00000  Uiso   1.00
C279   C     0.25741   0.04004   0.46112   0.00000  Uiso   1.00
C280   C     0.22981   0.03307   0.39785   0.00000  Uiso   1.00
C281   C     0.17777   0.04598   0.32029   0.00000  Uiso   1.00
C282   C     0.35760   0.99102   0.39175   0.00000  Uiso   1.00
C283   C     0.38634   0.04519   0.38152   0.00000  Uiso   1.00
C284   C     0.41770   0.04057   0.28185   0.00000  Uiso   1.00
C285   C     0.47440   0.05780   0.13718   0.00000  Uiso   1.00
C286   C     0.32051   0.90557   0.54455   0.00000  Uiso   1.00
C287   C     0.31807   0.88789   0.66280   0.00000  Uiso   1.00
C288   C     0.31821   0.81132   0.69178   0.00000  Uiso   1.00
C289   C     0.31733   0.69588   0.78436   0.00000  Uiso   1.00
C290   C     0.32544   0.88093   0.33458   0.00000  Uiso   1.00
C291   C     0.29006   0.93143   0.34874   0.00000  Uiso   1.00
C292   C     0.26250   0.92438   0.28543   0.00000  Uiso   1.00
C293   C     0.23231   0.97618   0.31145   0.00000  Uiso   1.00
C294   C     0.36010   0.93424   0.30550   0.00000  Uiso   1.00
C295   C     0.39142   0.92953   0.20583   0.00000  Uiso   1.00
C296   C     0.42020   0.98369   0.19544   0.00000  Uiso   1.00
C297   C     0.32301   0.84878   0.45830   0.00000  Uiso   1.00
C298   C     0.32315   0.77223   0.48711   0.00000  Uiso   1.00
C299   C     0.32071   0.75444   0.60537   0.00000  Uiso   1.00
H300   H     0.31890   0.02969   0.56052   0.00000  Uiso   1.00
H301   H     0.25549   0.08398   0.52786   0.00000  Uiso   1.00
H302   H     0.38440   0.08913   0.44828   0.00000  Uiso   1.00
H303   H     0.31614   0.93185   0.72952   0.00000  Uiso   1.00
H304   H     0.18630   0.11916   0.45359   0.00000  Uiso   1.00
H305   H     0.45812   0.12998   0.28581   0.00000  Uiso   1.00
H306   H     0.31418   0.79833   0.87885   0.00000  Uiso   1.00
H307   H     0.32738   0.83672   0.26743   0.00000  Uiso   1.00
H308   H     0.26444   0.88043   0.21869   0.00000  Uiso   1.00
H309   H     0.39335   0.88557   0.13910   0.00000  Uiso   1.00
H310   H     0.32509   0.72830   0.42034   0.00000  Uiso   1.00
H311   H     0.19356   0.95395   0.20265   0.00000  Uiso   1.00
H312   H     0.46538   0.96477   0.03487   0.00000  Uiso   1.00
H313   H     0.32144   0.63312   0.62791   0.00000  Uiso   1.00
O314   O     0.14838   0.06880   0.30131   0.00000  Uiso   1.00
O315   O     0.50499   0.08300   0.08121   0.00000  Uiso   1.00
O316   O     0.31615   0.64788   0.85926   0.00000  Uiso   1.00
N317   N     0.19664   0.07427   0.40124   0.00000  Uiso   1.00
N318   N     0.45077   0.08440   0.24436   0.00000  Uiso   1.00
N319   N     0.31621   0.77433   0.79880   0.00000  Uiso   1.00
N320   N     0.20055   0.98537   0.26621   0.00000  Uiso   1.00
N321   N     0.45468   0.99550   0.10933   0.00000  Uiso   1.00
N322   N     0.32012   0.68543   0.66377   0.00000  Uiso   1.00
C323   C     0.82084   0.48548   0.49338   0.00000  Uiso   1.00
C324   C     0.78757   0.48822   0.43500   0.00000  Uiso   1.00
C325   C     0.75741   0.54004   0.46112   0.00000  Uiso   1.00
C326   C     0.72981   0.53307   0.39785   0.00000  Uiso   1.00
C327   C     0.67777   0.54598   0.32029   0.00000  Uiso   1.00
C328   C     0.85760   0.49102   0.39175   0.00000  Uiso   1.00
C329   C     0.88634   0.54519   0.38152   0.00000  Uiso   1.00
C330   C     0.91770   0.54057   0.28185   0.00000  Uiso   1.00
C331   C     0.97440   0.55780   0.13718   0.00000  Uiso   1.00
C332   C     0.82051   0.40557   0.54455   0.00000  Uiso   1.00
C333   C     0.81807   0.38789   0.66280   0.00000  Uiso   1.00
C334   C     0.81821   0.31132   0.69178   0.00000  Uiso   1.00
C335   C     0.81733   0.19588   0.78436   0.00000  Uiso   1.00
C336   C     0.82544   0.38093   0.33458   0.00000  Uiso   1.00
C337   C     0.79006   0.43143   0.34874   0.00000  Uiso   1.00
C338   C     0.76250   0.42438   0.28543   0.00000  Uiso   1.00
C339   C     0.73231   0.47618   0.31145   0.00000  Uiso   1.00
C340   C     0.86010   0.43424   0.30550   0.00000  Uiso   1.00
C341   C     0.89142   0.42953   0.20583   0.00000  Uiso   1.00
C342   C     0.92020   0.48369   0.19544   0.00000  Uiso   1.00
C343   C     0.82301   0.34878   0.45830   0.00000  Uiso   1.00
C344   C     0.82315   0.27223   0.48711   0.00000  Uiso   1.00
C345   C     0.82071   0.25444   0.60537   0.00000  Uiso   1.00
H346   H     0.81890   0.52969   0.56052   0.00000  Uiso   1.00
H347   H     0.75549   0.58398   0.52786   0.00000  Uiso   1.00
H348   H     0.88440   0.58913   0.44828   0.00000  Uiso   1.00
H349   H     0.81614   0.43185   0.72952   0.00000  Uiso   1.00
H350   H     0.68630   0.61916   0.45359   0.00000  Uiso   1.00
H351   H     0.95812   0.62998   0.28581   0.00000  Uiso   1.00
H352   H     0.81418   0.29833   0.87885   0.00000  Uiso   1.00
H353   H     0.82738   0.33672   0.26743   0.00000  Uiso   1.00
H354   H     0.76444   0.38043   0.21869   0.00000  Uiso   1.00
H355   H     0.89335   0.38557   0.13910   0.00000  Uiso   1.00
H356   H     0.82509   0.22830   0.42034   0.00000  Uiso   1.00
H357   H     0.69356   0.45395   0.20265   0.00000  Uiso   1.00
H358   H     0.96538   0.46477   0.03487   0.00000  Uiso   1.00
H359   H     0.82144   0.13312   0.62791   0.00000  Uiso   1.00
O360   O     0.64838   0.56880   0.30131   0.00000  Uiso   1.00
O361   O     0.00499   0.58300   0.08121   0.00000  Uiso   1.00
O362   O     0.81615   0.14788   0.85926   0.00000  Uiso   1.00
N363   N     0.69664   0.57427   0.40124   0.00000  Uiso   1.00
N364   N     0.95077   0.58440   0.24436   0.00000  Uiso   1.00
N365   N     0.81621   0.27433   0.79880   0.00000  Uiso   1.00
N366   N     0.70055   0.48537   0.26621   0.00000  Uiso   1.00
N367   N     0.95468   0.49550   0.10933   0.00000  Uiso   1.00
N368   N     0.82012   0.18543   0.66377   0.00000  Uiso   1.00
