data_job_06113
_audit_creation_date              2018-12-19
_audit_creation_method            'Materials Studio'
_symmetry_space_group_name_H-M    'P1'
_symmetry_Int_Tables_number       1
_symmetry_cell_setting            triclinic
loop_
_symmetry_equiv_pos_as_xyz
  x,y,z
_cell_length_a                    8.5677
_cell_length_b                    21.8352
_cell_length_c                    22.8691
_cell_angle_alpha                 117.5227
_cell_angle_beta                  100.7577
_cell_angle_gamma                 91.2491
loop_
_atom_site_label
_atom_site_type_symbol
_atom_site_fract_x
_atom_site_fract_y
_atom_site_fract_z
_atom_site_U_iso_or_equiv
_atom_site_adp_type
_atom_site_occupancy
C1     C     0.33716   0.98879   0.33052   0.00000  Uiso   1.00
C2     C     0.31361   0.03000   0.29157   0.00000  Uiso   1.00
C3     C     0.41908   0.03887   0.25605   0.00000  Uiso   1.00
C4     C     0.37579   0.07841   0.22379   0.00000  Uiso   1.00
C5     C     0.36111   0.13793   0.16285   0.00000  Uiso   1.00
C6     C     0.32645   0.03915   0.40269   0.00000  Uiso   1.00
C7     C     0.44271   0.05572   0.46060   0.00000  Uiso   1.00
C8     C     0.41020   0.10295   0.52188   0.00000  Uiso   1.00
C9     C     0.41540   0.17664   0.63347   0.00000  Uiso   1.00
C10    C     0.19021   0.93452   0.30132   0.00000  Uiso   1.00
C11    C     0.19191   0.86311   0.27402   0.00000  Uiso   1.00
C12    C     0.04469   0.82225   0.24996   0.00000  Uiso   1.00
C13    C     0.83836   0.73348   0.20416   0.00000  Uiso   1.00
C14    C     0.07271   0.04321   0.33638   0.00000  Uiso   1.00
C15    C     0.16997   0.05956   0.29476   0.00000  Uiso   1.00
C16    C     0.12650   0.09909   0.26254   0.00000  Uiso   1.00
C17    C     0.23189   0.10802   0.22697   0.00000  Uiso   1.00
C18    C     0.18282   0.06871   0.40588   0.00000  Uiso   1.00
C19    C     0.15013   0.11593   0.46709   0.00000  Uiso   1.00
C20    C     0.26631   0.13257   0.52508   0.00000  Uiso   1.00
C21    C     0.04657   0.96408   0.30450   0.00000  Uiso   1.00
C22    C     0.89933   0.92333   0.28049   0.00000  Uiso   1.00
C23    C     0.90080   0.85187   0.25316   0.00000  Uiso   1.00
H24    H     0.44899   0.96577   0.32805   0.00000  Uiso   1.00
H25    H     0.53024   0.01599   0.25361   0.00000  Uiso   1.00
H26    H     0.55384   0.03282   0.45812   0.00000  Uiso   1.00
H27    H     0.30308   0.84025   0.27156   0.00000  Uiso   1.00
H28    H     0.55699   0.08473   0.17250   0.00000  Uiso   1.00
H29    H     0.60675   0.12020   0.60374   0.00000  Uiso   1.00
H30    H     0.07798   0.71412   0.21034   0.00000  Uiso   1.00
H31    H     0.96088   0.06623   0.33886   0.00000  Uiso   1.00
H32    H     0.01534   0.12196   0.26501   0.00000  Uiso   1.00
H33    H     0.03896   0.13879   0.46953   0.00000  Uiso   1.00
H34    H     0.78820   0.94622   0.28297   0.00000  Uiso   1.00
H35    H     0.13909   0.17074   0.18176   0.00000  Uiso   1.00
H36    H     0.18885   0.20621   0.61300   0.00000  Uiso   1.00
H37    H     0.66007   0.80013   0.21960   0.00000  Uiso   1.00
O38    O     0.39270   0.16260   0.12837   0.00000  Uiso   1.00
O39    O     0.45797   0.20913   0.69414   0.00000  Uiso   1.00
O40    O     0.76423   0.67636   0.17801   0.00000  Uiso   1.00
N41    N     0.45115   0.09731   0.18480   0.00000  Uiso   1.00
N42    N     0.49768   0.13048   0.58799   0.00000  Uiso   1.00
N43    N     0.00333   0.75083   0.22020   0.00000  Uiso   1.00
N44    N     0.22628   0.14359   0.18978   0.00000  Uiso   1.00
N45    N     0.27281   0.17676   0.59297   0.00000  Uiso   1.00
N46    N     0.77845   0.79711   0.22518   0.00000  Uiso   1.00
C47    C     0.00564   0.66975   0.66015   0.00000  Uiso   1.00
C48    C     0.05343   0.70816   0.73720   0.00000  Uiso   1.00
C49    C     0.19746   0.74955   0.77577   0.00000  Uiso   1.00
C50    C     0.21825   0.78018   0.84554   0.00000  Uiso   1.00
C51    C     0.31061   0.84138   0.96060   0.00000  Uiso   1.00
C52    C     0.96460   0.59334   0.64013   0.00000  Uiso   1.00
C53    C     0.03393   0.53818   0.59709   0.00000  Uiso   1.00
C54    C     0.97991   0.47214   0.58515   0.00000  Uiso   1.00
C55    C     0.93428   0.35507   0.54947   0.00000  Uiso   1.00
C56    C     0.84866   0.69458   0.64104   0.00000  Uiso   1.00
C57    C     0.82048   0.72453   0.59874   0.00000  Uiso   1.00
C58    C     0.66883   0.74372   0.58756   0.00000  Uiso   1.00
C59    C     0.44318   0.78384   0.55329   0.00000  Uiso   1.00
C60    C     0.78643   0.65054   0.71548   0.00000  Uiso   1.00
C61    C     0.93437   0.69773   0.76724   0.00000  Uiso   1.00
C62    C     0.95494   0.72830   0.83698   0.00000  Uiso   1.00
C63    C     0.09897   0.76973   0.87565   0.00000  Uiso   1.00
C64    C     0.84554   0.58290   0.67018   0.00000  Uiso   1.00
C65    C     0.79141   0.51693   0.65830   0.00000  Uiso   1.00
C66    C     0.86064   0.46169   0.61525   0.00000  Uiso   1.00
C67    C     0.72959   0.68415   0.67109   0.00000  Uiso   1.00
C68    C     0.57796   0.70329   0.65996   0.00000  Uiso   1.00
C69    C     0.54955   0.73327   0.61766   0.00000  Uiso   1.00
H70    H     0.09833   0.67786   0.63675   0.00000  Uiso   1.00
H71    H     0.28958   0.75760   0.75249   0.00000  Uiso   1.00
H72    H     0.12605   0.54627   0.57383   0.00000  Uiso   1.00
H73    H     0.91264   0.73260   0.57550   0.00000  Uiso   1.00
H74    H     0.44913   0.84139   0.89406   0.00000  Uiso   1.00
H75    H     0.10429   0.39577   0.51734   0.00000  Uiso   1.00
H76    H     0.65427   0.78868   0.52084   0.00000  Uiso   1.00
H77    H     0.69373   0.64242   0.73887   0.00000  Uiso   1.00
H78    H     0.86278   0.72022   0.86022   0.00000  Uiso   1.00
H79    H     0.69926   0.50888   0.68156   0.00000  Uiso   1.00
H80    H     0.48585   0.69521   0.68323   0.00000  Uiso   1.00
H81    H     0.10273   0.81104   0.98150   0.00000  Uiso   1.00
H82    H     0.75789   0.36542   0.60477   0.00000  Uiso   1.00
H83    H     0.30787   0.75833   0.60828   0.00000  Uiso   1.00
O84    O     0.39445   0.87802   0.01576   0.00000  Uiso   1.00
O85    O     0.94202   0.29338   0.52150   0.00000  Uiso   1.00
O86    O     0.35161   0.80887   0.52610   0.00000  Uiso   1.00
N87    N     0.34439   0.82358   0.89798   0.00000  Uiso   1.00
N88    N     0.02201   0.40696   0.54578   0.00000  Uiso   1.00
N89    N     0.60126   0.77427   0.54904   0.00000  Uiso   1.00
N90    N     0.15799   0.80725   0.94503   0.00000  Uiso   1.00
N91    N     0.83561   0.39063   0.59283   0.00000  Uiso   1.00
N92    N     0.41487   0.75795   0.59609   0.00000  Uiso   1.00
C93    C     0.00970   0.33737   0.00904   0.00000  Uiso   1.00
C94    C     0.01122   0.25881   0.97102   0.00000  Uiso   1.00
C95    C     0.14601   0.22441   0.96905   0.00000  Uiso   1.00
C96    C     0.12226   0.15234   0.93141   0.00000  Uiso   1.00
C97    C     0.14792   0.03588   0.87758   0.00000  Uiso   1.00
C98    C     0.92899   0.35795   0.95651   0.00000  Uiso   1.00
C99    C     0.99465   0.40692   0.94236   0.00000  Uiso   1.00
C100   C     0.90167   0.41831   0.89251   0.00000  Uiso   1.00
C101   C     0.79962   0.45580   0.81619   0.00000  Uiso   1.00
C102   C     0.89573   0.34955   0.05617   0.00000  Uiso   1.00
C103   C     0.93339   0.39148   0.12580   0.00000  Uiso   1.00
C104   C     0.81239   0.39581   0.15985   0.00000  Uiso   1.00
C105   C     0.65869   0.42027   0.23826   0.00000  Uiso   1.00
C106   C     0.72782   0.27054   0.94569   0.00000  Uiso   1.00
C107   C     0.85811   0.22251   0.93661   0.00000  Uiso   1.00
C108   C     0.83415   0.15047   0.89896   0.00000  Uiso   1.00
C109   C     0.96888   0.11598   0.89694   0.00000  Uiso   1.00
C110   C     0.77590   0.32165   0.92210   0.00000  Uiso   1.00
C111   C     0.68279   0.33298   0.87227   0.00000  Uiso   1.00
C112   C     0.74829   0.38194   0.85804   0.00000  Uiso   1.00
C113   C     0.74262   0.31325   0.02176   0.00000  Uiso   1.00
C114   C     0.62153   0.31753   0.05571   0.00000  Uiso   1.00
C115   C     0.65901   0.35945   0.12538   0.00000  Uiso   1.00
H116   H     0.12890   0.36563   0.03583   0.00000  Uiso   1.00
H117   H     0.26448   0.25252   0.99569   0.00000  Uiso   1.00
H118   H     0.11313   0.43500   0.96900   0.00000  Uiso   1.00
H119   H     0.05189   0.41956   0.15241   0.00000  Uiso   1.00
H120   H     0.34728   0.11112   0.93599   0.00000  Uiso   1.00
H121   H     0.02814   0.49590   0.87973   0.00000  Uiso   1.00
H122   H     0.89899   0.46334   0.26649   0.00000  Uiso   1.00
H123   H     0.60862   0.24228   0.91890   0.00000  Uiso   1.00
H124   H     0.71565   0.12240   0.87234   0.00000  Uiso   1.00
H125   H     0.56431   0.30488   0.84565   0.00000  Uiso   1.00
H126   H     0.50307   0.28943   0.02906   0.00000  Uiso   1.00
H127   H     0.90184   0.00550   0.83587   0.00000  Uiso   1.00
H128   H     0.58269   0.39029   0.77962   0.00000  Uiso   1.00
H129   H     0.45355   0.35772   0.16637   0.00000  Uiso   1.00
O130   O     0.20436   0.98168   0.85739   0.00000  Uiso   1.00
O131   O     0.78565   0.48651   0.78360   0.00000  Uiso   1.00
O132   O     0.61622   0.44377   0.29102   0.00000  Uiso   1.00
N133   N     0.22775   0.10271   0.91882   0.00000  Uiso   1.00
N134   N     0.92938   0.46245   0.86622   0.00000  Uiso   1.00
N135   N     0.80863   0.43202   0.22781   0.00000  Uiso   1.00
N136   N     0.98806   0.04588   0.86495   0.00000  Uiso   1.00
N137   N     0.68969   0.40562   0.81235   0.00000  Uiso   1.00
N138   N     0.56894   0.37519   0.17394   0.00000  Uiso   1.00
C139   C     0.66284   0.01121   0.66948   0.00000  Uiso   1.00
C140   C     0.68639   0.97000   0.70843   0.00000  Uiso   1.00
C141   C     0.58092   0.96113   0.74395   0.00000  Uiso   1.00
C142   C     0.62421   0.92159   0.77621   0.00000  Uiso   1.00
C143   C     0.63889   0.86207   0.83715   0.00000  Uiso   1.00
C144   C     0.67355   0.96085   0.59731   0.00000  Uiso   1.00
C145   C     0.55729   0.94428   0.53940   0.00000  Uiso   1.00
C146   C     0.58980   0.89705   0.47812   0.00000  Uiso   1.00
C147   C     0.58460   0.82336   0.36653   0.00000  Uiso   1.00
C148   C     0.80979   0.06548   0.69868   0.00000  Uiso   1.00
C149   C     0.80809   0.13689   0.72598   0.00000  Uiso   1.00
C150   C     0.95531   0.17775   0.75003   0.00000  Uiso   1.00
C151   C     0.16164   0.26651   0.79584   0.00000  Uiso   1.00
C152   C     0.92729   0.95679   0.66362   0.00000  Uiso   1.00
C153   C     0.83003   0.94044   0.70524   0.00000  Uiso   1.00
C154   C     0.87350   0.90091   0.73746   0.00000  Uiso   1.00
C155   C     0.76811   0.89198   0.77302   0.00000  Uiso   1.00
C156   C     0.81718   0.93129   0.59412   0.00000  Uiso   1.00
C157   C     0.84987   0.88407   0.53291   0.00000  Uiso   1.00
C158   C     0.73369   0.86743   0.47492   0.00000  Uiso   1.00
C159   C     0.95343   0.03592   0.69550   0.00000  Uiso   1.00
C160   C     0.10067   0.07667   0.71950   0.00000  Uiso   1.00
C161   C     0.09920   0.14813   0.74684   0.00000  Uiso   1.00
H162   H     0.55101   0.03422   0.67195   0.00000  Uiso   1.00
H163   H     0.46976   0.98401   0.74639   0.00000  Uiso   1.00
H164   H     0.44616   0.96717   0.54188   0.00000  Uiso   1.00
H165   H     0.69692   0.15975   0.72844   0.00000  Uiso   1.00
H166   H     0.44301   0.91527   0.82750   0.00000  Uiso   1.00
H167   H     0.39325   0.87980   0.39626   0.00000  Uiso   1.00
H168   H     0.92202   0.28588   0.78966   0.00000  Uiso   1.00
H169   H     0.03912   0.93377   0.66114   0.00000  Uiso   1.00
H170   H     0.98466   0.87804   0.73499   0.00000  Uiso   1.00
H171   H     0.96104   0.86121   0.53047   0.00000  Uiso   1.00
H172   H     0.21180   0.05378   0.71703   0.00000  Uiso   1.00
H173   H     0.86091   0.82926   0.81824   0.00000  Uiso   1.00
H174   H     0.81115   0.79379   0.38700   0.00000  Uiso   1.00
H175   H     0.33993   0.19987   0.78040   0.00000  Uiso   1.00
O176   O     0.60730   0.83740   0.87163   0.00000  Uiso   1.00
O177   O     0.54203   0.79087   0.30586   0.00000  Uiso   1.00
O178   O     0.23577   0.32364   0.82199   0.00000  Uiso   1.00
N179   N     0.54885   0.90269   0.81520   0.00000  Uiso   1.00
N180   N     0.50232   0.86952   0.41201   0.00000  Uiso   1.00
N181   N     0.99667   0.24917   0.77979   0.00000  Uiso   1.00
N182   N     0.77372   0.85641   0.81022   0.00000  Uiso   1.00
N183   N     0.72719   0.82323   0.40703   0.00000  Uiso   1.00
N184   N     0.22155   0.20289   0.77482   0.00000  Uiso   1.00
C185   C     0.99436   0.33025   0.33985   0.00000  Uiso   1.00
C186   C     0.94657   0.29184   0.26280   0.00000  Uiso   1.00
C187   C     0.80254   0.25045   0.22423   0.00000  Uiso   1.00
C188   C     0.78175   0.21982   0.15446   0.00000  Uiso   1.00
C189   C     0.68939   0.15862   0.03940   0.00000  Uiso   1.00
C190   C     0.03540   0.40666   0.35987   0.00000  Uiso   1.00
C191   C     0.96607   0.46182   0.40291   0.00000  Uiso   1.00
C192   C     0.02009   0.52786   0.41485   0.00000  Uiso   1.00
C193   C     0.06572   0.64493   0.45053   0.00000  Uiso   1.00
C194   C     0.15134   0.30542   0.35896   0.00000  Uiso   1.00
C195   C     0.17952   0.27547   0.40125   0.00000  Uiso   1.00
C196   C     0.33117   0.25628   0.41244   0.00000  Uiso   1.00
C197   C     0.55682   0.21616   0.44671   0.00000  Uiso   1.00
C198   C     0.21357   0.34946   0.28452   0.00000  Uiso   1.00
C199   C     0.06563   0.30227   0.23276   0.00000  Uiso   1.00
C200   C     0.04506   0.27170   0.16302   0.00000  Uiso   1.00
C201   C     0.90103   0.23027   0.12435   0.00000  Uiso   1.00
C202   C     0.15446   0.41710   0.32982   0.00000  Uiso   1.00
C203   C     0.20859   0.48307   0.34170   0.00000  Uiso   1.00
C204   C     0.13936   0.53831   0.38475   0.00000  Uiso   1.00
C205   C     0.27041   0.31585   0.32891   0.00000  Uiso   1.00
C206   C     0.42204   0.29671   0.34004   0.00000  Uiso   1.00
C207   C     0.45044   0.26673   0.38234   0.00000  Uiso   1.00
H208   H     0.90167   0.32213   0.36324   0.00000  Uiso   1.00
H209   H     0.71042   0.24239   0.24751   0.00000  Uiso   1.00
H210   H     0.87395   0.45373   0.42616   0.00000  Uiso   1.00
H211   H     0.08736   0.26740   0.42450   0.00000  Uiso   1.00
H212   H     0.55087   0.15861   0.10594   0.00000  Uiso   1.00
H213   H     0.89571   0.60423   0.48266   0.00000  Uiso   1.00
H214   H     0.34573   0.21132   0.47916   0.00000  Uiso   1.00
H215   H     0.30627   0.35758   0.26113   0.00000  Uiso   1.00
H216   H     0.13722   0.27978   0.13978   0.00000  Uiso   1.00
H217   H     0.30074   0.49112   0.31844   0.00000  Uiso   1.00
H218   H     0.51415   0.30479   0.31677   0.00000  Uiso   1.00
H219   H     0.89727   0.18895   0.01850   0.00000  Uiso   1.00
H220   H     0.24211   0.63458   0.39523   0.00000  Uiso   1.00
H221   H     0.69213   0.24167   0.39172   0.00000  Uiso   1.00
O222   O     0.60555   0.12198   0.98424   0.00000  Uiso   1.00
O223   O     0.05798   0.70662   0.47850   0.00000  Uiso   1.00
O224   O     0.64839   0.19113   0.47390   0.00000  Uiso   1.00
N225   N     0.65561   0.17642   0.10201   0.00000  Uiso   1.00
N226   N     0.97799   0.59304   0.45422   0.00000  Uiso   1.00
N227   N     0.39874   0.22573   0.45096   0.00000  Uiso   1.00
N228   N     0.84201   0.19274   0.05497   0.00000  Uiso   1.00
N229   N     0.16439   0.60937   0.40717   0.00000  Uiso   1.00
N230   N     0.58513   0.24205   0.40391   0.00000  Uiso   1.00
C231   C     0.99030   0.66263   0.99096   0.00000  Uiso   1.00
C232   C     0.98878   0.74119   0.02898   0.00000  Uiso   1.00
C233   C     0.85399   0.77559   0.03095   0.00000  Uiso   1.00
C234   C     0.87774   0.84766   0.06859   0.00000  Uiso   1.00
C235   C     0.85208   0.96412   0.12241   0.00000  Uiso   1.00
C236   C     0.07101   0.64205   0.04349   0.00000  Uiso   1.00
C237   C     0.00535   0.59308   0.05764   0.00000  Uiso   1.00
C238   C     0.09833   0.58169   0.10749   0.00000  Uiso   1.00
C239   C     0.20038   0.54420   0.18381   0.00000  Uiso   1.00
C240   C     0.10427   0.65045   0.94383   0.00000  Uiso   1.00
C241   C     0.06661   0.60852   0.87420   0.00000  Uiso   1.00
C242   C     0.18761   0.60419   0.84015   0.00000  Uiso   1.00
C243   C     0.34131   0.57973   0.76174   0.00000  Uiso   1.00
C244   C     0.27218   0.72946   0.05431   0.00000  Uiso   1.00
C245   C     0.14189   0.77749   0.06339   0.00000  Uiso   1.00
C246   C     0.16585   0.84953   0.10104   0.00000  Uiso   1.00
C247   C     0.03112   0.88402   0.10306   0.00000  Uiso   1.00
C248   C     0.22410   0.67835   0.07790   0.00000  Uiso   1.00
C249   C     0.31721   0.66702   0.12773   0.00000  Uiso   1.00
C250   C     0.25171   0.61806   0.14196   0.00000  Uiso   1.00
C251   C     0.25738   0.68675   0.97824   0.00000  Uiso   1.00
C252   C     0.37847   0.68247   0.94429   0.00000  Uiso   1.00
C253   C     0.34099   0.64055   0.87462   0.00000  Uiso   1.00
H254   H     0.87110   0.63437   0.96417   0.00000  Uiso   1.00
H255   H     0.73552   0.74747   0.00431   0.00000  Uiso   1.00
H256   H     0.88687   0.56500   0.03100   0.00000  Uiso   1.00
H257   H     0.94811   0.58044   0.84759   0.00000  Uiso   1.00
H258   H     0.65272   0.88888   0.06401   0.00000  Uiso   1.00
H259   H     0.97186   0.50410   0.12027   0.00000  Uiso   1.00
H260   H     0.10101   0.53666   0.73351   0.00000  Uiso   1.00
H261   H     0.39138   0.75772   0.08110   0.00000  Uiso   1.00
H262   H     0.28435   0.87760   0.12766   0.00000  Uiso   1.00
H263   H     0.43569   0.69512   0.15435   0.00000  Uiso   1.00
H264   H     0.49693   0.71057   0.97094   0.00000  Uiso   1.00
H265   H     0.09816   0.99450   0.16413   0.00000  Uiso   1.00
H266   H     0.41731   0.60971   0.22038   0.00000  Uiso   1.00
H267   H     0.54645   0.64228   0.83362   0.00000  Uiso   1.00
O268   O     0.79564   0.01832   0.14261   0.00000  Uiso   1.00
O269   O     0.21435   0.51349   0.21640   0.00000  Uiso   1.00
O270   O     0.38378   0.55622   0.70898   0.00000  Uiso   1.00
N271   N     0.77225   0.89729   0.08117   0.00000  Uiso   1.00
N272   N     0.07062   0.53755   0.13378   0.00000  Uiso   1.00
N273   N     0.19137   0.56798   0.77219   0.00000  Uiso   1.00
N274   N     0.01194   0.95412   0.13505   0.00000  Uiso   1.00
N275   N     0.31031   0.59438   0.18765   0.00000  Uiso   1.00
N276   N     0.43106   0.62481   0.82606   0.00000  Uiso   1.00
