data_job_03014
_audit_creation_date              2018-12-19
_audit_creation_method            'Materials Studio'
_symmetry_space_group_name_H-M    'P1'
_symmetry_Int_Tables_number       1
_symmetry_cell_setting            triclinic
loop_
_symmetry_equiv_pos_as_xyz
  x,y,z
_cell_length_a                    15.6132
_cell_length_b                    19.6952
_cell_length_c                    27.1090
_cell_angle_alpha                 90.0000
_cell_angle_beta                  90.0000
_cell_angle_gamma                 90.0000
loop_
_atom_site_label
_atom_site_type_symbol
_atom_site_fract_x
_atom_site_fract_y
_atom_site_fract_z
_atom_site_U_iso_or_equiv
_atom_site_adp_type
_atom_site_occupancy
C1     C     0.27997   0.12388   0.90613   0.00000  Uiso   1.00
C2     C     0.29628   0.04818   0.89900   0.00000  Uiso   1.00
C3     C     0.25751   0.99615   0.92533   0.00000  Uiso   1.00
C4     C     0.28109   0.93023   0.91328   0.00000  Uiso   1.00
C5     C     0.29729   0.81471   0.90786   0.00000  Uiso   1.00
C6     C     0.36710   0.15566   0.91676   0.00000  Uiso   1.00
C7     C     0.38787   0.19400   0.95801   0.00000  Uiso   1.00
C8     C     0.47107   0.21857   0.96090   0.00000  Uiso   1.00
C9     C     0.59721   0.26995   0.98304   0.00000  Uiso   1.00
C10    C     0.25248   0.15101   0.85588   0.00000  Uiso   1.00
C11    C     0.17688   0.18546   0.84594   0.00000  Uiso   1.00
C12    C     0.16358   0.20612   0.79758   0.00000  Uiso   1.00
C13    C     0.11175   0.25028   0.72519   0.00000  Uiso   1.00
C14    C     0.39079   0.09935   0.83791   0.00000  Uiso   1.00
C15    C     0.35647   0.03485   0.86195   0.00000  Uiso   1.00
C16    C     0.38012   0.96900   0.84985   0.00000  Uiso   1.00
C17    C     0.34139   0.91688   0.87615   0.00000  Uiso   1.00
C18    C     0.42730   0.14233   0.87970   0.00000  Uiso   1.00
C19    C     0.51048   0.16685   0.88253   0.00000  Uiso   1.00
C20    C     0.53138   0.20522   0.92378   0.00000  Uiso   1.00
C21    C     0.31267   0.13768   0.81882   0.00000  Uiso   1.00
C22    C     0.29949   0.15830   0.77046   0.00000  Uiso   1.00
C23    C     0.22389   0.19277   0.76046   0.00000  Uiso   1.00
H24    H     0.23311   0.13426   0.93498   0.00000  Uiso   1.00
H25    H     0.21093   0.00648   0.95400   0.00000  Uiso   1.00
H26    H     0.34127   0.20431   0.98668   0.00000  Uiso   1.00
H27    H     0.13031   0.19576   0.87463   0.00000  Uiso   1.00
H28    H     0.21291   0.85894   0.95877   0.00000  Uiso   1.00
H29    H     0.48774   0.27609   0.02766   0.00000  Uiso   1.00
H30    H     0.04289   0.25806   0.79137   0.00000  Uiso   1.00
H31    H     0.43766   0.08897   0.80906   0.00000  Uiso   1.00
H32    H     0.42670   0.95870   0.82117   0.00000  Uiso   1.00
H33    H     0.55705   0.15653   0.85385   0.00000  Uiso   1.00
H34    H     0.34609   0.14798   0.74180   0.00000  Uiso   1.00
H35    H     0.38804   0.82016   0.85096   0.00000  Uiso   1.00
H36    H     0.66287   0.23731   0.91985   0.00000  Uiso   1.00
H37    H     0.21802   0.21928   0.68357   0.00000  Uiso   1.00
O38    O     0.28960   0.75467   0.91512   0.00000  Uiso   1.00
O39    O     0.65016   0.30197   0.00549   0.00000  Uiso   1.00
O40    O     0.06652   0.27831   0.69550   0.00000  Uiso   1.00
N41    N     0.25562   0.86769   0.93173   0.00000  Uiso   1.00
N42    N     0.51257   0.25769   0.99614   0.00000  Uiso   1.00
N43    N     0.09668   0.24085   0.77523   0.00000  Uiso   1.00
N44    N     0.34986   0.84682   0.87372   0.00000  Uiso   1.00
N45    N     0.60681   0.23682   0.93813   0.00000  Uiso   1.00
N46    N     0.19092   0.21999   0.71722   0.00000  Uiso   1.00
C47    C     0.77997   0.62388   0.90613   0.00000  Uiso   1.00
C48    C     0.79628   0.54818   0.89900   0.00000  Uiso   1.00
C49    C     0.75751   0.49615   0.92533   0.00000  Uiso   1.00
C50    C     0.78109   0.43023   0.91328   0.00000  Uiso   1.00
C51    C     0.79729   0.31471   0.90786   0.00000  Uiso   1.00
C52    C     0.86710   0.65566   0.91676   0.00000  Uiso   1.00
C53    C     0.88787   0.69400   0.95801   0.00000  Uiso   1.00
C54    C     0.97107   0.71857   0.96090   0.00000  Uiso   1.00
C55    C     0.09721   0.76995   0.98304   0.00000  Uiso   1.00
C56    C     0.75248   0.65101   0.85588   0.00000  Uiso   1.00
C57    C     0.67688   0.68546   0.84594   0.00000  Uiso   1.00
C58    C     0.66358   0.70612   0.79758   0.00000  Uiso   1.00
C59    C     0.61175   0.75028   0.72519   0.00000  Uiso   1.00
C60    C     0.89079   0.59935   0.83791   0.00000  Uiso   1.00
C61    C     0.85647   0.53485   0.86195   0.00000  Uiso   1.00
C62    C     0.88012   0.46900   0.84985   0.00000  Uiso   1.00
C63    C     0.84139   0.41688   0.87615   0.00000  Uiso   1.00
C64    C     0.92730   0.64233   0.87970   0.00000  Uiso   1.00
C65    C     0.01048   0.66685   0.88253   0.00000  Uiso   1.00
C66    C     0.03138   0.70522   0.92378   0.00000  Uiso   1.00
C67    C     0.81267   0.63768   0.81882   0.00000  Uiso   1.00
C68    C     0.79949   0.65830   0.77046   0.00000  Uiso   1.00
C69    C     0.72389   0.69277   0.76046   0.00000  Uiso   1.00
H70    H     0.73311   0.63426   0.93498   0.00000  Uiso   1.00
H71    H     0.71093   0.50648   0.95400   0.00000  Uiso   1.00
H72    H     0.84127   0.70431   0.98668   0.00000  Uiso   1.00
H73    H     0.63031   0.69576   0.87463   0.00000  Uiso   1.00
H74    H     0.71291   0.35894   0.95877   0.00000  Uiso   1.00
H75    H     0.98774   0.77609   0.02766   0.00000  Uiso   1.00
H76    H     0.54289   0.75806   0.79137   0.00000  Uiso   1.00
H77    H     0.93766   0.58897   0.80906   0.00000  Uiso   1.00
H78    H     0.92670   0.45870   0.82117   0.00000  Uiso   1.00
H79    H     0.05705   0.65653   0.85385   0.00000  Uiso   1.00
H80    H     0.84609   0.64798   0.74180   0.00000  Uiso   1.00
H81    H     0.88804   0.32016   0.85096   0.00000  Uiso   1.00
H82    H     0.16287   0.73731   0.91985   0.00000  Uiso   1.00
H83    H     0.71802   0.71928   0.68357   0.00000  Uiso   1.00
O84    O     0.78960   0.25467   0.91512   0.00000  Uiso   1.00
O85    O     0.15016   0.80197   0.00549   0.00000  Uiso   1.00
O86    O     0.56652   0.77831   0.69550   0.00000  Uiso   1.00
N87    N     0.75562   0.36769   0.93173   0.00000  Uiso   1.00
N88    N     0.01257   0.75769   0.99614   0.00000  Uiso   1.00
N89    N     0.59668   0.74085   0.77523   0.00000  Uiso   1.00
N90    N     0.84986   0.34682   0.87372   0.00000  Uiso   1.00
N91    N     0.10681   0.73682   0.93813   0.00000  Uiso   1.00
N92    N     0.69092   0.71999   0.71722   0.00000  Uiso   1.00
C93    C     0.72003   0.87612   0.40613   0.00000  Uiso   1.00
C94    C     0.70372   0.95182   0.39900   0.00000  Uiso   1.00
C95    C     0.74249   0.00385   0.42533   0.00000  Uiso   1.00
C96    C     0.71891   0.06977   0.41328   0.00000  Uiso   1.00
C97    C     0.70271   0.18529   0.40786   0.00000  Uiso   1.00
C98    C     0.63290   0.84434   0.41676   0.00000  Uiso   1.00
C99    C     0.61213   0.80600   0.45801   0.00000  Uiso   1.00
C100   C     0.52893   0.78143   0.46090   0.00000  Uiso   1.00
C101   C     0.40279   0.73005   0.48304   0.00000  Uiso   1.00
C102   C     0.74752   0.84899   0.35588   0.00000  Uiso   1.00
C103   C     0.82312   0.81454   0.34594   0.00000  Uiso   1.00
C104   C     0.83642   0.79388   0.29758   0.00000  Uiso   1.00
C105   C     0.88825   0.74972   0.22519   0.00000  Uiso   1.00
C106   C     0.60921   0.90065   0.33791   0.00000  Uiso   1.00
C107   C     0.64353   0.96515   0.36195   0.00000  Uiso   1.00
C108   C     0.61988   0.03100   0.34985   0.00000  Uiso   1.00
C109   C     0.65861   0.08312   0.37615   0.00000  Uiso   1.00
C110   C     0.57270   0.85767   0.37970   0.00000  Uiso   1.00
C111   C     0.48952   0.83315   0.38253   0.00000  Uiso   1.00
C112   C     0.46862   0.79478   0.42378   0.00000  Uiso   1.00
C113   C     0.68733   0.86232   0.31882   0.00000  Uiso   1.00
C114   C     0.70051   0.84170   0.27046   0.00000  Uiso   1.00
C115   C     0.77611   0.80723   0.26046   0.00000  Uiso   1.00
H116   H     0.76689   0.86574   0.43498   0.00000  Uiso   1.00
H117   H     0.78907   0.99352   0.45400   0.00000  Uiso   1.00
H118   H     0.65873   0.79569   0.48668   0.00000  Uiso   1.00
H119   H     0.86969   0.80424   0.37463   0.00000  Uiso   1.00
H120   H     0.78709   0.14106   0.45877   0.00000  Uiso   1.00
H121   H     0.51226   0.72391   0.52766   0.00000  Uiso   1.00
H122   H     0.95711   0.74194   0.29137   0.00000  Uiso   1.00
H123   H     0.56234   0.91103   0.30906   0.00000  Uiso   1.00
H124   H     0.57330   0.04130   0.32117   0.00000  Uiso   1.00
H125   H     0.44295   0.84347   0.35385   0.00000  Uiso   1.00
H126   H     0.65391   0.85202   0.24180   0.00000  Uiso   1.00
H127   H     0.61196   0.17984   0.35096   0.00000  Uiso   1.00
H128   H     0.33713   0.76269   0.41985   0.00000  Uiso   1.00
H129   H     0.78198   0.78072   0.18357   0.00000  Uiso   1.00
O130   O     0.71040   0.24533   0.41512   0.00000  Uiso   1.00
O131   O     0.34984   0.69803   0.50549   0.00000  Uiso   1.00
O132   O     0.93348   0.72169   0.19550   0.00000  Uiso   1.00
N133   N     0.74438   0.13231   0.43173   0.00000  Uiso   1.00
N134   N     0.48743   0.74231   0.49614   0.00000  Uiso   1.00
N135   N     0.90332   0.75915   0.27523   0.00000  Uiso   1.00
N136   N     0.65014   0.15318   0.37372   0.00000  Uiso   1.00
N137   N     0.39319   0.76318   0.43813   0.00000  Uiso   1.00
N138   N     0.80908   0.78001   0.21722   0.00000  Uiso   1.00
C139   C     0.22003   0.37612   0.40613   0.00000  Uiso   1.00
C140   C     0.20372   0.45182   0.39900   0.00000  Uiso   1.00
C141   C     0.24249   0.50385   0.42533   0.00000  Uiso   1.00
C142   C     0.21891   0.56977   0.41328   0.00000  Uiso   1.00
C143   C     0.20271   0.68529   0.40786   0.00000  Uiso   1.00
C144   C     0.13290   0.34434   0.41676   0.00000  Uiso   1.00
C145   C     0.11213   0.30600   0.45801   0.00000  Uiso   1.00
C146   C     0.02893   0.28143   0.46090   0.00000  Uiso   1.00
C147   C     0.90279   0.23005   0.48304   0.00000  Uiso   1.00
C148   C     0.24752   0.34899   0.35588   0.00000  Uiso   1.00
C149   C     0.32312   0.31454   0.34594   0.00000  Uiso   1.00
C150   C     0.33642   0.29388   0.29758   0.00000  Uiso   1.00
C151   C     0.38825   0.24972   0.22519   0.00000  Uiso   1.00
C152   C     0.10921   0.40065   0.33791   0.00000  Uiso   1.00
C153   C     0.14353   0.46515   0.36195   0.00000  Uiso   1.00
C154   C     0.11988   0.53100   0.34985   0.00000  Uiso   1.00
C155   C     0.15861   0.58312   0.37615   0.00000  Uiso   1.00
C156   C     0.07270   0.35767   0.37970   0.00000  Uiso   1.00
C157   C     0.98952   0.33315   0.38253   0.00000  Uiso   1.00
C158   C     0.96862   0.29478   0.42378   0.00000  Uiso   1.00
C159   C     0.18733   0.36232   0.31882   0.00000  Uiso   1.00
C160   C     0.20051   0.34170   0.27046   0.00000  Uiso   1.00
C161   C     0.27611   0.30723   0.26046   0.00000  Uiso   1.00
H162   H     0.26689   0.36574   0.43498   0.00000  Uiso   1.00
H163   H     0.28907   0.49352   0.45400   0.00000  Uiso   1.00
H164   H     0.15873   0.29569   0.48668   0.00000  Uiso   1.00
H165   H     0.36969   0.30424   0.37463   0.00000  Uiso   1.00
H166   H     0.28709   0.64106   0.45877   0.00000  Uiso   1.00
H167   H     0.01226   0.22391   0.52766   0.00000  Uiso   1.00
H168   H     0.45711   0.24194   0.29137   0.00000  Uiso   1.00
H169   H     0.06234   0.41103   0.30906   0.00000  Uiso   1.00
H170   H     0.07330   0.54130   0.32117   0.00000  Uiso   1.00
H171   H     0.94295   0.34347   0.35385   0.00000  Uiso   1.00
H172   H     0.15391   0.35202   0.24180   0.00000  Uiso   1.00
H173   H     0.11196   0.67984   0.35096   0.00000  Uiso   1.00
H174   H     0.83713   0.26269   0.41985   0.00000  Uiso   1.00
H175   H     0.28198   0.28072   0.18357   0.00000  Uiso   1.00
O176   O     0.21040   0.74533   0.41512   0.00000  Uiso   1.00
O177   O     0.84984   0.19803   0.50549   0.00000  Uiso   1.00
O178   O     0.43348   0.22169   0.19550   0.00000  Uiso   1.00
N179   N     0.24438   0.63231   0.43173   0.00000  Uiso   1.00
N180   N     0.98743   0.24231   0.49614   0.00000  Uiso   1.00
N181   N     0.40332   0.25915   0.27523   0.00000  Uiso   1.00
N182   N     0.15014   0.65318   0.37372   0.00000  Uiso   1.00
N183   N     0.89319   0.26318   0.43813   0.00000  Uiso   1.00
N184   N     0.30908   0.28001   0.21722   0.00000  Uiso   1.00
C185   C     0.72003   0.12388   0.59387   0.00000  Uiso   1.00
C186   C     0.70372   0.04818   0.60100   0.00000  Uiso   1.00
C187   C     0.74249   0.99615   0.57467   0.00000  Uiso   1.00
C188   C     0.71891   0.93023   0.58672   0.00000  Uiso   1.00
C189   C     0.70271   0.81471   0.59214   0.00000  Uiso   1.00
C190   C     0.63290   0.15566   0.58324   0.00000  Uiso   1.00
C191   C     0.61213   0.19400   0.54199   0.00000  Uiso   1.00
C192   C     0.52893   0.21857   0.53910   0.00000  Uiso   1.00
C193   C     0.40279   0.26995   0.51696   0.00000  Uiso   1.00
C194   C     0.74752   0.15101   0.64412   0.00000  Uiso   1.00
C195   C     0.82312   0.18546   0.65406   0.00000  Uiso   1.00
C196   C     0.83642   0.20612   0.70242   0.00000  Uiso   1.00
C197   C     0.88825   0.25028   0.77481   0.00000  Uiso   1.00
C198   C     0.60921   0.09935   0.66209   0.00000  Uiso   1.00
C199   C     0.64353   0.03485   0.63805   0.00000  Uiso   1.00
C200   C     0.61988   0.96900   0.65015   0.00000  Uiso   1.00
C201   C     0.65861   0.91688   0.62385   0.00000  Uiso   1.00
C202   C     0.57270   0.14233   0.62030   0.00000  Uiso   1.00
C203   C     0.48952   0.16685   0.61747   0.00000  Uiso   1.00
C204   C     0.46862   0.20522   0.57622   0.00000  Uiso   1.00
C205   C     0.68733   0.13768   0.68118   0.00000  Uiso   1.00
C206   C     0.70051   0.15830   0.72954   0.00000  Uiso   1.00
C207   C     0.77611   0.19277   0.73954   0.00000  Uiso   1.00
H208   H     0.76689   0.13426   0.56502   0.00000  Uiso   1.00
H209   H     0.78907   0.00648   0.54600   0.00000  Uiso   1.00
H210   H     0.65873   0.20431   0.51332   0.00000  Uiso   1.00
H211   H     0.86969   0.19576   0.62537   0.00000  Uiso   1.00
H212   H     0.78709   0.85894   0.54123   0.00000  Uiso   1.00
H213   H     0.51226   0.27609   0.47234   0.00000  Uiso   1.00
H214   H     0.95711   0.25806   0.70863   0.00000  Uiso   1.00
H215   H     0.56234   0.08897   0.69094   0.00000  Uiso   1.00
H216   H     0.57330   0.95870   0.67883   0.00000  Uiso   1.00
H217   H     0.44295   0.15653   0.64615   0.00000  Uiso   1.00
H218   H     0.65391   0.14798   0.75820   0.00000  Uiso   1.00
H219   H     0.61196   0.82016   0.64904   0.00000  Uiso   1.00
H220   H     0.33713   0.23731   0.58015   0.00000  Uiso   1.00
H221   H     0.78198   0.21928   0.81643   0.00000  Uiso   1.00
O222   O     0.71040   0.75467   0.58488   0.00000  Uiso   1.00
O223   O     0.34984   0.30197   0.49451   0.00000  Uiso   1.00
O224   O     0.93348   0.27831   0.80450   0.00000  Uiso   1.00
N225   N     0.74438   0.86769   0.56827   0.00000  Uiso   1.00
N226   N     0.48743   0.25769   0.50386   0.00000  Uiso   1.00
N227   N     0.90332   0.24085   0.72477   0.00000  Uiso   1.00
N228   N     0.65014   0.84682   0.62628   0.00000  Uiso   1.00
N229   N     0.39319   0.23682   0.56187   0.00000  Uiso   1.00
N230   N     0.80908   0.21999   0.78278   0.00000  Uiso   1.00
C231   C     0.22003   0.62388   0.59387   0.00000  Uiso   1.00
C232   C     0.20372   0.54818   0.60100   0.00000  Uiso   1.00
C233   C     0.24249   0.49615   0.57467   0.00000  Uiso   1.00
C234   C     0.21891   0.43023   0.58672   0.00000  Uiso   1.00
C235   C     0.20271   0.31471   0.59214   0.00000  Uiso   1.00
C236   C     0.13290   0.65566   0.58324   0.00000  Uiso   1.00
C237   C     0.11213   0.69400   0.54199   0.00000  Uiso   1.00
C238   C     0.02893   0.71857   0.53910   0.00000  Uiso   1.00
C239   C     0.90279   0.76995   0.51696   0.00000  Uiso   1.00
C240   C     0.24752   0.65101   0.64412   0.00000  Uiso   1.00
C241   C     0.32312   0.68546   0.65406   0.00000  Uiso   1.00
C242   C     0.33642   0.70612   0.70242   0.00000  Uiso   1.00
C243   C     0.38825   0.75028   0.77481   0.00000  Uiso   1.00
C244   C     0.10921   0.59935   0.66209   0.00000  Uiso   1.00
C245   C     0.14353   0.53485   0.63805   0.00000  Uiso   1.00
C246   C     0.11988   0.46900   0.65015   0.00000  Uiso   1.00
C247   C     0.15861   0.41688   0.62385   0.00000  Uiso   1.00
C248   C     0.07270   0.64233   0.62030   0.00000  Uiso   1.00
C249   C     0.98952   0.66685   0.61747   0.00000  Uiso   1.00
C250   C     0.96862   0.70522   0.57622   0.00000  Uiso   1.00
C251   C     0.18733   0.63768   0.68118   0.00000  Uiso   1.00
C252   C     0.20051   0.65830   0.72954   0.00000  Uiso   1.00
C253   C     0.27611   0.69277   0.73954   0.00000  Uiso   1.00
H254   H     0.26689   0.63426   0.56502   0.00000  Uiso   1.00
H255   H     0.28907   0.50648   0.54600   0.00000  Uiso   1.00
H256   H     0.15873   0.70431   0.51332   0.00000  Uiso   1.00
H257   H     0.36969   0.69576   0.62537   0.00000  Uiso   1.00
H258   H     0.28709   0.35894   0.54123   0.00000  Uiso   1.00
H259   H     0.01226   0.77609   0.47234   0.00000  Uiso   1.00
H260   H     0.45711   0.75806   0.70863   0.00000  Uiso   1.00
H261   H     0.06234   0.58897   0.69094   0.00000  Uiso   1.00
H262   H     0.07330   0.45870   0.67883   0.00000  Uiso   1.00
H263   H     0.94295   0.65653   0.64615   0.00000  Uiso   1.00
H264   H     0.15391   0.64798   0.75820   0.00000  Uiso   1.00
H265   H     0.11196   0.32016   0.64904   0.00000  Uiso   1.00
H266   H     0.83713   0.73731   0.58015   0.00000  Uiso   1.00
H267   H     0.28198   0.71928   0.81643   0.00000  Uiso   1.00
O268   O     0.21040   0.25467   0.58488   0.00000  Uiso   1.00
O269   O     0.84984   0.80197   0.49451   0.00000  Uiso   1.00
O270   O     0.43348   0.77831   0.80450   0.00000  Uiso   1.00
N271   N     0.24438   0.36769   0.56827   0.00000  Uiso   1.00
N272   N     0.98743   0.75769   0.50386   0.00000  Uiso   1.00
N273   N     0.40332   0.74085   0.72477   0.00000  Uiso   1.00
N274   N     0.15014   0.34682   0.62628   0.00000  Uiso   1.00
N275   N     0.89319   0.73682   0.56187   0.00000  Uiso   1.00
N276   N     0.30908   0.71999   0.78278   0.00000  Uiso   1.00
C277   C     0.27997   0.87612   0.09387   0.00000  Uiso   1.00
C278   C     0.29628   0.95182   0.10100   0.00000  Uiso   1.00
C279   C     0.25751   0.00385   0.07467   0.00000  Uiso   1.00
C280   C     0.28109   0.06977   0.08672   0.00000  Uiso   1.00
C281   C     0.29729   0.18529   0.09214   0.00000  Uiso   1.00
C282   C     0.36710   0.84434   0.08324   0.00000  Uiso   1.00
C283   C     0.38787   0.80600   0.04199   0.00000  Uiso   1.00
C284   C     0.47107   0.78143   0.03910   0.00000  Uiso   1.00
C285   C     0.59721   0.73005   0.01696   0.00000  Uiso   1.00
C286   C     0.25248   0.84899   0.14412   0.00000  Uiso   1.00
C287   C     0.17688   0.81454   0.15406   0.00000  Uiso   1.00
C288   C     0.16358   0.79388   0.20242   0.00000  Uiso   1.00
C289   C     0.11175   0.74972   0.27481   0.00000  Uiso   1.00
C290   C     0.39079   0.90065   0.16209   0.00000  Uiso   1.00
C291   C     0.35647   0.96515   0.13805   0.00000  Uiso   1.00
C292   C     0.38012   0.03100   0.15015   0.00000  Uiso   1.00
C293   C     0.34139   0.08312   0.12385   0.00000  Uiso   1.00
C294   C     0.42730   0.85767   0.12030   0.00000  Uiso   1.00
C295   C     0.51048   0.83315   0.11747   0.00000  Uiso   1.00
C296   C     0.53138   0.79478   0.07622   0.00000  Uiso   1.00
C297   C     0.31267   0.86232   0.18118   0.00000  Uiso   1.00
C298   C     0.29949   0.84170   0.22954   0.00000  Uiso   1.00
C299   C     0.22389   0.80723   0.23954   0.00000  Uiso   1.00
H300   H     0.23311   0.86574   0.06502   0.00000  Uiso   1.00
H301   H     0.21093   0.99352   0.04600   0.00000  Uiso   1.00
H302   H     0.34127   0.79569   0.01332   0.00000  Uiso   1.00
H303   H     0.13031   0.80424   0.12537   0.00000  Uiso   1.00
H304   H     0.21291   0.14106   0.04123   0.00000  Uiso   1.00
H305   H     0.48774   0.72391   0.97234   0.00000  Uiso   1.00
H306   H     0.04289   0.74194   0.20863   0.00000  Uiso   1.00
H307   H     0.43766   0.91103   0.19094   0.00000  Uiso   1.00
H308   H     0.42670   0.04130   0.17883   0.00000  Uiso   1.00
H309   H     0.55705   0.84347   0.14615   0.00000  Uiso   1.00
H310   H     0.34609   0.85202   0.25820   0.00000  Uiso   1.00
H311   H     0.38804   0.17984   0.14904   0.00000  Uiso   1.00
H312   H     0.66287   0.76269   0.08015   0.00000  Uiso   1.00
H313   H     0.21802   0.78072   0.31643   0.00000  Uiso   1.00
O314   O     0.28960   0.24533   0.08488   0.00000  Uiso   1.00
O315   O     0.65016   0.69803   0.99451   0.00000  Uiso   1.00
O316   O     0.06652   0.72169   0.30450   0.00000  Uiso   1.00
N317   N     0.25562   0.13231   0.06827   0.00000  Uiso   1.00
N318   N     0.51257   0.74231   0.00386   0.00000  Uiso   1.00
N319   N     0.09668   0.75915   0.22477   0.00000  Uiso   1.00
N320   N     0.34986   0.15318   0.12628   0.00000  Uiso   1.00
N321   N     0.60681   0.76318   0.06187   0.00000  Uiso   1.00
N322   N     0.19092   0.78001   0.28278   0.00000  Uiso   1.00
C323   C     0.77997   0.37612   0.09387   0.00000  Uiso   1.00
C324   C     0.79628   0.45182   0.10100   0.00000  Uiso   1.00
C325   C     0.75751   0.50385   0.07467   0.00000  Uiso   1.00
C326   C     0.78109   0.56977   0.08672   0.00000  Uiso   1.00
C327   C     0.79729   0.68529   0.09214   0.00000  Uiso   1.00
C328   C     0.86710   0.34434   0.08324   0.00000  Uiso   1.00
C329   C     0.88787   0.30600   0.04199   0.00000  Uiso   1.00
C330   C     0.97107   0.28143   0.03910   0.00000  Uiso   1.00
C331   C     0.09721   0.23005   0.01696   0.00000  Uiso   1.00
C332   C     0.75248   0.34899   0.14412   0.00000  Uiso   1.00
C333   C     0.67688   0.31454   0.15406   0.00000  Uiso   1.00
C334   C     0.66358   0.29388   0.20242   0.00000  Uiso   1.00
C335   C     0.61175   0.24972   0.27481   0.00000  Uiso   1.00
C336   C     0.89079   0.40065   0.16209   0.00000  Uiso   1.00
C337   C     0.85647   0.46515   0.13805   0.00000  Uiso   1.00
C338   C     0.88012   0.53100   0.15015   0.00000  Uiso   1.00
C339   C     0.84139   0.58312   0.12385   0.00000  Uiso   1.00
C340   C     0.92730   0.35767   0.12030   0.00000  Uiso   1.00
C341   C     0.01048   0.33315   0.11747   0.00000  Uiso   1.00
C342   C     0.03138   0.29478   0.07622   0.00000  Uiso   1.00
C343   C     0.81267   0.36232   0.18118   0.00000  Uiso   1.00
C344   C     0.79949   0.34170   0.22954   0.00000  Uiso   1.00
C345   C     0.72389   0.30723   0.23954   0.00000  Uiso   1.00
H346   H     0.73311   0.36574   0.06502   0.00000  Uiso   1.00
H347   H     0.71093   0.49352   0.04600   0.00000  Uiso   1.00
H348   H     0.84127   0.29569   0.01332   0.00000  Uiso   1.00
H349   H     0.63031   0.30424   0.12537   0.00000  Uiso   1.00
H350   H     0.71291   0.64106   0.04123   0.00000  Uiso   1.00
H351   H     0.98774   0.22391   0.97234   0.00000  Uiso   1.00
H352   H     0.54289   0.24194   0.20863   0.00000  Uiso   1.00
H353   H     0.93766   0.41103   0.19094   0.00000  Uiso   1.00
H354   H     0.92670   0.54130   0.17883   0.00000  Uiso   1.00
H355   H     0.05705   0.34347   0.14615   0.00000  Uiso   1.00
H356   H     0.84609   0.35202   0.25820   0.00000  Uiso   1.00
H357   H     0.88804   0.67984   0.14904   0.00000  Uiso   1.00
H358   H     0.16287   0.26269   0.08015   0.00000  Uiso   1.00
H359   H     0.71802   0.28072   0.31643   0.00000  Uiso   1.00
O360   O     0.78960   0.74533   0.08488   0.00000  Uiso   1.00
O361   O     0.15016   0.19803   0.99451   0.00000  Uiso   1.00
O362   O     0.56652   0.22169   0.30450   0.00000  Uiso   1.00
N363   N     0.75562   0.63231   0.06827   0.00000  Uiso   1.00
N364   N     0.01257   0.24231   0.00386   0.00000  Uiso   1.00
N365   N     0.59668   0.25915   0.22477   0.00000  Uiso   1.00
N366   N     0.84986   0.65318   0.12628   0.00000  Uiso   1.00
N367   N     0.10681   0.26318   0.06187   0.00000  Uiso   1.00
N368   N     0.69092   0.28001   0.28278   0.00000  Uiso   1.00
