data_job_04697
_audit_creation_date              2018-12-19
_audit_creation_method            'Materials Studio'
_symmetry_space_group_name_H-M    'P1'
_symmetry_Int_Tables_number       1
_symmetry_cell_setting            triclinic
loop_
_symmetry_equiv_pos_as_xyz
  x,y,z
_cell_length_a                    17.1682
_cell_length_b                    7.9402
_cell_length_c                    16.2123
_cell_angle_alpha                 90.0000
_cell_angle_beta                  90.0000
_cell_angle_gamma                 90.0000
loop_
_atom_site_label
_atom_site_type_symbol
_atom_site_fract_x
_atom_site_fract_y
_atom_site_fract_z
_atom_site_U_iso_or_equiv
_atom_site_adp_type
_atom_site_occupancy
C1     C     0.19934   0.58668   0.99974   0.00000  Uiso   1.00
C2     C     0.17797   0.69258   0.07488   0.00000  Uiso   1.00
C3     C     0.12827   0.64395   0.13804   0.00000  Uiso   1.00
C4     C     0.11621   0.75892   0.20129   0.00000  Uiso   1.00
C5     C     0.07745   0.89937   0.31793   0.00000  Uiso   1.00
C6     C     0.17797   0.69257   0.92460   0.00000  Uiso   1.00
C7     C     0.12829   0.64392   0.86142   0.00000  Uiso   1.00
C8     C     0.11625   0.75888   0.79816   0.00000  Uiso   1.00
C9     C     0.07755   0.89926   0.68147   0.00000  Uiso   1.00
C10    C     0.28797   0.57408   0.99974   0.00000  Uiso   1.00
C11    C     0.33078   0.42581   0.99971   0.00000  Uiso   1.00
C12    C     0.41134   0.44102   0.99969   0.00000  Uiso   1.00
C13    C     0.54343   0.39744   0.99966   0.00000  Uiso   1.00
C14    C     0.26631   0.87733   0.99974   0.00000  Uiso   1.00
C15    C     0.21434   0.85045   0.07487   0.00000  Uiso   1.00
C16    C     0.20236   0.96552   0.13804   0.00000  Uiso   1.00
C17    C     0.15265   0.91707   0.20129   0.00000  Uiso   1.00
C18    C     0.21435   0.85043   0.92460   0.00000  Uiso   1.00
C19    C     0.20238   0.96548   0.86141   0.00000  Uiso   1.00
C20    C     0.15268   0.91703   0.79815   0.00000  Uiso   1.00
C21    C     0.32435   0.73195   0.99974   0.00000  Uiso   1.00
C22    C     0.40486   0.74739   0.99971   0.00000  Uiso   1.00
C23    C     0.44778   0.59917   0.99968   0.00000  Uiso   1.00
H24    H     0.17102   0.46378   0.99974   0.00000  Uiso   1.00
H25    H     0.10012   0.52177   0.13802   0.00000  Uiso   1.00
H26    H     0.10016   0.52174   0.86143   0.00000  Uiso   1.00
H27    H     0.30261   0.30367   0.99971   0.00000  Uiso   1.00
H28    H     0.03754   0.65572   0.29131   0.00000  Uiso   1.00
H29    H     0.03762   0.65562   0.70810   0.00000  Uiso   1.00
H30    H     0.46454   0.19578   0.99968   0.00000  Uiso   1.00
H31    H     0.29463   0.00024   0.99973   0.00000  Uiso   1.00
H32    H     0.23051   0.08767   0.13802   0.00000  Uiso   1.00
H33    H     0.23054   0.08764   0.86143   0.00000  Uiso   1.00
H34    H     0.43299   0.86957   0.99971   0.00000  Uiso   1.00
H35    H     0.14336   0.11503   0.29131   0.00000  Uiso   1.00
H36    H     0.14345   0.11492   0.70810   0.00000  Uiso   1.00
H37    H     0.57036   0.65509   0.99968   0.00000  Uiso   1.00
O38    O     0.04602   0.93323   0.38227   0.00000  Uiso   1.00
O39    O     0.04615   0.93308   0.61711   0.00000  Uiso   1.00
O40    O     0.60624   0.32979   0.99965   0.00000  Uiso   1.00
N41    N     0.07125   0.75180   0.27234   0.00000  Uiso   1.00
N42    N     0.07132   0.75172   0.72708   0.00000  Uiso   1.00
N43    N     0.47045   0.32181   0.99966   0.00000  Uiso   1.00
N44    N     0.12820   0.99895   0.27234   0.00000  Uiso   1.00
N45    N     0.12827   0.99887   0.72708   0.00000  Uiso   1.00
N46    N     0.52739   0.56896   0.99966   0.00000  Uiso   1.00
C47    C     0.30066   0.41332   0.49974   0.00000  Uiso   1.00
C48    C     0.32203   0.30742   0.57488   0.00000  Uiso   1.00
C49    C     0.37173   0.35605   0.63804   0.00000  Uiso   1.00
C50    C     0.38379   0.24108   0.70129   0.00000  Uiso   1.00
C51    C     0.42255   0.10063   0.81793   0.00000  Uiso   1.00
C52    C     0.32203   0.30743   0.42460   0.00000  Uiso   1.00
C53    C     0.37171   0.35608   0.36142   0.00000  Uiso   1.00
C54    C     0.38375   0.24112   0.29816   0.00000  Uiso   1.00
C55    C     0.42245   0.10074   0.18147   0.00000  Uiso   1.00
C56    C     0.21203   0.42592   0.49974   0.00000  Uiso   1.00
C57    C     0.16922   0.57419   0.49971   0.00000  Uiso   1.00
C58    C     0.08866   0.55898   0.49969   0.00000  Uiso   1.00
C59    C     0.95657   0.60256   0.49966   0.00000  Uiso   1.00
C60    C     0.23369   0.12267   0.49974   0.00000  Uiso   1.00
C61    C     0.28566   0.14955   0.57487   0.00000  Uiso   1.00
C62    C     0.29764   0.03448   0.63804   0.00000  Uiso   1.00
C63    C     0.34735   0.08293   0.70129   0.00000  Uiso   1.00
C64    C     0.28565   0.14957   0.42460   0.00000  Uiso   1.00
C65    C     0.29762   0.03452   0.36141   0.00000  Uiso   1.00
C66    C     0.34732   0.08297   0.29815   0.00000  Uiso   1.00
C67    C     0.17565   0.26805   0.49974   0.00000  Uiso   1.00
C68    C     0.09514   0.25261   0.49971   0.00000  Uiso   1.00
C69    C     0.05222   0.40083   0.49968   0.00000  Uiso   1.00
H70    H     0.32898   0.53622   0.49974   0.00000  Uiso   1.00
H71    H     0.39988   0.47823   0.63802   0.00000  Uiso   1.00
H72    H     0.39984   0.47826   0.36143   0.00000  Uiso   1.00
H73    H     0.19739   0.69633   0.49971   0.00000  Uiso   1.00
H74    H     0.46246   0.34428   0.79131   0.00000  Uiso   1.00
H75    H     0.46238   0.34438   0.20810   0.00000  Uiso   1.00
H76    H     0.03546   0.80422   0.49968   0.00000  Uiso   1.00
H77    H     0.20537   0.99976   0.49973   0.00000  Uiso   1.00
H78    H     0.26949   0.91233   0.63802   0.00000  Uiso   1.00
H79    H     0.26946   0.91236   0.36143   0.00000  Uiso   1.00
H80    H     0.06701   0.13043   0.49971   0.00000  Uiso   1.00
H81    H     0.35664   0.88497   0.79131   0.00000  Uiso   1.00
H82    H     0.35655   0.88508   0.20810   0.00000  Uiso   1.00
H83    H     0.92964   0.34491   0.49968   0.00000  Uiso   1.00
O84    O     0.45398   0.06677   0.88227   0.00000  Uiso   1.00
O85    O     0.45385   0.06692   0.11711   0.00000  Uiso   1.00
O86    O     0.89376   0.67021   0.49965   0.00000  Uiso   1.00
N87    N     0.42875   0.24820   0.77234   0.00000  Uiso   1.00
N88    N     0.42868   0.24828   0.22708   0.00000  Uiso   1.00
N89    N     0.02955   0.67819   0.49966   0.00000  Uiso   1.00
N90    N     0.37180   0.00105   0.77234   0.00000  Uiso   1.00
N91    N     0.37173   0.00113   0.22708   0.00000  Uiso   1.00
N92    N     0.97261   0.43104   0.49966   0.00000  Uiso   1.00
C93    C     0.80066   0.08668   0.50026   0.00000  Uiso   1.00
C94    C     0.82203   0.19258   0.42512   0.00000  Uiso   1.00
C95    C     0.87173   0.14395   0.36196   0.00000  Uiso   1.00
C96    C     0.88379   0.25892   0.29871   0.00000  Uiso   1.00
C97    C     0.92255   0.39937   0.18207   0.00000  Uiso   1.00
C98    C     0.82203   0.19257   0.57540   0.00000  Uiso   1.00
C99    C     0.87171   0.14392   0.63858   0.00000  Uiso   1.00
C100   C     0.88375   0.25888   0.70184   0.00000  Uiso   1.00
C101   C     0.92245   0.39926   0.81853   0.00000  Uiso   1.00
C102   C     0.71203   0.07408   0.50026   0.00000  Uiso   1.00
C103   C     0.66922   0.92581   0.50029   0.00000  Uiso   1.00
C104   C     0.58866   0.94102   0.50031   0.00000  Uiso   1.00
C105   C     0.45657   0.89744   0.50034   0.00000  Uiso   1.00
C106   C     0.73369   0.37733   0.50026   0.00000  Uiso   1.00
C107   C     0.78566   0.35045   0.42513   0.00000  Uiso   1.00
C108   C     0.79764   0.46552   0.36196   0.00000  Uiso   1.00
C109   C     0.84735   0.41707   0.29871   0.00000  Uiso   1.00
C110   C     0.78565   0.35043   0.57540   0.00000  Uiso   1.00
C111   C     0.79762   0.46548   0.63859   0.00000  Uiso   1.00
C112   C     0.84732   0.41703   0.70185   0.00000  Uiso   1.00
C113   C     0.67565   0.23195   0.50026   0.00000  Uiso   1.00
C114   C     0.59514   0.24739   0.50029   0.00000  Uiso   1.00
C115   C     0.55222   0.09917   0.50032   0.00000  Uiso   1.00
H116   H     0.82898   0.96378   0.50026   0.00000  Uiso   1.00
H117   H     0.89988   0.02177   0.36198   0.00000  Uiso   1.00
H118   H     0.89984   0.02174   0.63857   0.00000  Uiso   1.00
H119   H     0.69739   0.80367   0.50029   0.00000  Uiso   1.00
H120   H     0.96246   0.15572   0.20869   0.00000  Uiso   1.00
H121   H     0.96238   0.15562   0.79190   0.00000  Uiso   1.00
H122   H     0.53546   0.69578   0.50032   0.00000  Uiso   1.00
H123   H     0.70537   0.50024   0.50027   0.00000  Uiso   1.00
H124   H     0.76949   0.58767   0.36198   0.00000  Uiso   1.00
H125   H     0.76946   0.58764   0.63857   0.00000  Uiso   1.00
H126   H     0.56701   0.36957   0.50029   0.00000  Uiso   1.00
H127   H     0.85664   0.61503   0.20869   0.00000  Uiso   1.00
H128   H     0.85655   0.61492   0.79190   0.00000  Uiso   1.00
H129   H     0.42964   0.15509   0.50032   0.00000  Uiso   1.00
O130   O     0.95398   0.43323   0.11773   0.00000  Uiso   1.00
O131   O     0.95385   0.43308   0.88289   0.00000  Uiso   1.00
O132   O     0.39376   0.82979   0.50035   0.00000  Uiso   1.00
N133   N     0.92875   0.25180   0.22766   0.00000  Uiso   1.00
N134   N     0.92868   0.25172   0.77292   0.00000  Uiso   1.00
N135   N     0.52955   0.82181   0.50034   0.00000  Uiso   1.00
N136   N     0.87180   0.49895   0.22766   0.00000  Uiso   1.00
N137   N     0.87173   0.49887   0.77292   0.00000  Uiso   1.00
N138   N     0.47261   0.06896   0.50034   0.00000  Uiso   1.00
C139   C     0.69934   0.91332   0.00026   0.00000  Uiso   1.00
C140   C     0.67797   0.80742   0.92512   0.00000  Uiso   1.00
C141   C     0.62827   0.85605   0.86196   0.00000  Uiso   1.00
C142   C     0.61621   0.74108   0.79871   0.00000  Uiso   1.00
C143   C     0.57745   0.60063   0.68207   0.00000  Uiso   1.00
C144   C     0.67797   0.80743   0.07540   0.00000  Uiso   1.00
C145   C     0.62829   0.85608   0.13858   0.00000  Uiso   1.00
C146   C     0.61625   0.74112   0.20184   0.00000  Uiso   1.00
C147   C     0.57755   0.60074   0.31853   0.00000  Uiso   1.00
C148   C     0.78797   0.92592   0.00026   0.00000  Uiso   1.00
C149   C     0.83078   0.07419   0.00029   0.00000  Uiso   1.00
C150   C     0.91134   0.05898   0.00031   0.00000  Uiso   1.00
C151   C     0.04343   0.10256   0.00034   0.00000  Uiso   1.00
C152   C     0.76631   0.62267   0.00026   0.00000  Uiso   1.00
C153   C     0.71434   0.64955   0.92513   0.00000  Uiso   1.00
C154   C     0.70236   0.53448   0.86196   0.00000  Uiso   1.00
C155   C     0.65265   0.58293   0.79871   0.00000  Uiso   1.00
C156   C     0.71435   0.64957   0.07540   0.00000  Uiso   1.00
C157   C     0.70238   0.53452   0.13859   0.00000  Uiso   1.00
C158   C     0.65268   0.58297   0.20185   0.00000  Uiso   1.00
C159   C     0.82435   0.76805   0.00026   0.00000  Uiso   1.00
C160   C     0.90486   0.75261   0.00029   0.00000  Uiso   1.00
C161   C     0.94778   0.90083   0.00032   0.00000  Uiso   1.00
H162   H     0.67102   0.03622   0.00026   0.00000  Uiso   1.00
H163   H     0.60012   0.97823   0.86198   0.00000  Uiso   1.00
H164   H     0.60016   0.97826   0.13857   0.00000  Uiso   1.00
H165   H     0.80261   0.19633   0.00029   0.00000  Uiso   1.00
H166   H     0.53754   0.84428   0.70869   0.00000  Uiso   1.00
H167   H     0.53762   0.84438   0.29190   0.00000  Uiso   1.00
H168   H     0.96454   0.30422   0.00032   0.00000  Uiso   1.00
H169   H     0.79463   0.49976   0.00027   0.00000  Uiso   1.00
H170   H     0.73051   0.41233   0.86198   0.00000  Uiso   1.00
H171   H     0.73054   0.41236   0.13857   0.00000  Uiso   1.00
H172   H     0.93299   0.63043   0.00029   0.00000  Uiso   1.00
H173   H     0.64336   0.38497   0.70869   0.00000  Uiso   1.00
H174   H     0.64345   0.38508   0.29190   0.00000  Uiso   1.00
H175   H     0.07036   0.84491   0.00032   0.00000  Uiso   1.00
O176   O     0.54602   0.56677   0.61773   0.00000  Uiso   1.00
O177   O     0.54615   0.56692   0.38289   0.00000  Uiso   1.00
O178   O     0.10624   0.17021   0.00035   0.00000  Uiso   1.00
N179   N     0.57125   0.74820   0.72766   0.00000  Uiso   1.00
N180   N     0.57132   0.74828   0.27292   0.00000  Uiso   1.00
N181   N     0.97045   0.17819   0.00034   0.00000  Uiso   1.00
N182   N     0.62820   0.50105   0.72766   0.00000  Uiso   1.00
N183   N     0.62827   0.50113   0.27292   0.00000  Uiso   1.00
N184   N     0.02739   0.93104   0.00034   0.00000  Uiso   1.00
