data_job_03604
_audit_creation_date              2018-12-19
_audit_creation_method            'Materials Studio'
_symmetry_space_group_name_H-M    'P1'
_symmetry_Int_Tables_number       1
_symmetry_cell_setting            triclinic
loop_
_symmetry_equiv_pos_as_xyz
  x,y,z
_cell_length_a                    23.0056
_cell_length_b                    19.1958
_cell_length_c                    18.9713
_cell_angle_alpha                 90.0000
_cell_angle_beta                  153.9119
_cell_angle_gamma                 90.0000
loop_
_atom_site_label
_atom_site_type_symbol
_atom_site_fract_x
_atom_site_fract_y
_atom_site_fract_z
_atom_site_U_iso_or_equiv
_atom_site_adp_type
_atom_site_occupancy
C1     C     0.59564   0.68564   0.11917   0.00000  Uiso   1.00
C2     C     0.47089   0.69702   0.93969   0.00000  Uiso   1.00
C3     C     0.34224   0.69460   0.82482   0.00000  Uiso   1.00
C4     C     0.24167   0.70644   0.66696   0.00000  Uiso   1.00
C5     C     0.04383   0.72205   0.39456   0.00000  Uiso   1.00
C6     C     0.67983   0.75076   0.20071   0.00000  Uiso   1.00
C7     C     0.72686   0.79352   0.30532   0.00000  Uiso   1.00
C8     C     0.80220   0.85060   0.36720   0.00000  Uiso   1.00
C9     C     0.92882   0.94962   0.50014   0.00000  Uiso   1.00
C10    C     0.67059   0.62650   0.16499   0.00000  Uiso   1.00
C11    C     0.70988   0.56479   0.23961   0.00000  Uiso   1.00
C12    C     0.77746   0.51725   0.27145   0.00000  Uiso   1.00
C13    C     0.88973   0.42334   0.34892   0.00000  Uiso   1.00
C14    C     0.64583   0.71097   0.04308   0.00000  Uiso   1.00
C15    C     0.49816   0.71078   0.89836   0.00000  Uiso   1.00
C16    C     0.39776   0.72262   0.74063   0.00000  Uiso   1.00
C17    C     0.26898   0.72022   0.62555   0.00000  Uiso   1.00
C18    C     0.70709   0.76452   0.15938   0.00000  Uiso   1.00
C19    C     0.78239   0.82155   0.22113   0.00000  Uiso   1.00
C20    C     0.82951   0.86438   0.32580   0.00000  Uiso   1.00
C21    C     0.69785   0.64026   0.12365   0.00000  Uiso   1.00
C22    C     0.76540   0.59281   0.15541   0.00000  Uiso   1.00
C23    C     0.80478   0.53103   0.23005   0.00000  Uiso   1.00
H24    H     0.57442   0.67493   0.15136   0.00000  Uiso   1.00
H25    H     0.32118   0.68396   0.85686   0.00000  Uiso   1.00
H26    H     0.70576   0.78286   0.33730   0.00000  Uiso   1.00
H27    H     0.68877   0.55416   0.27158   0.00000  Uiso   1.00
H28    H     0.05244   0.70006   0.51213   0.00000  Uiso   1.00
H29    H     0.86338   0.90858   0.52520   0.00000  Uiso   1.00
H30    H     0.82756   0.42632   0.38663   0.00000  Uiso   1.00
H31    H     0.66705   0.72168   0.01091   0.00000  Uiso   1.00
H32    H     0.41889   0.73327   0.70868   0.00000  Uiso   1.00
H33    H     0.80347   0.83217   0.18913   0.00000  Uiso   1.00
H34    H     0.78648   0.60348   0.12341   0.00000  Uiso   1.00
H35    H     0.13174   0.74009   0.39186   0.00000  Uiso   1.00
H36    H     0.94269   0.94861   0.40495   0.00000  Uiso   1.00
H37    H     0.90686   0.46635   0.26636   0.00000  Uiso   1.00
O38    O     0.92717   0.72687   0.25573   0.00000  Uiso   1.00
O39    O     0.99112   0.00044   0.58486   0.00000  Uiso   1.00
O40    O     0.94410   0.36773   0.40305   0.00000  Uiso   1.00
N41    N     0.10516   0.70787   0.52529   0.00000  Uiso   1.00
N42    N     0.86333   0.90284   0.47244   0.00000  Uiso   1.00
N43    N     0.82986   0.45197   0.34292   0.00000  Uiso   1.00
N44    N     0.14783   0.72941   0.46058   0.00000  Uiso   1.00
N45    N     0.90600   0.92437   0.40772   0.00000  Uiso   1.00
N46    N     0.87253   0.47351   0.27821   0.00000  Uiso   1.00
C47    C     0.40436   0.68564   0.38083   0.00000  Uiso   1.00
C48    C     0.52911   0.69702   0.56031   0.00000  Uiso   1.00
C49    C     0.65776   0.69460   0.67518   0.00000  Uiso   1.00
C50    C     0.75833   0.70644   0.83304   0.00000  Uiso   1.00
C51    C     0.95617   0.72205   0.10544   0.00000  Uiso   1.00
C52    C     0.32017   0.75076   0.29929   0.00000  Uiso   1.00
C53    C     0.27314   0.79352   0.19468   0.00000  Uiso   1.00
C54    C     0.19780   0.85060   0.13280   0.00000  Uiso   1.00
C55    C     0.07118   0.94962   0.99986   0.00000  Uiso   1.00
C56    C     0.32941   0.62650   0.33501   0.00000  Uiso   1.00
C57    C     0.29012   0.56479   0.26039   0.00000  Uiso   1.00
C58    C     0.22254   0.51725   0.22855   0.00000  Uiso   1.00
C59    C     0.11027   0.42334   0.15108   0.00000  Uiso   1.00
C60    C     0.35417   0.71097   0.45692   0.00000  Uiso   1.00
C61    C     0.50184   0.71078   0.60164   0.00000  Uiso   1.00
C62    C     0.60224   0.72262   0.75937   0.00000  Uiso   1.00
C63    C     0.73102   0.72022   0.87445   0.00000  Uiso   1.00
C64    C     0.29291   0.76452   0.34062   0.00000  Uiso   1.00
C65    C     0.21761   0.82155   0.27887   0.00000  Uiso   1.00
C66    C     0.17049   0.86438   0.17420   0.00000  Uiso   1.00
C67    C     0.30215   0.64026   0.37635   0.00000  Uiso   1.00
C68    C     0.23460   0.59281   0.34459   0.00000  Uiso   1.00
C69    C     0.19522   0.53103   0.26995   0.00000  Uiso   1.00
H70    H     0.42558   0.67493   0.34864   0.00000  Uiso   1.00
H71    H     0.67882   0.68396   0.64314   0.00000  Uiso   1.00
H72    H     0.29424   0.78286   0.16270   0.00000  Uiso   1.00
H73    H     0.31123   0.55416   0.22842   0.00000  Uiso   1.00
H74    H     0.94756   0.70006   0.98787   0.00000  Uiso   1.00
H75    H     0.13662   0.90858   0.97480   0.00000  Uiso   1.00
H76    H     0.17244   0.42632   0.11337   0.00000  Uiso   1.00
H77    H     0.33295   0.72168   0.48909   0.00000  Uiso   1.00
H78    H     0.58111   0.73327   0.79132   0.00000  Uiso   1.00
H79    H     0.19653   0.83217   0.31087   0.00000  Uiso   1.00
H80    H     0.21352   0.60348   0.37659   0.00000  Uiso   1.00
H81    H     0.86826   0.74009   0.10814   0.00000  Uiso   1.00
H82    H     0.05731   0.94861   0.09505   0.00000  Uiso   1.00
H83    H     0.09314   0.46635   0.23364   0.00000  Uiso   1.00
O84    O     0.07283   0.72687   0.24427   0.00000  Uiso   1.00
O85    O     0.00888   0.00044   0.91514   0.00000  Uiso   1.00
O86    O     0.05590   0.36773   0.09695   0.00000  Uiso   1.00
N87    N     0.89484   0.70787   0.97471   0.00000  Uiso   1.00
N88    N     0.13667   0.90284   0.02756   0.00000  Uiso   1.00
N89    N     0.17014   0.45197   0.15708   0.00000  Uiso   1.00
N90    N     0.85217   0.72941   0.03942   0.00000  Uiso   1.00
N91    N     0.09400   0.92437   0.09228   0.00000  Uiso   1.00
N92    N     0.12747   0.47351   0.22179   0.00000  Uiso   1.00
C93    C     0.40436   0.31436   0.88083   0.00000  Uiso   1.00
C94    C     0.52911   0.30298   0.06031   0.00000  Uiso   1.00
C95    C     0.65776   0.30540   0.17518   0.00000  Uiso   1.00
C96    C     0.75833   0.29356   0.33304   0.00000  Uiso   1.00
C97    C     0.95617   0.27795   0.60544   0.00000  Uiso   1.00
C98    C     0.32017   0.24924   0.79929   0.00000  Uiso   1.00
C99    C     0.27314   0.20648   0.69468   0.00000  Uiso   1.00
C100   C     0.19780   0.14940   0.63280   0.00000  Uiso   1.00
C101   C     0.07118   0.05038   0.49986   0.00000  Uiso   1.00
C102   C     0.32941   0.37350   0.83501   0.00000  Uiso   1.00
C103   C     0.29012   0.43521   0.76039   0.00000  Uiso   1.00
C104   C     0.22254   0.48275   0.72855   0.00000  Uiso   1.00
C105   C     0.11027   0.57666   0.65108   0.00000  Uiso   1.00
C106   C     0.35417   0.28903   0.95692   0.00000  Uiso   1.00
C107   C     0.50184   0.28922   0.10164   0.00000  Uiso   1.00
C108   C     0.60224   0.27738   0.25937   0.00000  Uiso   1.00
C109   C     0.73102   0.27978   0.37445   0.00000  Uiso   1.00
C110   C     0.29291   0.23548   0.84062   0.00000  Uiso   1.00
C111   C     0.21761   0.17845   0.77887   0.00000  Uiso   1.00
C112   C     0.17049   0.13562   0.67420   0.00000  Uiso   1.00
C113   C     0.30215   0.35974   0.87635   0.00000  Uiso   1.00
C114   C     0.23460   0.40719   0.84459   0.00000  Uiso   1.00
C115   C     0.19522   0.46897   0.76995   0.00000  Uiso   1.00
H116   H     0.42558   0.32507   0.84864   0.00000  Uiso   1.00
H117   H     0.67882   0.31604   0.14314   0.00000  Uiso   1.00
H118   H     0.29424   0.21714   0.66270   0.00000  Uiso   1.00
H119   H     0.31123   0.44584   0.72842   0.00000  Uiso   1.00
H120   H     0.94756   0.29994   0.48787   0.00000  Uiso   1.00
H121   H     0.13662   0.09142   0.47480   0.00000  Uiso   1.00
H122   H     0.17244   0.57368   0.61337   0.00000  Uiso   1.00
H123   H     0.33295   0.27832   0.98909   0.00000  Uiso   1.00
H124   H     0.58111   0.26673   0.29132   0.00000  Uiso   1.00
H125   H     0.19653   0.16783   0.81087   0.00000  Uiso   1.00
H126   H     0.21352   0.39652   0.87659   0.00000  Uiso   1.00
H127   H     0.86826   0.25991   0.60814   0.00000  Uiso   1.00
H128   H     0.05731   0.05139   0.59505   0.00000  Uiso   1.00
H129   H     0.09314   0.53365   0.73364   0.00000  Uiso   1.00
O130   O     0.07283   0.27313   0.74427   0.00000  Uiso   1.00
O131   O     0.00888   0.99956   0.41514   0.00000  Uiso   1.00
O132   O     0.05590   0.63227   0.59695   0.00000  Uiso   1.00
N133   N     0.89484   0.29213   0.47471   0.00000  Uiso   1.00
N134   N     0.13667   0.09716   0.52756   0.00000  Uiso   1.00
N135   N     0.17014   0.54803   0.65708   0.00000  Uiso   1.00
N136   N     0.85217   0.27059   0.53942   0.00000  Uiso   1.00
N137   N     0.09400   0.07563   0.59228   0.00000  Uiso   1.00
N138   N     0.12747   0.52649   0.72179   0.00000  Uiso   1.00
C139   C     0.59564   0.31436   0.61917   0.00000  Uiso   1.00
C140   C     0.47089   0.30298   0.43969   0.00000  Uiso   1.00
C141   C     0.34224   0.30540   0.32482   0.00000  Uiso   1.00
C142   C     0.24167   0.29356   0.16696   0.00000  Uiso   1.00
C143   C     0.04383   0.27795   0.89456   0.00000  Uiso   1.00
C144   C     0.67983   0.24924   0.70071   0.00000  Uiso   1.00
C145   C     0.72686   0.20648   0.80532   0.00000  Uiso   1.00
C146   C     0.80220   0.14940   0.86720   0.00000  Uiso   1.00
C147   C     0.92882   0.05038   0.00014   0.00000  Uiso   1.00
C148   C     0.67059   0.37350   0.66499   0.00000  Uiso   1.00
C149   C     0.70988   0.43521   0.73961   0.00000  Uiso   1.00
C150   C     0.77746   0.48275   0.77145   0.00000  Uiso   1.00
C151   C     0.88973   0.57666   0.84892   0.00000  Uiso   1.00
C152   C     0.64583   0.28903   0.54308   0.00000  Uiso   1.00
C153   C     0.49816   0.28922   0.39836   0.00000  Uiso   1.00
C154   C     0.39776   0.27738   0.24063   0.00000  Uiso   1.00
C155   C     0.26898   0.27978   0.12555   0.00000  Uiso   1.00
C156   C     0.70709   0.23548   0.65938   0.00000  Uiso   1.00
C157   C     0.78239   0.17845   0.72113   0.00000  Uiso   1.00
C158   C     0.82951   0.13562   0.82580   0.00000  Uiso   1.00
C159   C     0.69785   0.35974   0.62365   0.00000  Uiso   1.00
C160   C     0.76540   0.40719   0.65541   0.00000  Uiso   1.00
C161   C     0.80478   0.46897   0.73005   0.00000  Uiso   1.00
H162   H     0.57442   0.32507   0.65136   0.00000  Uiso   1.00
H163   H     0.32118   0.31604   0.35686   0.00000  Uiso   1.00
H164   H     0.70576   0.21714   0.83730   0.00000  Uiso   1.00
H165   H     0.68877   0.44584   0.77158   0.00000  Uiso   1.00
H166   H     0.05244   0.29994   0.01213   0.00000  Uiso   1.00
H167   H     0.86338   0.09142   0.02520   0.00000  Uiso   1.00
H168   H     0.82756   0.57368   0.88663   0.00000  Uiso   1.00
H169   H     0.66705   0.27832   0.51091   0.00000  Uiso   1.00
H170   H     0.41889   0.26673   0.20868   0.00000  Uiso   1.00
H171   H     0.80347   0.16783   0.68913   0.00000  Uiso   1.00
H172   H     0.78648   0.39652   0.62341   0.00000  Uiso   1.00
H173   H     0.13174   0.25991   0.89186   0.00000  Uiso   1.00
H174   H     0.94269   0.05139   0.90495   0.00000  Uiso   1.00
H175   H     0.90686   0.53365   0.76636   0.00000  Uiso   1.00
O176   O     0.92717   0.27313   0.75573   0.00000  Uiso   1.00
O177   O     0.99112   0.99956   0.08486   0.00000  Uiso   1.00
O178   O     0.94410   0.63227   0.90305   0.00000  Uiso   1.00
N179   N     0.10516   0.29213   0.02529   0.00000  Uiso   1.00
N180   N     0.86333   0.09716   0.97244   0.00000  Uiso   1.00
N181   N     0.82986   0.54803   0.84292   0.00000  Uiso   1.00
N182   N     0.14783   0.27059   0.96058   0.00000  Uiso   1.00
N183   N     0.90600   0.07563   0.90772   0.00000  Uiso   1.00
N184   N     0.87253   0.52649   0.77821   0.00000  Uiso   1.00
