data_job_03150
_audit_creation_date              2018-12-19
_audit_creation_method            'Materials Studio'
_symmetry_space_group_name_H-M    'P1'
_symmetry_Int_Tables_number       1
_symmetry_cell_setting            triclinic
loop_
_symmetry_equiv_pos_as_xyz
  x,y,z
_cell_length_a                    29.8118
_cell_length_b                    29.8118
_cell_length_c                    7.4256
_cell_angle_alpha                 90.0000
_cell_angle_beta                  90.0000
_cell_angle_gamma                 120.0000
loop_
_atom_site_label
_atom_site_type_symbol
_atom_site_fract_x
_atom_site_fract_y
_atom_site_fract_z
_atom_site_U_iso_or_equiv
_atom_site_adp_type
_atom_site_occupancy
C1     C     0.05473   0.30766   0.16153   0.00000  Uiso   1.00
C2     C     0.01444   0.25575   0.08221   0.00000  Uiso   1.00
C3     C     0.98058   0.21210   0.17998   0.00000  Uiso   1.00
C4     C     0.94667   0.16840   0.08238   0.00000  Uiso   1.00
C5     C     0.88413   0.08779   0.98791   0.00000  Uiso   1.00
C6     C     0.10663   0.31928   0.08215   0.00000  Uiso   1.00
C7     C     0.15029   0.32906   0.17989   0.00000  Uiso   1.00
C8     C     0.19398   0.33885   0.08222   0.00000  Uiso   1.00
C9     C     0.27459   0.35692   0.98766   0.00000  Uiso   1.00
C10    C     0.04310   0.34794   0.08227   0.00000  Uiso   1.00
C11    C     0.03336   0.38183   0.18011   0.00000  Uiso   1.00
C12    C     0.02358   0.41576   0.08254   0.00000  Uiso   1.00
C13    C     0.00554   0.47832   0.98818   0.00000  Uiso   1.00
C14    C     0.05471   0.30767   0.81431   0.00000  Uiso   1.00
C15    C     0.01443   0.25576   0.89361   0.00000  Uiso   1.00
C16    C     0.98056   0.21211   0.79583   0.00000  Uiso   1.00
C17    C     0.94666   0.16840   0.89344   0.00000  Uiso   1.00
C18    C     0.10662   0.31929   0.89356   0.00000  Uiso   1.00
C19    C     0.15027   0.32907   0.79573   0.00000  Uiso   1.00
C20    C     0.19397   0.33886   0.89329   0.00000  Uiso   1.00
C21    C     0.04309   0.34795   0.89368   0.00000  Uiso   1.00
C22    C     0.03333   0.38184   0.79595   0.00000  Uiso   1.00
C23    C     0.02357   0.41576   0.89361   0.00000  Uiso   1.00
H24    H     0.05474   0.30765   0.30835   0.00000  Uiso   1.00
H25    H     0.98061   0.21211   0.32593   0.00000  Uiso   1.00
H26    H     0.15029   0.32905   0.32583   0.00000  Uiso   1.00
H27    H     0.03337   0.38181   0.32605   0.00000  Uiso   1.00
H28    H     0.89843   0.10617   0.26226   0.00000  Uiso   1.00
H29    H     0.25621   0.35278   0.26204   0.00000  Uiso   1.00
H30    H     0.00967   0.46403   0.26250   0.00000  Uiso   1.00
H31    H     0.05470   0.30768   0.66748   0.00000  Uiso   1.00
H32    H     0.98056   0.21213   0.64989   0.00000  Uiso   1.00
H33    H     0.15024   0.32908   0.64979   0.00000  Uiso   1.00
H34    H     0.03332   0.38183   0.65001   0.00000  Uiso   1.00
H35    H     0.89839   0.10619   0.71355   0.00000  Uiso   1.00
H36    H     0.25617   0.35280   0.71334   0.00000  Uiso   1.00
H37    H     0.00963   0.46405   0.71380   0.00000  Uiso   1.00
O38    O     0.84965   0.04332   0.98790   0.00000  Uiso   1.00
O39    O     0.31905   0.36687   0.98762   0.00000  Uiso   1.00
O40    O     0.99559   0.51283   0.98822   0.00000  Uiso   1.00
N41    N     0.90858   0.11929   0.13553   0.00000  Uiso   1.00
N42    N     0.24309   0.34985   0.13533   0.00000  Uiso   1.00
N43    N     0.01261   0.45387   0.13576   0.00000  Uiso   1.00
N44    N     0.90856   0.11930   0.84028   0.00000  Uiso   1.00
N45    N     0.24307   0.34986   0.84008   0.00000  Uiso   1.00
N46    N     0.01259   0.45388   0.84051   0.00000  Uiso   1.00
C47    C     0.69234   0.74707   0.16153   0.00000  Uiso   1.00
C48    C     0.74425   0.75869   0.08221   0.00000  Uiso   1.00
C49    C     0.78790   0.76849   0.17998   0.00000  Uiso   1.00
C50    C     0.83160   0.77828   0.08238   0.00000  Uiso   1.00
C51    C     0.91221   0.79635   0.98791   0.00000  Uiso   1.00
C52    C     0.68072   0.78735   0.08215   0.00000  Uiso   1.00
C53    C     0.67094   0.82123   0.17989   0.00000  Uiso   1.00
C54    C     0.66115   0.85514   0.08222   0.00000  Uiso   1.00
C55    C     0.64308   0.91767   0.98766   0.00000  Uiso   1.00
C56    C     0.65206   0.69516   0.08227   0.00000  Uiso   1.00
C57    C     0.61817   0.65153   0.18011   0.00000  Uiso   1.00
C58    C     0.58424   0.60782   0.08254   0.00000  Uiso   1.00
C59    C     0.52168   0.52722   0.98818   0.00000  Uiso   1.00
C60    C     0.69233   0.74704   0.81431   0.00000  Uiso   1.00
C61    C     0.74424   0.75868   0.89361   0.00000  Uiso   1.00
C62    C     0.78789   0.76845   0.79583   0.00000  Uiso   1.00
C63    C     0.83160   0.77825   0.89344   0.00000  Uiso   1.00
C64    C     0.68071   0.78733   0.89356   0.00000  Uiso   1.00
C65    C     0.67093   0.82119   0.79573   0.00000  Uiso   1.00
C66    C     0.66114   0.85512   0.89329   0.00000  Uiso   1.00
C67    C     0.65205   0.69514   0.89368   0.00000  Uiso   1.00
C68    C     0.61816   0.65149   0.79595   0.00000  Uiso   1.00
C69    C     0.58424   0.60780   0.89361   0.00000  Uiso   1.00
H70    H     0.69235   0.74709   0.30835   0.00000  Uiso   1.00
H71    H     0.78789   0.76850   0.32593   0.00000  Uiso   1.00
H72    H     0.67095   0.82123   0.32583   0.00000  Uiso   1.00
H73    H     0.61819   0.65156   0.32605   0.00000  Uiso   1.00
H74    H     0.89383   0.79225   0.26226   0.00000  Uiso   1.00
H75    H     0.64722   0.90343   0.26204   0.00000  Uiso   1.00
H76    H     0.53597   0.54563   0.26250   0.00000  Uiso   1.00
H77    H     0.69232   0.74703   0.66748   0.00000  Uiso   1.00
H78    H     0.78787   0.76843   0.64989   0.00000  Uiso   1.00
H79    H     0.67092   0.82116   0.64979   0.00000  Uiso   1.00
H80    H     0.61817   0.65149   0.65001   0.00000  Uiso   1.00
H81    H     0.89381   0.79220   0.71355   0.00000  Uiso   1.00
H82    H     0.64720   0.90337   0.71334   0.00000  Uiso   1.00
H83    H     0.53595   0.54558   0.71380   0.00000  Uiso   1.00
O84    O     0.95668   0.80633   0.98790   0.00000  Uiso   1.00
O85    O     0.63313   0.95217   0.98762   0.00000  Uiso   1.00
O86    O     0.48717   0.48276   0.98822   0.00000  Uiso   1.00
N87    N     0.88071   0.78929   0.13553   0.00000  Uiso   1.00
N88    N     0.65015   0.89324   0.13533   0.00000  Uiso   1.00
N89    N     0.54613   0.55874   0.13576   0.00000  Uiso   1.00
N90    N     0.88070   0.78926   0.84028   0.00000  Uiso   1.00
N91    N     0.65014   0.89321   0.84008   0.00000  Uiso   1.00
N92    N     0.54612   0.55871   0.84051   0.00000  Uiso   1.00
C93    C     0.25293   0.94527   0.16153   0.00000  Uiso   1.00
C94    C     0.24131   0.98556   0.08221   0.00000  Uiso   1.00
C95    C     0.23151   0.01942   0.17998   0.00000  Uiso   1.00
C96    C     0.22172   0.05333   0.08238   0.00000  Uiso   1.00
C97    C     0.20365   0.11587   0.98791   0.00000  Uiso   1.00
C98    C     0.21265   0.89337   0.08215   0.00000  Uiso   1.00
C99    C     0.17877   0.84971   0.17989   0.00000  Uiso   1.00
C100   C     0.14486   0.80602   0.08222   0.00000  Uiso   1.00
C101   C     0.08233   0.72541   0.98766   0.00000  Uiso   1.00
C102   C     0.30484   0.95690   0.08227   0.00000  Uiso   1.00
C103   C     0.34847   0.96664   0.18011   0.00000  Uiso   1.00
C104   C     0.39218   0.97642   0.08254   0.00000  Uiso   1.00
C105   C     0.47278   0.99446   0.98818   0.00000  Uiso   1.00
C106   C     0.25296   0.94529   0.81431   0.00000  Uiso   1.00
C107   C     0.24132   0.98557   0.89361   0.00000  Uiso   1.00
C108   C     0.23155   0.01944   0.79583   0.00000  Uiso   1.00
C109   C     0.22175   0.05334   0.89344   0.00000  Uiso   1.00
C110   C     0.21267   0.89338   0.89356   0.00000  Uiso   1.00
C111   C     0.17881   0.84973   0.79573   0.00000  Uiso   1.00
C112   C     0.14488   0.80603   0.89329   0.00000  Uiso   1.00
C113   C     0.30486   0.95691   0.89368   0.00000  Uiso   1.00
C114   C     0.34851   0.96667   0.79595   0.00000  Uiso   1.00
C115   C     0.39220   0.97643   0.89361   0.00000  Uiso   1.00
H116   H     0.25291   0.94526   0.30835   0.00000  Uiso   1.00
H117   H     0.23150   0.01939   0.32593   0.00000  Uiso   1.00
H118   H     0.17877   0.84971   0.32583   0.00000  Uiso   1.00
H119   H     0.34844   0.96663   0.32605   0.00000  Uiso   1.00
H120   H     0.20775   0.10157   0.26226   0.00000  Uiso   1.00
H121   H     0.09657   0.74379   0.26204   0.00000  Uiso   1.00
H122   H     0.45437   0.99033   0.26250   0.00000  Uiso   1.00
H123   H     0.25297   0.94530   0.66748   0.00000  Uiso   1.00
H124   H     0.23157   0.01944   0.64989   0.00000  Uiso   1.00
H125   H     0.17884   0.84976   0.64979   0.00000  Uiso   1.00
H126   H     0.34851   0.96668   0.65001   0.00000  Uiso   1.00
H127   H     0.20780   0.10161   0.71355   0.00000  Uiso   1.00
H128   H     0.09663   0.74383   0.71334   0.00000  Uiso   1.00
H129   H     0.45442   0.99037   0.71380   0.00000  Uiso   1.00
O130   O     0.19367   0.15035   0.98790   0.00000  Uiso   1.00
O131   O     0.04783   0.68095   0.98762   0.00000  Uiso   1.00
O132   O     0.51724   0.00441   0.98822   0.00000  Uiso   1.00
N133   N     0.21071   0.09142   0.13553   0.00000  Uiso   1.00
N134   N     0.10676   0.75691   0.13533   0.00000  Uiso   1.00
N135   N     0.44126   0.98739   0.13576   0.00000  Uiso   1.00
N136   N     0.21074   0.09144   0.84028   0.00000  Uiso   1.00
N137   N     0.10679   0.75693   0.84008   0.00000  Uiso   1.00
N138   N     0.44129   0.98741   0.84051   0.00000  Uiso   1.00
C139   C     0.94527   0.69234   0.66153   0.00000  Uiso   1.00
C140   C     0.98556   0.74425   0.58221   0.00000  Uiso   1.00
C141   C     0.01942   0.78790   0.67998   0.00000  Uiso   1.00
C142   C     0.05333   0.83160   0.58238   0.00000  Uiso   1.00
C143   C     0.11587   0.91221   0.48791   0.00000  Uiso   1.00
C144   C     0.89337   0.68072   0.58215   0.00000  Uiso   1.00
C145   C     0.84971   0.67094   0.67989   0.00000  Uiso   1.00
C146   C     0.80602   0.66115   0.58222   0.00000  Uiso   1.00
C147   C     0.72541   0.64308   0.48766   0.00000  Uiso   1.00
C148   C     0.95690   0.65206   0.58227   0.00000  Uiso   1.00
C149   C     0.96664   0.61817   0.68011   0.00000  Uiso   1.00
C150   C     0.97642   0.58424   0.58254   0.00000  Uiso   1.00
C151   C     0.99446   0.52168   0.48818   0.00000  Uiso   1.00
C152   C     0.94529   0.69233   0.31431   0.00000  Uiso   1.00
C153   C     0.98557   0.74424   0.39361   0.00000  Uiso   1.00
C154   C     0.01944   0.78789   0.29583   0.00000  Uiso   1.00
C155   C     0.05334   0.83160   0.39344   0.00000  Uiso   1.00
C156   C     0.89338   0.68071   0.39356   0.00000  Uiso   1.00
C157   C     0.84973   0.67093   0.29573   0.00000  Uiso   1.00
C158   C     0.80603   0.66114   0.39329   0.00000  Uiso   1.00
C159   C     0.95691   0.65205   0.39368   0.00000  Uiso   1.00
C160   C     0.96667   0.61816   0.29595   0.00000  Uiso   1.00
C161   C     0.97643   0.58424   0.39361   0.00000  Uiso   1.00
H162   H     0.94526   0.69235   0.80835   0.00000  Uiso   1.00
H163   H     0.01939   0.78789   0.82593   0.00000  Uiso   1.00
H164   H     0.84971   0.67095   0.82583   0.00000  Uiso   1.00
H165   H     0.96663   0.61819   0.82605   0.00000  Uiso   1.00
H166   H     0.10157   0.89383   0.76226   0.00000  Uiso   1.00
H167   H     0.74379   0.64722   0.76204   0.00000  Uiso   1.00
H168   H     0.99033   0.53597   0.76250   0.00000  Uiso   1.00
H169   H     0.94530   0.69232   0.16748   0.00000  Uiso   1.00
H170   H     0.01944   0.78787   0.14989   0.00000  Uiso   1.00
H171   H     0.84976   0.67092   0.14979   0.00000  Uiso   1.00
H172   H     0.96668   0.61817   0.15001   0.00000  Uiso   1.00
H173   H     0.10161   0.89381   0.21355   0.00000  Uiso   1.00
H174   H     0.74383   0.64720   0.21334   0.00000  Uiso   1.00
H175   H     0.99037   0.53595   0.21380   0.00000  Uiso   1.00
O176   O     0.15035   0.95668   0.48790   0.00000  Uiso   1.00
O177   O     0.68095   0.63313   0.48762   0.00000  Uiso   1.00
O178   O     0.00441   0.48717   0.48822   0.00000  Uiso   1.00
N179   N     0.09142   0.88071   0.63553   0.00000  Uiso   1.00
N180   N     0.75691   0.65015   0.63533   0.00000  Uiso   1.00
N181   N     0.98739   0.54613   0.63576   0.00000  Uiso   1.00
N182   N     0.09144   0.88070   0.34028   0.00000  Uiso   1.00
N183   N     0.75693   0.65014   0.34008   0.00000  Uiso   1.00
N184   N     0.98741   0.54612   0.34051   0.00000  Uiso   1.00
C185   C     0.30766   0.25293   0.66153   0.00000  Uiso   1.00
C186   C     0.25575   0.24131   0.58221   0.00000  Uiso   1.00
C187   C     0.21210   0.23151   0.67998   0.00000  Uiso   1.00
C188   C     0.16840   0.22172   0.58238   0.00000  Uiso   1.00
C189   C     0.08779   0.20365   0.48791   0.00000  Uiso   1.00
C190   C     0.31928   0.21265   0.58215   0.00000  Uiso   1.00
C191   C     0.32906   0.17877   0.67989   0.00000  Uiso   1.00
C192   C     0.33885   0.14486   0.58222   0.00000  Uiso   1.00
C193   C     0.35692   0.08233   0.48766   0.00000  Uiso   1.00
C194   C     0.34794   0.30484   0.58227   0.00000  Uiso   1.00
C195   C     0.38183   0.34847   0.68011   0.00000  Uiso   1.00
C196   C     0.41576   0.39218   0.58254   0.00000  Uiso   1.00
C197   C     0.47832   0.47278   0.48818   0.00000  Uiso   1.00
C198   C     0.30767   0.25296   0.31431   0.00000  Uiso   1.00
C199   C     0.25576   0.24132   0.39361   0.00000  Uiso   1.00
C200   C     0.21211   0.23155   0.29583   0.00000  Uiso   1.00
C201   C     0.16840   0.22175   0.39344   0.00000  Uiso   1.00
C202   C     0.31929   0.21267   0.39356   0.00000  Uiso   1.00
C203   C     0.32907   0.17881   0.29573   0.00000  Uiso   1.00
C204   C     0.33886   0.14488   0.39329   0.00000  Uiso   1.00
C205   C     0.34795   0.30486   0.39368   0.00000  Uiso   1.00
C206   C     0.38184   0.34851   0.29595   0.00000  Uiso   1.00
C207   C     0.41576   0.39220   0.39361   0.00000  Uiso   1.00
H208   H     0.30765   0.25291   0.80835   0.00000  Uiso   1.00
H209   H     0.21211   0.23150   0.82593   0.00000  Uiso   1.00
H210   H     0.32905   0.17877   0.82583   0.00000  Uiso   1.00
H211   H     0.38181   0.34844   0.82605   0.00000  Uiso   1.00
H212   H     0.10617   0.20775   0.76226   0.00000  Uiso   1.00
H213   H     0.35278   0.09657   0.76204   0.00000  Uiso   1.00
H214   H     0.46403   0.45437   0.76250   0.00000  Uiso   1.00
H215   H     0.30768   0.25297   0.16748   0.00000  Uiso   1.00
H216   H     0.21213   0.23157   0.14989   0.00000  Uiso   1.00
H217   H     0.32908   0.17884   0.14979   0.00000  Uiso   1.00
H218   H     0.38183   0.34851   0.15001   0.00000  Uiso   1.00
H219   H     0.10619   0.20780   0.21355   0.00000  Uiso   1.00
H220   H     0.35280   0.09663   0.21334   0.00000  Uiso   1.00
H221   H     0.46405   0.45442   0.21380   0.00000  Uiso   1.00
O222   O     0.04332   0.19367   0.48790   0.00000  Uiso   1.00
O223   O     0.36687   0.04783   0.48762   0.00000  Uiso   1.00
O224   O     0.51283   0.51724   0.48822   0.00000  Uiso   1.00
N225   N     0.11929   0.21071   0.63553   0.00000  Uiso   1.00
N226   N     0.34985   0.10676   0.63533   0.00000  Uiso   1.00
N227   N     0.45387   0.44126   0.63576   0.00000  Uiso   1.00
N228   N     0.11930   0.21074   0.34028   0.00000  Uiso   1.00
N229   N     0.34986   0.10679   0.34008   0.00000  Uiso   1.00
N230   N     0.45388   0.44129   0.34051   0.00000  Uiso   1.00
C231   C     0.74707   0.05473   0.66153   0.00000  Uiso   1.00
C232   C     0.75869   0.01444   0.58221   0.00000  Uiso   1.00
C233   C     0.76849   0.98058   0.67998   0.00000  Uiso   1.00
C234   C     0.77828   0.94667   0.58238   0.00000  Uiso   1.00
C235   C     0.79635   0.88413   0.48791   0.00000  Uiso   1.00
C236   C     0.78735   0.10663   0.58215   0.00000  Uiso   1.00
C237   C     0.82123   0.15029   0.67989   0.00000  Uiso   1.00
C238   C     0.85514   0.19398   0.58222   0.00000  Uiso   1.00
C239   C     0.91767   0.27459   0.48766   0.00000  Uiso   1.00
C240   C     0.69516   0.04310   0.58227   0.00000  Uiso   1.00
C241   C     0.65153   0.03336   0.68011   0.00000  Uiso   1.00
C242   C     0.60782   0.02358   0.58254   0.00000  Uiso   1.00
C243   C     0.52722   0.00554   0.48818   0.00000  Uiso   1.00
C244   C     0.74704   0.05471   0.31431   0.00000  Uiso   1.00
C245   C     0.75868   0.01443   0.39361   0.00000  Uiso   1.00
C246   C     0.76845   0.98056   0.29583   0.00000  Uiso   1.00
C247   C     0.77825   0.94666   0.39344   0.00000  Uiso   1.00
C248   C     0.78733   0.10662   0.39356   0.00000  Uiso   1.00
C249   C     0.82119   0.15027   0.29573   0.00000  Uiso   1.00
C250   C     0.85512   0.19397   0.39329   0.00000  Uiso   1.00
C251   C     0.69514   0.04309   0.39368   0.00000  Uiso   1.00
C252   C     0.65149   0.03333   0.29595   0.00000  Uiso   1.00
C253   C     0.60780   0.02357   0.39361   0.00000  Uiso   1.00
H254   H     0.74709   0.05474   0.80835   0.00000  Uiso   1.00
H255   H     0.76850   0.98061   0.82593   0.00000  Uiso   1.00
H256   H     0.82123   0.15029   0.82583   0.00000  Uiso   1.00
H257   H     0.65156   0.03337   0.82605   0.00000  Uiso   1.00
H258   H     0.79225   0.89843   0.76226   0.00000  Uiso   1.00
H259   H     0.90343   0.25621   0.76204   0.00000  Uiso   1.00
H260   H     0.54563   0.00967   0.76250   0.00000  Uiso   1.00
H261   H     0.74703   0.05470   0.16748   0.00000  Uiso   1.00
H262   H     0.76843   0.98056   0.14989   0.00000  Uiso   1.00
H263   H     0.82116   0.15024   0.14979   0.00000  Uiso   1.00
H264   H     0.65149   0.03332   0.15001   0.00000  Uiso   1.00
H265   H     0.79220   0.89839   0.21355   0.00000  Uiso   1.00
H266   H     0.90337   0.25617   0.21334   0.00000  Uiso   1.00
H267   H     0.54558   0.00963   0.21380   0.00000  Uiso   1.00
O268   O     0.80633   0.84965   0.48790   0.00000  Uiso   1.00
O269   O     0.95217   0.31905   0.48762   0.00000  Uiso   1.00
O270   O     0.48276   0.99559   0.48822   0.00000  Uiso   1.00
N271   N     0.78929   0.90858   0.63553   0.00000  Uiso   1.00
N272   N     0.89324   0.24309   0.63533   0.00000  Uiso   1.00
N273   N     0.55874   0.01261   0.63576   0.00000  Uiso   1.00
N274   N     0.78926   0.90856   0.34028   0.00000  Uiso   1.00
N275   N     0.89321   0.24307   0.34008   0.00000  Uiso   1.00
N276   N     0.55871   0.01259   0.34051   0.00000  Uiso   1.00
