data_job_06011
_audit_creation_date              2018-12-19
_audit_creation_method            'Materials Studio'
_symmetry_space_group_name_H-M    'P1'
_symmetry_Int_Tables_number       1
_symmetry_cell_setting            triclinic
loop_
_symmetry_equiv_pos_as_xyz
  x,y,z
_cell_length_a                    16.3171
_cell_length_b                    16.1030
_cell_length_c                    15.7268
_cell_angle_alpha                 97.6217
_cell_angle_beta                  97.5094
_cell_angle_gamma                 96.9089
loop_
_atom_site_label
_atom_site_type_symbol
_atom_site_fract_x
_atom_site_fract_y
_atom_site_fract_z
_atom_site_U_iso_or_equiv
_atom_site_adp_type
_atom_site_occupancy
C1     C     0.77314   0.91124   0.47801   0.00000  Uiso   1.00
C2     C     0.83498   0.93472   0.56178   0.00000  Uiso   1.00
C3     C     0.90965   0.90278   0.57935   0.00000  Uiso   1.00
C4     C     0.95745   0.93221   0.65980   0.00000  Uiso   1.00
C5     C     0.05741   0.95961   0.78067   0.00000  Uiso   1.00
C6     C     0.68977   0.87957   0.50466   0.00000  Uiso   1.00
C7     C     0.64235   0.80127   0.47420   0.00000  Uiso   1.00
C8     C     0.56791   0.78428   0.50656   0.00000  Uiso   1.00
C9     C     0.44239   0.72609   0.53871   0.00000  Uiso   1.00
C10    C     0.76185   0.99418   0.44407   0.00000  Uiso   1.00
C11    C     0.77501   0.01225   0.36265   0.00000  Uiso   1.00
C12    C     0.76123   0.09177   0.34398   0.00000  Uiso   1.00
C13    C     0.74763   0.21153   0.28205   0.00000  Uiso   1.00
C14    C     0.72524   0.02031   0.58962   0.00000  Uiso   1.00
C15    C     0.80896   0.99395   0.62240   0.00000  Uiso   1.00
C16    C     0.85666   0.02345   0.70284   0.00000  Uiso   1.00
C17    C     0.93139   0.99156   0.72053   0.00000  Uiso   1.00
C18    C     0.66375   0.93880   0.56529   0.00000  Uiso   1.00
C19    C     0.58936   0.92194   0.59769   0.00000  Uiso   1.00
C20    C     0.54184   0.84363   0.56729   0.00000  Uiso   1.00
C21    C     0.73583   0.05343   0.50470   0.00000  Uiso   1.00
C22    C     0.72202   0.13292   0.48614   0.00000  Uiso   1.00
C23    C     0.73516   0.15111   0.40472   0.00000  Uiso   1.00
H24    H     0.79339   0.86512   0.43081   0.00000  Uiso   1.00
H25    H     0.92976   0.85693   0.53242   0.00000  Uiso   1.00
H26    H     0.66249   0.75544   0.42728   0.00000  Uiso   1.00
H27    H     0.79514   0.96639   0.31575   0.00000  Uiso   1.00
H28    H     0.06946   0.87395   0.67182   0.00000  Uiso   1.00
H29    H     0.50591   0.65996   0.45011   0.00000  Uiso   1.00
H30    H     0.78561   0.10480   0.21492   0.00000  Uiso   1.00
H31    H     0.70499   0.06643   0.63682   0.00000  Uiso   1.00
H32    H     0.83651   0.06929   0.74974   0.00000  Uiso   1.00
H33    H     0.56925   0.96780   0.64460   0.00000  Uiso   1.00
H34    H     0.70189   0.17875   0.53308   0.00000  Uiso   1.00
H35    H     0.99378   0.04631   0.84822   0.00000  Uiso   1.00
H36    H     0.43022   0.83232   0.62649   0.00000  Uiso   1.00
H37    H     0.70992   0.27716   0.39131   0.00000  Uiso   1.00
O38    O     0.11972   0.95835   0.83060   0.00000  Uiso   1.00
O39    O     0.38036   0.67762   0.53970   0.00000  Uiso   1.00
O40    O     0.74732   0.26124   0.23115   0.00000  Uiso   1.00
N41    N     0.03361   0.91413   0.69784   0.00000  Uiso   1.00
N42    N     0.50672   0.71406   0.49055   0.00000  Uiso   1.00
N43    N     0.76820   0.12994   0.27067   0.00000  Uiso   1.00
N44    N     0.99288   0.00688   0.79275   0.00000  Uiso   1.00
N45    N     0.46600   0.80681   0.58547   0.00000  Uiso   1.00
N46    N     0.72747   0.22269   0.36558   0.00000  Uiso   1.00
C47    C     0.48049   0.77413   0.91115   0.00000  Uiso   1.00
C48    C     0.56082   0.83657   0.93554   0.00000  Uiso   1.00
C49    C     0.57739   0.91199   0.90327   0.00000  Uiso   1.00
C50    C     0.65458   0.96025   0.93368   0.00000  Uiso   1.00
C51    C     0.77044   0.06119   0.96232   0.00000  Uiso   1.00
C52    C     0.50666   0.68935   0.87818   0.00000  Uiso   1.00
C53    C     0.47768   0.64098   0.79769   0.00000  Uiso   1.00
C54    C     0.50927   0.56530   0.77983   0.00000  Uiso   1.00
C55    C     0.54100   0.43764   0.71944   0.00000  Uiso   1.00
C56    C     0.44774   0.76331   0.99606   0.00000  Uiso   1.00
C57    C     0.36922   0.77709   0.01468   0.00000  Uiso   1.00
C58    C     0.35119   0.76366   0.09606   0.00000  Uiso   1.00
C59    C     0.29144   0.75083   0.21870   0.00000  Uiso   1.00
C60    C     0.58810   0.72574   0.02256   0.00000  Uiso   1.00
C61    C     0.61927   0.81028   0.99605   0.00000  Uiso   1.00
C62    C     0.69646   0.85845   0.02653   0.00000  Uiso   1.00
C63    C     0.71314   0.93392   0.99431   0.00000  Uiso   1.00
C64    C     0.56511   0.66306   0.93869   0.00000  Uiso   1.00
C65    C     0.59674   0.58744   0.92095   0.00000  Uiso   1.00
C66    C     0.56783   0.53897   0.84045   0.00000  Uiso   1.00
C67    C     0.50619   0.73702   0.05658   0.00000  Uiso   1.00
C68    C     0.48828   0.72356   0.13794   0.00000  Uiso   1.00
C69    C     0.40975   0.73733   0.15668   0.00000  Uiso   1.00
H70    H     0.43498   0.79459   0.86403   0.00000  Uiso   1.00
H71    H     0.53215   0.93231   0.85643   0.00000  Uiso   1.00
H72    H     0.43245   0.66133   0.75088   0.00000  Uiso   1.00
H73    H     0.32400   0.79743   0.96784   0.00000  Uiso   1.00
H74    H     0.66566   0.07338   0.87467   0.00000  Uiso   1.00
H75    H     0.45541   0.50201   0.65211   0.00000  Uiso   1.00
H76    H     0.22673   0.78900   0.10961   0.00000  Uiso   1.00
H77    H     0.63361   0.70527   0.06967   0.00000  Uiso   1.00
H78    H     0.74168   0.83809   0.07335   0.00000  Uiso   1.00
H79    H     0.64197   0.56711   0.96779   0.00000  Uiso   1.00
H80    H     0.53353   0.70321   0.18475   0.00000  Uiso   1.00
H81    H     0.83572   0.99691   0.05072   0.00000  Uiso   1.00
H82    H     0.62547   0.42553   0.82816   0.00000  Uiso   1.00
H83    H     0.39679   0.71253   0.28567   0.00000  Uiso   1.00
O84    O     0.81820   0.12411   0.96139   0.00000  Uiso   1.00
O85    O     0.54235   0.37449   0.66940   0.00000  Uiso   1.00
O86    O     0.24233   0.75102   0.26964   0.00000  Uiso   1.00
N87    N     0.69085   0.03716   0.91561   0.00000  Uiso   1.00
N88    N     0.49429   0.50297   0.70752   0.00000  Uiso   1.00
N89    N     0.28048   0.77126   0.13524   0.00000  Uiso   1.00
N90    N     0.78235   0.99601   0.01035   0.00000  Uiso   1.00
N91    N     0.58580   0.46182   0.80226   0.00000  Uiso   1.00
N92    N     0.37199   0.73011   0.22998   0.00000  Uiso   1.00
C93    C     0.91230   0.47997   0.77497   0.00000  Uiso   1.00
C94    C     0.93528   0.56163   0.83942   0.00000  Uiso   1.00
C95    C     0.90399   0.57899   0.91679   0.00000  Uiso   1.00
C96    C     0.93281   0.65736   0.96669   0.00000  Uiso   1.00
C97    C     0.95963   0.77522   0.07079   0.00000  Uiso   1.00
C98    C     0.88053   0.50615   0.68828   0.00000  Uiso   1.00
C99    C     0.80322   0.47685   0.63858   0.00000  Uiso   1.00
C100   C     0.78595   0.50851   0.56125   0.00000  Uiso   1.00
C101   C     0.72780   0.54019   0.43067   0.00000  Uiso   1.00
C102   C     0.99429   0.44635   0.76365   0.00000  Uiso   1.00
C103   C     0.01262   0.36677   0.77729   0.00000  Uiso   1.00
C104   C     0.09113   0.34808   0.76340   0.00000  Uiso   1.00
C105   C     0.20960   0.28693   0.74984   0.00000  Uiso   1.00
C106   C     0.01911   0.58827   0.72600   0.00000  Uiso   1.00
C107   C     0.99329   0.62045   0.81282   0.00000  Uiso   1.00
C108   C     0.02216   0.69881   0.86261   0.00000  Uiso   1.00
C109   C     0.99093   0.71629   0.94005   0.00000  Uiso   1.00
C110   C     0.93854   0.56497   0.66168   0.00000  Uiso   1.00
C111   C     0.92139   0.59667   0.58440   0.00000  Uiso   1.00
C112   C     0.84407   0.56744   0.53460   0.00000  Uiso   1.00
C113   C     0.05230   0.50518   0.73705   0.00000  Uiso   1.00
C114   C     0.13079   0.48660   0.72312   0.00000  Uiso   1.00
C115   C     0.14925   0.40701   0.73675   0.00000  Uiso   1.00
H116   H     0.86713   0.43417   0.79567   0.00000  Uiso   1.00
H117   H     0.85909   0.53345   0.93735   0.00000  Uiso   1.00
H118   H     0.75834   0.43132   0.65917   0.00000  Uiso   1.00
H119   H     0.96771   0.32127   0.79787   0.00000  Uiso   1.00
H120   H     0.87574   0.66948   0.08268   0.00000  Uiso   1.00
H121   H     0.66331   0.45411   0.49612   0.00000  Uiso   1.00
H122   H     0.10481   0.22204   0.78859   0.00000  Uiso   1.00
H123   H     0.06428   0.63407   0.70529   0.00000  Uiso   1.00
H124   H     0.06706   0.74432   0.84201   0.00000  Uiso   1.00
H125   H     0.96630   0.64219   0.56384   0.00000  Uiso   1.00
H126   H     0.17567   0.53214   0.70254   0.00000  Uiso   1.00
H127   H     0.04453   0.84063   0.00530   0.00000  Uiso   1.00
H128   H     0.83209   0.62526   0.41874   0.00000  Uiso   1.00
H129   H     0.27360   0.39319   0.71122   0.00000  Uiso   1.00
O130   O     0.95838   0.82398   0.13554   0.00000  Uiso   1.00
O131   O     0.67969   0.54142   0.36600   0.00000  Uiso   1.00
O132   O     0.25893   0.23695   0.74972   0.00000  Uiso   1.00
N133   N     0.91509   0.69462   0.04571   0.00000  Uiso   1.00
N134   N     0.71648   0.49328   0.49732   0.00000  Uiso   1.00
N135   N     0.12924   0.27630   0.77074   0.00000  Uiso   1.00
N136   N     0.00592   0.78671   0.00408   0.00000  Uiso   1.00
N137   N     0.80730   0.58537   0.45569   0.00000  Uiso   1.00
N138   N     0.22006   0.36839   0.72910   0.00000  Uiso   1.00
C139   C     0.22686   0.08876   0.52199   0.00000  Uiso   1.00
C140   C     0.16502   0.06528   0.43822   0.00000  Uiso   1.00
C141   C     0.09035   0.09722   0.42065   0.00000  Uiso   1.00
C142   C     0.04255   0.06779   0.34020   0.00000  Uiso   1.00
C143   C     0.94259   0.04039   0.21933   0.00000  Uiso   1.00
C144   C     0.31023   0.12043   0.49534   0.00000  Uiso   1.00
C145   C     0.35765   0.19873   0.52580   0.00000  Uiso   1.00
C146   C     0.43209   0.21572   0.49344   0.00000  Uiso   1.00
C147   C     0.55761   0.27391   0.46129   0.00000  Uiso   1.00
C148   C     0.23815   0.00582   0.55593   0.00000  Uiso   1.00
C149   C     0.22499   0.98775   0.63735   0.00000  Uiso   1.00
C150   C     0.23877   0.90823   0.65602   0.00000  Uiso   1.00
C151   C     0.25238   0.78847   0.71795   0.00000  Uiso   1.00
C152   C     0.27476   0.97969   0.41038   0.00000  Uiso   1.00
C153   C     0.19104   0.00605   0.37760   0.00000  Uiso   1.00
C154   C     0.14334   0.97655   0.29716   0.00000  Uiso   1.00
C155   C     0.06861   0.00844   0.27947   0.00000  Uiso   1.00
C156   C     0.33625   0.06120   0.43471   0.00000  Uiso   1.00
C157   C     0.41064   0.07806   0.40231   0.00000  Uiso   1.00
C158   C     0.45816   0.15637   0.43271   0.00000  Uiso   1.00
C159   C     0.26417   0.94657   0.49531   0.00000  Uiso   1.00
C160   C     0.27798   0.86708   0.51386   0.00000  Uiso   1.00
C161   C     0.26484   0.84889   0.59528   0.00000  Uiso   1.00
H162   H     0.20661   0.13488   0.56919   0.00000  Uiso   1.00
H163   H     0.07024   0.14307   0.46758   0.00000  Uiso   1.00
H164   H     0.33751   0.24456   0.57272   0.00000  Uiso   1.00
H165   H     0.20486   0.03361   0.68425   0.00000  Uiso   1.00
H166   H     0.93054   0.12605   0.32818   0.00000  Uiso   1.00
H167   H     0.49409   0.34004   0.54989   0.00000  Uiso   1.00
H168   H     0.21439   0.89520   0.78508   0.00000  Uiso   1.00
H169   H     0.29501   0.93357   0.36318   0.00000  Uiso   1.00
H170   H     0.16349   0.93071   0.25026   0.00000  Uiso   1.00
H171   H     0.43075   0.03220   0.35540   0.00000  Uiso   1.00
H172   H     0.29811   0.82125   0.46692   0.00000  Uiso   1.00
H173   H     0.00622   0.95369   0.15178   0.00000  Uiso   1.00
H174   H     0.56978   0.16768   0.37351   0.00000  Uiso   1.00
H175   H     0.29008   0.72284   0.60869   0.00000  Uiso   1.00
O176   O     0.88028   0.04165   0.16940   0.00000  Uiso   1.00
O177   O     0.61965   0.32238   0.46030   0.00000  Uiso   1.00
O178   O     0.25268   0.73876   0.76885   0.00000  Uiso   1.00
N179   N     0.96639   0.08587   0.30216   0.00000  Uiso   1.00
N180   N     0.49328   0.28594   0.50945   0.00000  Uiso   1.00
N181   N     0.23180   0.87006   0.72933   0.00000  Uiso   1.00
N182   N     0.00712   0.99312   0.20725   0.00000  Uiso   1.00
N183   N     0.53400   0.19319   0.41453   0.00000  Uiso   1.00
N184   N     0.27253   0.77731   0.63442   0.00000  Uiso   1.00
C185   C     0.51951   0.22587   0.08885   0.00000  Uiso   1.00
C186   C     0.43918   0.16343   0.06446   0.00000  Uiso   1.00
C187   C     0.42261   0.08801   0.09673   0.00000  Uiso   1.00
C188   C     0.34542   0.03975   0.06632   0.00000  Uiso   1.00
C189   C     0.22956   0.93882   0.03768   0.00000  Uiso   1.00
C190   C     0.49334   0.31065   0.12182   0.00000  Uiso   1.00
C191   C     0.52232   0.35902   0.20231   0.00000  Uiso   1.00
C192   C     0.49073   0.43470   0.22017   0.00000  Uiso   1.00
C193   C     0.45900   0.56236   0.28056   0.00000  Uiso   1.00
C194   C     0.55226   0.23669   0.00394   0.00000  Uiso   1.00
C195   C     0.63078   0.22291   0.98532   0.00000  Uiso   1.00
C196   C     0.64881   0.23634   0.90394   0.00000  Uiso   1.00
C197   C     0.70856   0.24917   0.78130   0.00000  Uiso   1.00
C198   C     0.41190   0.27426   0.97744   0.00000  Uiso   1.00
C199   C     0.38073   0.18972   0.00395   0.00000  Uiso   1.00
C200   C     0.30354   0.14155   0.97347   0.00000  Uiso   1.00
C201   C     0.28686   0.06608   0.00569   0.00000  Uiso   1.00
C202   C     0.43489   0.33694   0.06131   0.00000  Uiso   1.00
C203   C     0.40326   0.41256   0.07905   0.00000  Uiso   1.00
C204   C     0.43217   0.46103   0.15955   0.00000  Uiso   1.00
C205   C     0.49381   0.26298   0.94342   0.00000  Uiso   1.00
C206   C     0.51172   0.27644   0.86206   0.00000  Uiso   1.00
C207   C     0.59025   0.26267   0.84332   0.00000  Uiso   1.00
H208   H     0.56502   0.20541   0.13597   0.00000  Uiso   1.00
H209   H     0.46785   0.06769   0.14357   0.00000  Uiso   1.00
H210   H     0.56756   0.33867   0.24912   0.00000  Uiso   1.00
H211   H     0.67600   0.20257   0.03216   0.00000  Uiso   1.00
H212   H     0.33434   0.92662   0.12533   0.00000  Uiso   1.00
H213   H     0.54459   0.49799   0.34789   0.00000  Uiso   1.00
H214   H     0.77327   0.21100   0.89039   0.00000  Uiso   1.00
H215   H     0.36639   0.29473   0.93033   0.00000  Uiso   1.00
H216   H     0.25832   0.16191   0.92665   0.00000  Uiso   1.00
H217   H     0.35803   0.43289   0.03221   0.00000  Uiso   1.00
H218   H     0.46647   0.29679   0.81525   0.00000  Uiso   1.00
H219   H     0.16428   0.00309   0.94928   0.00000  Uiso   1.00
H220   H     0.37453   0.57447   0.17184   0.00000  Uiso   1.00
H221   H     0.60321   0.28747   0.71433   0.00000  Uiso   1.00
O222   O     0.18180   0.87589   0.03861   0.00000  Uiso   1.00
O223   O     0.45765   0.62551   0.33060   0.00000  Uiso   1.00
O224   O     0.75767   0.24898   0.73036   0.00000  Uiso   1.00
N225   N     0.30916   0.96284   0.08439   0.00000  Uiso   1.00
N226   N     0.50571   0.49703   0.29248   0.00000  Uiso   1.00
N227   N     0.71952   0.22874   0.86476   0.00000  Uiso   1.00
N228   N     0.21765   0.00399   0.98965   0.00000  Uiso   1.00
N229   N     0.41420   0.53818   0.19774   0.00000  Uiso   1.00
N230   N     0.62801   0.26989   0.77002   0.00000  Uiso   1.00
C231   C     0.08770   0.52003   0.22503   0.00000  Uiso   1.00
C232   C     0.06472   0.43837   0.16058   0.00000  Uiso   1.00
C233   C     0.09601   0.42101   0.08321   0.00000  Uiso   1.00
C234   C     0.06719   0.34264   0.03331   0.00000  Uiso   1.00
C235   C     0.04037   0.22478   0.92921   0.00000  Uiso   1.00
C236   C     0.11947   0.49385   0.31172   0.00000  Uiso   1.00
C237   C     0.19678   0.52315   0.36142   0.00000  Uiso   1.00
C238   C     0.21405   0.49149   0.43875   0.00000  Uiso   1.00
C239   C     0.27220   0.45981   0.56933   0.00000  Uiso   1.00
C240   C     0.00571   0.55365   0.23635   0.00000  Uiso   1.00
C241   C     0.98738   0.63323   0.22271   0.00000  Uiso   1.00
C242   C     0.90887   0.65192   0.23661   0.00000  Uiso   1.00
C243   C     0.79040   0.71307   0.25016   0.00000  Uiso   1.00
C244   C     0.98089   0.41173   0.27400   0.00000  Uiso   1.00
C245   C     0.00671   0.37955   0.18718   0.00000  Uiso   1.00
C246   C     0.97784   0.30119   0.13739   0.00000  Uiso   1.00
C247   C     0.00907   0.28371   0.05995   0.00000  Uiso   1.00
C248   C     0.06146   0.43503   0.33832   0.00000  Uiso   1.00
C249   C     0.07861   0.40333   0.41560   0.00000  Uiso   1.00
C250   C     0.15593   0.43256   0.46540   0.00000  Uiso   1.00
C251   C     0.94770   0.49482   0.26295   0.00000  Uiso   1.00
C252   C     0.86921   0.51340   0.27688   0.00000  Uiso   1.00
C253   C     0.85075   0.59299   0.26325   0.00000  Uiso   1.00
H254   H     0.13287   0.56583   0.20433   0.00000  Uiso   1.00
H255   H     0.14091   0.46655   0.06265   0.00000  Uiso   1.00
H256   H     0.24166   0.56868   0.34083   0.00000  Uiso   1.00
H257   H     0.03229   0.67873   0.20213   0.00000  Uiso   1.00
H258   H     0.12426   0.33052   0.91732   0.00000  Uiso   1.00
H259   H     0.33669   0.54589   0.50388   0.00000  Uiso   1.00
H260   H     0.89519   0.77796   0.21141   0.00000  Uiso   1.00
H261   H     0.93572   0.36593   0.29471   0.00000  Uiso   1.00
H262   H     0.93294   0.25568   0.15799   0.00000  Uiso   1.00
H263   H     0.03370   0.35781   0.43616   0.00000  Uiso   1.00
H264   H     0.82433   0.46786   0.29746   0.00000  Uiso   1.00
H265   H     0.95547   0.15937   0.99470   0.00000  Uiso   1.00
H266   H     0.16791   0.37474   0.58126   0.00000  Uiso   1.00
H267   H     0.72640   0.60681   0.28878   0.00000  Uiso   1.00
O268   O     0.04162   0.17602   0.86446   0.00000  Uiso   1.00
O269   O     0.32031   0.45858   0.63400   0.00000  Uiso   1.00
O270   O     0.74107   0.76305   0.25028   0.00000  Uiso   1.00
N271   N     0.08491   0.30538   0.95429   0.00000  Uiso   1.00
N272   N     0.28352   0.50672   0.50268   0.00000  Uiso   1.00
N273   N     0.87076   0.72370   0.22926   0.00000  Uiso   1.00
N274   N     0.99408   0.21329   0.99592   0.00000  Uiso   1.00
N275   N     0.19270   0.41463   0.54431   0.00000  Uiso   1.00
N276   N     0.77994   0.63161   0.27090   0.00000  Uiso   1.00
