data_job_04079
_audit_creation_date              2018-12-19
_audit_creation_method            'Materials Studio'
_symmetry_space_group_name_H-M    'P1'
_symmetry_Int_Tables_number       1
_symmetry_cell_setting            triclinic
loop_
_symmetry_equiv_pos_as_xyz
  x,y,z
_cell_length_a                    11.5698
_cell_length_b                    11.5698
_cell_length_c                    38.4878
_cell_angle_alpha                 90.0000
_cell_angle_beta                  90.0000
_cell_angle_gamma                 120.0000
loop_
_atom_site_label
_atom_site_type_symbol
_atom_site_fract_x
_atom_site_fract_y
_atom_site_fract_z
_atom_site_U_iso_or_equiv
_atom_site_adp_type
_atom_site_occupancy
C1     C     0.62492   0.06592   0.24839   0.00000  Uiso   1.00
C2     C     0.50459   0.08210   0.24055   0.00000  Uiso   1.00
C3     C     0.37840   0.98028   0.23131   0.00000  Uiso   1.00
C4     C     0.28179   0.01555   0.22519   0.00000  Uiso   1.00
C5     C     0.09059   0.02056   0.21253   0.00000  Uiso   1.00
C6     C     0.73499   0.16012   0.22369   0.00000  Uiso   1.00
C7     C     0.80253   0.12388   0.20028   0.00000  Uiso   1.00
C8     C     0.89989   0.22484   0.17998   0.00000  Uiso   1.00
C9     C     0.06646   0.35098   0.14117   0.00000  Uiso   1.00
C10    C     0.67138   0.12254   0.28476   0.00000  Uiso   1.00
C11    C     0.68549   0.05473   0.31270   0.00000  Uiso   1.00
C12    C     0.72932   0.12406   0.34381   0.00000  Uiso   1.00
C13    C     0.79714   0.19186   0.39982   0.00000  Uiso   1.00
C14    C     0.67772   0.30963   0.25398   0.00000  Uiso   1.00
C15    C     0.53327   0.21448   0.24358   0.00000  Uiso   1.00
C16    C     0.43682   0.24992   0.23748   0.00000  Uiso   1.00
C17    C     0.31052   0.14817   0.22823   0.00000  Uiso   1.00
C18    C     0.76367   0.29249   0.22672   0.00000  Uiso   1.00
C19    C     0.86095   0.39352   0.20646   0.00000  Uiso   1.00
C20    C     0.92862   0.35745   0.18302   0.00000  Uiso   1.00
C21    C     0.70006   0.25492   0.28780   0.00000  Uiso   1.00
C22    C     0.74389   0.32437   0.31887   0.00000  Uiso   1.00
C23    C     0.75805   0.25667   0.34685   0.00000  Uiso   1.00
H24    H     0.60260   0.96286   0.24603   0.00000  Uiso   1.00
H25    H     0.35625   0.87785   0.22896   0.00000  Uiso   1.00
H26    H     0.78033   0.02144   0.19794   0.00000  Uiso   1.00
H27    H     0.66329   0.95229   0.31034   0.00000  Uiso   1.00
H28    H     0.09579   0.84199   0.21135   0.00000  Uiso   1.00
H29    H     0.99000   0.14476   0.14596   0.00000  Uiso   1.00
H30    H     0.74321   0.99894   0.38297   0.00000  Uiso   1.00
H31    H     0.70006   0.41270   0.25634   0.00000  Uiso   1.00
H32    H     0.45904   0.35237   0.23983   0.00000  Uiso   1.00
H33    H     0.88312   0.49595   0.20881   0.00000  Uiso   1.00
H34    H     0.76608   0.42681   0.32121   0.00000  Uiso   1.00
H35    H     0.17922   0.22713   0.22017   0.00000  Uiso   1.00
H36    H     0.07344   0.52989   0.15478   0.00000  Uiso   1.00
H37    H     0.82664   0.38408   0.39180   0.00000  Uiso   1.00
O38    O     0.97722   0.98676   0.20471   0.00000  Uiso   1.00
O39    O     0.15040   0.38398   0.11892   0.00000  Uiso   1.00
O40    O     0.82660   0.19268   0.42988   0.00000  Uiso   1.00
N41    N     0.14849   0.94090   0.21570   0.00000  Uiso   1.00
N42    N     0.98451   0.22397   0.15456   0.00000  Uiso   1.00
N43    N     0.75381   0.08766   0.37615   0.00000  Uiso   1.00
N44    N     0.19339   0.14814   0.22045   0.00000  Uiso   1.00
N45    N     0.02941   0.43121   0.15931   0.00000  Uiso   1.00
N46    N     0.79871   0.29490   0.38089   0.00000  Uiso   1.00
C47    C     0.93408   0.55901   0.91506   0.00000  Uiso   1.00
C48    C     0.91790   0.42248   0.90722   0.00000  Uiso   1.00
C49    C     0.01972   0.39812   0.89797   0.00000  Uiso   1.00
C50    C     0.98445   0.26624   0.89186   0.00000  Uiso   1.00
C51    C     0.97944   0.07003   0.87920   0.00000  Uiso   1.00
C52    C     0.83988   0.57487   0.89036   0.00000  Uiso   1.00
C53    C     0.87612   0.67865   0.86695   0.00000  Uiso   1.00
C54    C     0.77516   0.67505   0.84665   0.00000  Uiso   1.00
C55    C     0.64902   0.71548   0.80784   0.00000  Uiso   1.00
C56    C     0.87746   0.54884   0.95143   0.00000  Uiso   1.00
C57    C     0.94527   0.63076   0.97936   0.00000  Uiso   1.00
C58    C     0.87594   0.60526   0.01048   0.00000  Uiso   1.00
C59    C     0.80814   0.60528   0.06649   0.00000  Uiso   1.00
C60    C     0.69037   0.36809   0.92064   0.00000  Uiso   1.00
C61    C     0.78552   0.31879   0.91025   0.00000  Uiso   1.00
C62    C     0.75008   0.18690   0.90415   0.00000  Uiso   1.00
C63    C     0.85183   0.16235   0.89490   0.00000  Uiso   1.00
C64    C     0.70751   0.47118   0.89339   0.00000  Uiso   1.00
C65    C     0.60648   0.46742   0.87312   0.00000  Uiso   1.00
C66    C     0.64255   0.57116   0.84968   0.00000  Uiso   1.00
C67    C     0.74508   0.44514   0.95446   0.00000  Uiso   1.00
C68    C     0.67563   0.41953   0.98554   0.00000  Uiso   1.00
C69    C     0.74333   0.50138   0.01351   0.00000  Uiso   1.00
H70    H     0.03714   0.63974   0.91270   0.00000  Uiso   1.00
H71    H     0.12215   0.47840   0.89562   0.00000  Uiso   1.00
H72    H     0.97856   0.75889   0.86461   0.00000  Uiso   1.00
H73    H     0.04771   0.71100   0.97701   0.00000  Uiso   1.00
H74    H     0.15801   0.25380   0.87802   0.00000  Uiso   1.00
H75    H     0.85524   0.84525   0.81263   0.00000  Uiso   1.00
H76    H     0.00106   0.74426   0.04964   0.00000  Uiso   1.00
H77    H     0.58730   0.28736   0.92300   0.00000  Uiso   1.00
H78    H     0.64763   0.10667   0.90650   0.00000  Uiso   1.00
H79    H     0.50405   0.38716   0.87548   0.00000  Uiso   1.00
H80    H     0.57319   0.33927   0.98788   0.00000  Uiso   1.00
H81    H     0.77287   0.95209   0.88684   0.00000  Uiso   1.00
H82    H     0.47011   0.54354   0.82145   0.00000  Uiso   1.00
H83    H     0.61592   0.44255   0.05846   0.00000  Uiso   1.00
O84    O     0.01324   0.99045   0.87137   0.00000  Uiso   1.00
O85    O     0.61602   0.76642   0.78559   0.00000  Uiso   1.00
O86    O     0.80732   0.63392   0.09654   0.00000  Uiso   1.00
N87    N     0.05910   0.20759   0.88237   0.00000  Uiso   1.00
N88    N     0.77603   0.76054   0.82123   0.00000  Uiso   1.00
N89    N     0.91234   0.66615   0.04281   0.00000  Uiso   1.00
N90    N     0.85186   0.04524   0.88712   0.00000  Uiso   1.00
N91    N     0.56879   0.59820   0.82597   0.00000  Uiso   1.00
N92    N     0.70510   0.50381   0.04756   0.00000  Uiso   1.00
C93    C     0.44099   0.37508   0.58173   0.00000  Uiso   1.00
C94    C     0.57752   0.49541   0.57388   0.00000  Uiso   1.00
C95    C     0.60188   0.62160   0.56464   0.00000  Uiso   1.00
C96    C     0.73376   0.71821   0.55852   0.00000  Uiso   1.00
C97    C     0.92997   0.90941   0.54586   0.00000  Uiso   1.00
C98    C     0.42513   0.26501   0.55703   0.00000  Uiso   1.00
C99    C     0.32135   0.19747   0.53361   0.00000  Uiso   1.00
C100   C     0.32495   0.10011   0.51331   0.00000  Uiso   1.00
C101   C     0.28452   0.93354   0.47450   0.00000  Uiso   1.00
C102   C     0.45116   0.32862   0.61810   0.00000  Uiso   1.00
C103   C     0.36924   0.31451   0.64603   0.00000  Uiso   1.00
C104   C     0.39474   0.27068   0.67714   0.00000  Uiso   1.00
C105   C     0.39472   0.20286   0.73315   0.00000  Uiso   1.00
C106   C     0.63191   0.32228   0.58731   0.00000  Uiso   1.00
C107   C     0.68121   0.46673   0.57691   0.00000  Uiso   1.00
C108   C     0.81310   0.56318   0.57081   0.00000  Uiso   1.00
C109   C     0.83765   0.68948   0.56156   0.00000  Uiso   1.00
C110   C     0.52882   0.23633   0.56006   0.00000  Uiso   1.00
C111   C     0.53258   0.13905   0.53979   0.00000  Uiso   1.00
C112   C     0.42884   0.07138   0.51635   0.00000  Uiso   1.00
C113   C     0.55486   0.29994   0.62113   0.00000  Uiso   1.00
C114   C     0.58047   0.25611   0.65221   0.00000  Uiso   1.00
C115   C     0.49862   0.24195   0.68018   0.00000  Uiso   1.00
H116   H     0.36026   0.39740   0.57937   0.00000  Uiso   1.00
H117   H     0.52160   0.64375   0.56229   0.00000  Uiso   1.00
H118   H     0.24111   0.21967   0.53127   0.00000  Uiso   1.00
H119   H     0.28900   0.33671   0.64367   0.00000  Uiso   1.00
H120   H     0.74620   0.90421   0.54469   0.00000  Uiso   1.00
H121   H     0.15475   0.01000   0.47929   0.00000  Uiso   1.00
H122   H     0.25574   0.25679   0.71631   0.00000  Uiso   1.00
H123   H     0.71264   0.29994   0.58967   0.00000  Uiso   1.00
H124   H     0.89333   0.54096   0.57316   0.00000  Uiso   1.00
H125   H     0.61284   0.11688   0.54214   0.00000  Uiso   1.00
H126   H     0.66073   0.23392   0.65454   0.00000  Uiso   1.00
H127   H     0.04791   0.82078   0.55351   0.00000  Uiso   1.00
H128   H     0.45646   0.92656   0.48812   0.00000  Uiso   1.00
H129   H     0.55745   0.17336   0.72513   0.00000  Uiso   1.00
O130   O     0.00955   0.02278   0.53804   0.00000  Uiso   1.00
O131   O     0.23358   0.84960   0.45225   0.00000  Uiso   1.00
O132   O     0.36608   0.17340   0.76321   0.00000  Uiso   1.00
N133   N     0.79241   0.85151   0.54903   0.00000  Uiso   1.00
N134   N     0.23946   0.01549   0.48789   0.00000  Uiso   1.00
N135   N     0.33385   0.24619   0.70948   0.00000  Uiso   1.00
N136   N     0.95476   0.80661   0.55378   0.00000  Uiso   1.00
N137   N     0.40180   0.97059   0.49264   0.00000  Uiso   1.00
N138   N     0.49619   0.20129   0.71423   0.00000  Uiso   1.00
C139   C     0.06592   0.62492   0.75161   0.00000  Uiso   1.00
C140   C     0.08210   0.50459   0.75945   0.00000  Uiso   1.00
C141   C     0.98028   0.37840   0.76869   0.00000  Uiso   1.00
C142   C     0.01555   0.28179   0.77481   0.00000  Uiso   1.00
C143   C     0.02056   0.09059   0.78747   0.00000  Uiso   1.00
C144   C     0.16012   0.73499   0.77631   0.00000  Uiso   1.00
C145   C     0.12388   0.80253   0.79972   0.00000  Uiso   1.00
C146   C     0.22484   0.89989   0.82002   0.00000  Uiso   1.00
C147   C     0.35098   0.06646   0.85883   0.00000  Uiso   1.00
C148   C     0.12254   0.67138   0.71524   0.00000  Uiso   1.00
C149   C     0.05473   0.68549   0.68730   0.00000  Uiso   1.00
C150   C     0.12406   0.72932   0.65619   0.00000  Uiso   1.00
C151   C     0.19186   0.79714   0.60018   0.00000  Uiso   1.00
C152   C     0.30963   0.67772   0.74602   0.00000  Uiso   1.00
C153   C     0.21448   0.53327   0.75642   0.00000  Uiso   1.00
C154   C     0.24992   0.43682   0.76252   0.00000  Uiso   1.00
C155   C     0.14817   0.31052   0.77177   0.00000  Uiso   1.00
C156   C     0.29249   0.76367   0.77328   0.00000  Uiso   1.00
C157   C     0.39352   0.86095   0.79354   0.00000  Uiso   1.00
C158   C     0.35745   0.92862   0.81698   0.00000  Uiso   1.00
C159   C     0.25492   0.70006   0.71220   0.00000  Uiso   1.00
C160   C     0.32437   0.74389   0.68113   0.00000  Uiso   1.00
C161   C     0.25667   0.75805   0.65315   0.00000  Uiso   1.00
H162   H     0.96286   0.60260   0.75397   0.00000  Uiso   1.00
H163   H     0.87785   0.35625   0.77104   0.00000  Uiso   1.00
H164   H     0.02144   0.78033   0.80206   0.00000  Uiso   1.00
H165   H     0.95229   0.66329   0.68966   0.00000  Uiso   1.00
H166   H     0.84199   0.09579   0.78865   0.00000  Uiso   1.00
H167   H     0.14476   0.99000   0.85404   0.00000  Uiso   1.00
H168   H     0.99894   0.74321   0.61703   0.00000  Uiso   1.00
H169   H     0.41270   0.70006   0.74366   0.00000  Uiso   1.00
H170   H     0.35237   0.45904   0.76017   0.00000  Uiso   1.00
H171   H     0.49595   0.88312   0.79119   0.00000  Uiso   1.00
H172   H     0.42681   0.76608   0.67879   0.00000  Uiso   1.00
H173   H     0.22713   0.17922   0.77983   0.00000  Uiso   1.00
H174   H     0.52989   0.07344   0.84522   0.00000  Uiso   1.00
H175   H     0.38408   0.82664   0.60820   0.00000  Uiso   1.00
O176   O     0.98676   0.97722   0.79529   0.00000  Uiso   1.00
O177   O     0.38398   0.15040   0.88108   0.00000  Uiso   1.00
O178   O     0.19268   0.82660   0.57012   0.00000  Uiso   1.00
N179   N     0.94090   0.14849   0.78430   0.00000  Uiso   1.00
N180   N     0.22397   0.98451   0.84544   0.00000  Uiso   1.00
N181   N     0.08766   0.75381   0.62385   0.00000  Uiso   1.00
N182   N     0.14814   0.19339   0.77955   0.00000  Uiso   1.00
N183   N     0.43121   0.02941   0.84069   0.00000  Uiso   1.00
N184   N     0.29490   0.79871   0.61911   0.00000  Uiso   1.00
C185   C     0.55901   0.93408   0.08494   0.00000  Uiso   1.00
C186   C     0.42248   0.91790   0.09278   0.00000  Uiso   1.00
C187   C     0.39812   0.01972   0.10203   0.00000  Uiso   1.00
C188   C     0.26624   0.98445   0.10814   0.00000  Uiso   1.00
C189   C     0.07003   0.97944   0.12080   0.00000  Uiso   1.00
C190   C     0.57487   0.83988   0.10964   0.00000  Uiso   1.00
C191   C     0.67865   0.87612   0.13305   0.00000  Uiso   1.00
C192   C     0.67505   0.77516   0.15335   0.00000  Uiso   1.00
C193   C     0.71548   0.64902   0.19216   0.00000  Uiso   1.00
C194   C     0.54884   0.87746   0.04857   0.00000  Uiso   1.00
C195   C     0.63076   0.94527   0.02064   0.00000  Uiso   1.00
C196   C     0.60526   0.87594   0.98952   0.00000  Uiso   1.00
C197   C     0.60528   0.80815   0.93351   0.00000  Uiso   1.00
C198   C     0.36809   0.69037   0.07936   0.00000  Uiso   1.00
C199   C     0.31879   0.78552   0.08975   0.00000  Uiso   1.00
C200   C     0.18690   0.75008   0.09585   0.00000  Uiso   1.00
C201   C     0.16235   0.85183   0.10510   0.00000  Uiso   1.00
C202   C     0.47118   0.70751   0.10661   0.00000  Uiso   1.00
C203   C     0.46742   0.60648   0.12688   0.00000  Uiso   1.00
C204   C     0.57116   0.64255   0.15032   0.00000  Uiso   1.00
C205   C     0.44514   0.74508   0.04554   0.00000  Uiso   1.00
C206   C     0.41953   0.67563   0.01446   0.00000  Uiso   1.00
C207   C     0.50138   0.74333   0.98649   0.00000  Uiso   1.00
H208   H     0.63974   0.03714   0.08730   0.00000  Uiso   1.00
H209   H     0.47840   0.12215   0.10438   0.00000  Uiso   1.00
H210   H     0.75889   0.97856   0.13539   0.00000  Uiso   1.00
H211   H     0.71100   0.04771   0.02299   0.00000  Uiso   1.00
H212   H     0.25380   0.15801   0.12198   0.00000  Uiso   1.00
H213   H     0.84525   0.85524   0.18737   0.00000  Uiso   1.00
H214   H     0.74426   0.00106   0.95036   0.00000  Uiso   1.00
H215   H     0.28736   0.58730   0.07700   0.00000  Uiso   1.00
H216   H     0.10667   0.64763   0.09350   0.00000  Uiso   1.00
H217   H     0.38716   0.50405   0.12452   0.00000  Uiso   1.00
H218   H     0.33927   0.57319   0.01212   0.00000  Uiso   1.00
H219   H     0.95209   0.77287   0.11316   0.00000  Uiso   1.00
H220   H     0.54354   0.47011   0.17855   0.00000  Uiso   1.00
H221   H     0.44255   0.61592   0.94154   0.00000  Uiso   1.00
O222   O     0.99045   0.01324   0.12863   0.00000  Uiso   1.00
O223   O     0.76642   0.61602   0.21441   0.00000  Uiso   1.00
O224   O     0.63392   0.80732   0.90346   0.00000  Uiso   1.00
N225   N     0.20759   0.05910   0.11763   0.00000  Uiso   1.00
N226   N     0.76054   0.77603   0.17877   0.00000  Uiso   1.00
N227   N     0.66615   0.91234   0.95719   0.00000  Uiso   1.00
N228   N     0.04524   0.85186   0.11288   0.00000  Uiso   1.00
N229   N     0.59820   0.56879   0.17403   0.00000  Uiso   1.00
N230   N     0.50381   0.70510   0.95244   0.00000  Uiso   1.00
C231   C     0.37508   0.44099   0.41827   0.00000  Uiso   1.00
C232   C     0.49541   0.57752   0.42612   0.00000  Uiso   1.00
C233   C     0.62160   0.60188   0.43536   0.00000  Uiso   1.00
C234   C     0.71821   0.73376   0.44148   0.00000  Uiso   1.00
C235   C     0.90941   0.92997   0.45414   0.00000  Uiso   1.00
C236   C     0.26501   0.42513   0.44297   0.00000  Uiso   1.00
C237   C     0.19747   0.32135   0.46639   0.00000  Uiso   1.00
C238   C     0.10011   0.32495   0.48669   0.00000  Uiso   1.00
C239   C     0.93354   0.28452   0.52550   0.00000  Uiso   1.00
C240   C     0.32862   0.45116   0.38190   0.00000  Uiso   1.00
C241   C     0.31451   0.36924   0.35397   0.00000  Uiso   1.00
C242   C     0.27068   0.39474   0.32286   0.00000  Uiso   1.00
C243   C     0.20286   0.39472   0.26685   0.00000  Uiso   1.00
C244   C     0.32228   0.63191   0.41269   0.00000  Uiso   1.00
C245   C     0.46673   0.68121   0.42309   0.00000  Uiso   1.00
C246   C     0.56318   0.81310   0.42919   0.00000  Uiso   1.00
C247   C     0.68948   0.83765   0.43844   0.00000  Uiso   1.00
C248   C     0.23633   0.52882   0.43994   0.00000  Uiso   1.00
C249   C     0.13905   0.53258   0.46021   0.00000  Uiso   1.00
C250   C     0.07138   0.42884   0.48365   0.00000  Uiso   1.00
C251   C     0.29994   0.55486   0.37887   0.00000  Uiso   1.00
C252   C     0.25611   0.58047   0.34779   0.00000  Uiso   1.00
C253   C     0.24195   0.49862   0.31982   0.00000  Uiso   1.00
H254   H     0.39740   0.36026   0.42063   0.00000  Uiso   1.00
H255   H     0.64375   0.52160   0.43771   0.00000  Uiso   1.00
H256   H     0.21967   0.24111   0.46873   0.00000  Uiso   1.00
H257   H     0.33671   0.28900   0.35633   0.00000  Uiso   1.00
H258   H     0.90421   0.74620   0.45531   0.00000  Uiso   1.00
H259   H     0.01000   0.15475   0.52071   0.00000  Uiso   1.00
H260   H     0.25679   0.25574   0.28369   0.00000  Uiso   1.00
H261   H     0.29994   0.71264   0.41033   0.00000  Uiso   1.00
H262   H     0.54096   0.89333   0.42684   0.00000  Uiso   1.00
H263   H     0.11688   0.61284   0.45786   0.00000  Uiso   1.00
H264   H     0.23392   0.66073   0.34546   0.00000  Uiso   1.00
H265   H     0.82078   0.04791   0.44649   0.00000  Uiso   1.00
H266   H     0.92656   0.45646   0.51188   0.00000  Uiso   1.00
H267   H     0.17336   0.55745   0.27487   0.00000  Uiso   1.00
O268   O     0.02278   0.00955   0.46196   0.00000  Uiso   1.00
O269   O     0.84960   0.23358   0.54775   0.00000  Uiso   1.00
O270   O     0.17340   0.36608   0.23679   0.00000  Uiso   1.00
N271   N     0.85151   0.79241   0.45097   0.00000  Uiso   1.00
N272   N     0.01549   0.23946   0.51211   0.00000  Uiso   1.00
N273   N     0.24619   0.33385   0.29052   0.00000  Uiso   1.00
N274   N     0.80661   0.95476   0.44622   0.00000  Uiso   1.00
N275   N     0.97059   0.40180   0.50736   0.00000  Uiso   1.00
N276   N     0.20129   0.49619   0.28577   0.00000  Uiso   1.00
