data_job_01797
_audit_creation_date              2018-12-19
_audit_creation_method            'Materials Studio'
_symmetry_space_group_name_H-M    'P1'
_symmetry_Int_Tables_number       1
_symmetry_cell_setting            triclinic
loop_
_symmetry_equiv_pos_as_xyz
  x,y,z
_cell_length_a                    38.1662
_cell_length_b                    21.1026
_cell_length_c                    10.8571
_cell_angle_alpha                 90.0000
_cell_angle_beta                  90.0000
_cell_angle_gamma                 90.0000
loop_
_atom_site_label
_atom_site_type_symbol
_atom_site_fract_x
_atom_site_fract_y
_atom_site_fract_z
_atom_site_U_iso_or_equiv
_atom_site_adp_type
_atom_site_occupancy
C1     C     0.57880   0.20750   0.12416   0.00000  Uiso   1.00
C2     C     0.57167   0.14137   0.17494   0.00000  Uiso   1.00
C3     C     0.56618   0.12633   0.29787   0.00000  Uiso   1.00
C4     C     0.56010   0.06305   0.32559   0.00000  Uiso   1.00
C5     C     0.54914   0.96743   0.41844   0.00000  Uiso   1.00
C6     C     0.61335   0.20292   0.05420   0.00000  Uiso   1.00
C7     C     0.64290   0.23962   0.07561   0.00000  Uiso   1.00
C8     C     0.67190   0.22816   0.00167   0.00000  Uiso   1.00
C9     C     0.72564   0.22812   0.90702   0.00000  Uiso   1.00
C10    C     0.55065   0.21954   0.02726   0.00000  Uiso   1.00
C11    C     0.52749   0.27024   0.02598   0.00000  Uiso   1.00
C12    C     0.50370   0.27278   0.92934   0.00000  Uiso   1.00
C13    C     0.46009   0.29856   0.79286   0.00000  Uiso   1.00
C14    C     0.57775   0.12188   0.95479   0.00000  Uiso   1.00
C15    C     0.57110   0.09487   0.08294   0.00000  Uiso   1.00
C16    C     0.56502   0.03159   0.11048   0.00000  Uiso   1.00
C17    C     0.55953   0.01646   0.23343   0.00000  Uiso   1.00
C18    C     0.61278   0.15641   0.96221   0.00000  Uiso   1.00
C19    C     0.64174   0.14489   0.88822   0.00000  Uiso   1.00
C20    C     0.67133   0.18157   0.90951   0.00000  Uiso   1.00
C21    C     0.55008   0.17304   0.93526   0.00000  Uiso   1.00
C22    C     0.52633   0.17550   0.83860   0.00000  Uiso   1.00
C23    C     0.50313   0.22619   0.83718   0.00000  Uiso   1.00
H24    H     0.57924   0.24371   0.19577   0.00000  Uiso   1.00
H25    H     0.56663   0.16233   0.36904   0.00000  Uiso   1.00
H26    H     0.64333   0.27561   0.14680   0.00000  Uiso   1.00
H27    H     0.52794   0.30622   0.09719   0.00000  Uiso   1.00
H28    H     0.55241   0.05159   0.52056   0.00000  Uiso   1.00
H29    H     0.71414   0.29047   0.05194   0.00000  Uiso   1.00
H30    H     0.47081   0.35501   0.94732   0.00000  Uiso   1.00
H31    H     0.57730   0.08567   0.88316   0.00000  Uiso   1.00
H32    H     0.56458   0.99562   0.03927   0.00000  Uiso   1.00
H33    H     0.64129   0.10890   0.81704   0.00000  Uiso   1.00
H34    H     0.52589   0.13951   0.76743   0.00000  Uiso   1.00
H35    H     0.55075   0.91628   0.25292   0.00000  Uiso   1.00
H36    H     0.71248   0.15516   0.78429   0.00000  Uiso   1.00
H37    H     0.46915   0.21970   0.67967   0.00000  Uiso   1.00
O38    O     0.54326   0.92754   0.49508   0.00000  Uiso   1.00
O39    O     0.75544   0.24095   0.88024   0.00000  Uiso   1.00
O40    O     0.43619   0.32562   0.74300   0.00000  Uiso   1.00
N41    N     0.55376   0.03210   0.43614   0.00000  Uiso   1.00
N42    N     0.70497   0.25544   0.99802   0.00000  Uiso   1.00
N43    N     0.47748   0.31578   0.90019   0.00000  Uiso   1.00
N44    N     0.55286   0.95930   0.29213   0.00000  Uiso   1.00
N45    N     0.70408   0.18263   0.85400   0.00000  Uiso   1.00
N46    N     0.47658   0.24297   0.75618   0.00000  Uiso   1.00
C47    C     0.08309   0.86083   0.44851   0.00000  Uiso   1.00
C48    C     0.07189   0.92563   0.40038   0.00000  Uiso   1.00
C49    C     0.06231   0.93938   0.28002   0.00000  Uiso   1.00
C50    C     0.05293   0.00158   0.25448   0.00000  Uiso   1.00
C51    C     0.03553   0.09510   0.16580   0.00000  Uiso   1.00
C52    C     0.11920   0.87023   0.50578   0.00000  Uiso   1.00
C53    C     0.14939   0.83740   0.47404   0.00000  Uiso   1.00
C54    C     0.17982   0.85296   0.53725   0.00000  Uiso   1.00
C55    C     0.23586   0.86045   0.61227   0.00000  Uiso   1.00
C56    C     0.05843   0.84555   0.55495   0.00000  Uiso   1.00
C57    C     0.03753   0.79196   0.56457   0.00000  Uiso   1.00
C58    C     0.01681   0.78673   0.66919   0.00000  Uiso   1.00
C59    C     0.97850   0.75589   0.82055   0.00000  Uiso   1.00
C60    C     0.08346   0.94682   0.61720   0.00000  Uiso   1.00
C61    C     0.07210   0.97233   0.49202   0.00000  Uiso   1.00
C62    C     0.06272   0.03452   0.46666   0.00000  Uiso   1.00
C63    C     0.05313   0.04837   0.34627   0.00000  Uiso   1.00
C64    C     0.11940   0.91694   0.59741   0.00000  Uiso   1.00
C65    C     0.14979   0.93254   0.66069   0.00000  Uiso   1.00
C66    C     0.18002   0.89975   0.62904   0.00000  Uiso   1.00
C67    C     0.05863   0.89226   0.64658   0.00000  Uiso   1.00
C68    C     0.03794   0.88710   0.75121   0.00000  Uiso   1.00
C69    C     0.01701   0.83352   0.76098   0.00000  Uiso   1.00
H70    H     0.08293   0.82446   0.37717   0.00000  Uiso   1.00
H71    H     0.06216   0.90323   0.20913   0.00000  Uiso   1.00
H72    H     0.14922   0.80126   0.40314   0.00000  Uiso   1.00
H73    H     0.03738   0.75583   0.49365   0.00000  Uiso   1.00
H74    H     0.03924   0.01115   0.06322   0.00000  Uiso   1.00
H75    H     0.22280   0.79613   0.47233   0.00000  Uiso   1.00
H76    H     0.98697   0.70033   0.66319   0.00000  Uiso   1.00
H77    H     0.08362   0.98318   0.68855   0.00000  Uiso   1.00
H78    H     0.06288   0.07066   0.53758   0.00000  Uiso   1.00
H79    H     0.14994   0.96869   0.73159   0.00000  Uiso   1.00
H80    H     0.03810   0.92326   0.82210   0.00000  Uiso   1.00
H81    H     0.03982   0.14704   0.32980   0.00000  Uiso   1.00
H82    H     0.22338   0.93202   0.73892   0.00000  Uiso   1.00
H83    H     0.98755   0.83622   0.92977   0.00000  Uiso   1.00
O84    O     0.02589   0.13378   0.09158   0.00000  Uiso   1.00
O85    O     0.26671   0.85167   0.62833   0.00000  Uiso   1.00
O86    O     0.95731   0.72599   0.87872   0.00000  Uiso   1.00
N87    N     0.04221   0.03113   0.14668   0.00000  Uiso   1.00
N88    N     0.21383   0.83010   0.52916   0.00000  Uiso   1.00
N89    N     0.99336   0.74053   0.70761   0.00000  Uiso   1.00
N90    N     0.04253   0.10425   0.29013   0.00000  Uiso   1.00
N91    N     0.21415   0.90323   0.67261   0.00000  Uiso   1.00
N92    N     0.99367   0.81365   0.85106   0.00000  Uiso   1.00
C93    C     0.42120   0.79250   0.12416   0.00000  Uiso   1.00
C94    C     0.42833   0.85863   0.17494   0.00000  Uiso   1.00
C95    C     0.43382   0.87367   0.29787   0.00000  Uiso   1.00
C96    C     0.43990   0.93695   0.32559   0.00000  Uiso   1.00
C97    C     0.45086   0.03257   0.41844   0.00000  Uiso   1.00
C98    C     0.38665   0.79708   0.05420   0.00000  Uiso   1.00
C99    C     0.35710   0.76038   0.07561   0.00000  Uiso   1.00
C100   C     0.32810   0.77184   0.00167   0.00000  Uiso   1.00
C101   C     0.27436   0.77188   0.90702   0.00000  Uiso   1.00
C102   C     0.44935   0.78046   0.02726   0.00000  Uiso   1.00
C103   C     0.47251   0.72976   0.02598   0.00000  Uiso   1.00
C104   C     0.49630   0.72722   0.92934   0.00000  Uiso   1.00
C105   C     0.53991   0.70144   0.79286   0.00000  Uiso   1.00
C106   C     0.42225   0.87812   0.95479   0.00000  Uiso   1.00
C107   C     0.42890   0.90513   0.08294   0.00000  Uiso   1.00
C108   C     0.43498   0.96841   0.11048   0.00000  Uiso   1.00
C109   C     0.44047   0.98354   0.23343   0.00000  Uiso   1.00
C110   C     0.38722   0.84359   0.96221   0.00000  Uiso   1.00
C111   C     0.35826   0.85511   0.88822   0.00000  Uiso   1.00
C112   C     0.32867   0.81843   0.90951   0.00000  Uiso   1.00
C113   C     0.44992   0.82696   0.93526   0.00000  Uiso   1.00
C114   C     0.47367   0.82450   0.83860   0.00000  Uiso   1.00
C115   C     0.49687   0.77381   0.83718   0.00000  Uiso   1.00
H116   H     0.42076   0.75629   0.19577   0.00000  Uiso   1.00
H117   H     0.43337   0.83767   0.36904   0.00000  Uiso   1.00
H118   H     0.35667   0.72439   0.14680   0.00000  Uiso   1.00
H119   H     0.47206   0.69378   0.09719   0.00000  Uiso   1.00
H120   H     0.44759   0.94841   0.52056   0.00000  Uiso   1.00
H121   H     0.28586   0.70953   0.05194   0.00000  Uiso   1.00
H122   H     0.52919   0.64499   0.94732   0.00000  Uiso   1.00
H123   H     0.42270   0.91433   0.88316   0.00000  Uiso   1.00
H124   H     0.43542   0.00438   0.03927   0.00000  Uiso   1.00
H125   H     0.35871   0.89110   0.81704   0.00000  Uiso   1.00
H126   H     0.47411   0.86049   0.76743   0.00000  Uiso   1.00
H127   H     0.44925   0.08372   0.25292   0.00000  Uiso   1.00
H128   H     0.28752   0.84484   0.78429   0.00000  Uiso   1.00
H129   H     0.53085   0.78030   0.67967   0.00000  Uiso   1.00
O130   O     0.45674   0.07246   0.49508   0.00000  Uiso   1.00
O131   O     0.24456   0.75905   0.88024   0.00000  Uiso   1.00
O132   O     0.56381   0.67438   0.74300   0.00000  Uiso   1.00
N133   N     0.44624   0.96790   0.43614   0.00000  Uiso   1.00
N134   N     0.29503   0.74456   0.99802   0.00000  Uiso   1.00
N135   N     0.52252   0.68422   0.90019   0.00000  Uiso   1.00
N136   N     0.44714   0.04070   0.29213   0.00000  Uiso   1.00
N137   N     0.29592   0.81737   0.85400   0.00000  Uiso   1.00
N138   N     0.52342   0.75703   0.75618   0.00000  Uiso   1.00
C139   C     0.91691   0.13917   0.44851   0.00000  Uiso   1.00
C140   C     0.92811   0.07437   0.40038   0.00000  Uiso   1.00
C141   C     0.93769   0.06062   0.28002   0.00000  Uiso   1.00
C142   C     0.94707   0.99842   0.25448   0.00000  Uiso   1.00
C143   C     0.96447   0.90490   0.16580   0.00000  Uiso   1.00
C144   C     0.88080   0.12977   0.50578   0.00000  Uiso   1.00
C145   C     0.85061   0.16260   0.47404   0.00000  Uiso   1.00
C146   C     0.82018   0.14704   0.53725   0.00000  Uiso   1.00
C147   C     0.76414   0.13955   0.61227   0.00000  Uiso   1.00
C148   C     0.94157   0.15445   0.55495   0.00000  Uiso   1.00
C149   C     0.96247   0.20804   0.56457   0.00000  Uiso   1.00
C150   C     0.98319   0.21327   0.66919   0.00000  Uiso   1.00
C151   C     0.02150   0.24411   0.82055   0.00000  Uiso   1.00
C152   C     0.91654   0.05318   0.61720   0.00000  Uiso   1.00
C153   C     0.92790   0.02767   0.49202   0.00000  Uiso   1.00
C154   C     0.93728   0.96548   0.46666   0.00000  Uiso   1.00
C155   C     0.94687   0.95163   0.34627   0.00000  Uiso   1.00
C156   C     0.88060   0.08306   0.59741   0.00000  Uiso   1.00
C157   C     0.85021   0.06746   0.66069   0.00000  Uiso   1.00
C158   C     0.81998   0.10025   0.62904   0.00000  Uiso   1.00
C159   C     0.94137   0.10774   0.64658   0.00000  Uiso   1.00
C160   C     0.96206   0.11290   0.75121   0.00000  Uiso   1.00
C161   C     0.98299   0.16648   0.76098   0.00000  Uiso   1.00
H162   H     0.91707   0.17554   0.37717   0.00000  Uiso   1.00
H163   H     0.93784   0.09677   0.20913   0.00000  Uiso   1.00
H164   H     0.85078   0.19874   0.40314   0.00000  Uiso   1.00
H165   H     0.96262   0.24417   0.49365   0.00000  Uiso   1.00
H166   H     0.96076   0.98885   0.06322   0.00000  Uiso   1.00
H167   H     0.77720   0.20387   0.47233   0.00000  Uiso   1.00
H168   H     0.01303   0.29967   0.66319   0.00000  Uiso   1.00
H169   H     0.91638   0.01682   0.68855   0.00000  Uiso   1.00
H170   H     0.93712   0.92934   0.53758   0.00000  Uiso   1.00
H171   H     0.85006   0.03131   0.73159   0.00000  Uiso   1.00
H172   H     0.96190   0.07674   0.82210   0.00000  Uiso   1.00
H173   H     0.96018   0.85296   0.32980   0.00000  Uiso   1.00
H174   H     0.77662   0.06798   0.73892   0.00000  Uiso   1.00
H175   H     0.01245   0.16378   0.92977   0.00000  Uiso   1.00
O176   O     0.97411   0.86622   0.09158   0.00000  Uiso   1.00
O177   O     0.73329   0.14833   0.62833   0.00000  Uiso   1.00
O178   O     0.04269   0.27401   0.87872   0.00000  Uiso   1.00
N179   N     0.95779   0.96887   0.14668   0.00000  Uiso   1.00
N180   N     0.78617   0.16990   0.52916   0.00000  Uiso   1.00
N181   N     0.00664   0.25947   0.70761   0.00000  Uiso   1.00
N182   N     0.95747   0.89575   0.29013   0.00000  Uiso   1.00
N183   N     0.78585   0.09677   0.67261   0.00000  Uiso   1.00
N184   N     0.00633   0.18635   0.85106   0.00000  Uiso   1.00
C185   C     0.57880   0.29250   0.62416   0.00000  Uiso   1.00
C186   C     0.57167   0.35863   0.67494   0.00000  Uiso   1.00
C187   C     0.56618   0.37367   0.79787   0.00000  Uiso   1.00
C188   C     0.56010   0.43695   0.82559   0.00000  Uiso   1.00
C189   C     0.54914   0.53257   0.91844   0.00000  Uiso   1.00
C190   C     0.61335   0.29708   0.55420   0.00000  Uiso   1.00
C191   C     0.64290   0.26038   0.57561   0.00000  Uiso   1.00
C192   C     0.67190   0.27184   0.50167   0.00000  Uiso   1.00
C193   C     0.72564   0.27188   0.40702   0.00000  Uiso   1.00
C194   C     0.55065   0.28046   0.52726   0.00000  Uiso   1.00
C195   C     0.52749   0.22976   0.52598   0.00000  Uiso   1.00
C196   C     0.50370   0.22722   0.42934   0.00000  Uiso   1.00
C197   C     0.46009   0.20144   0.29286   0.00000  Uiso   1.00
C198   C     0.57775   0.37812   0.45479   0.00000  Uiso   1.00
C199   C     0.57110   0.40513   0.58294   0.00000  Uiso   1.00
C200   C     0.56502   0.46841   0.61048   0.00000  Uiso   1.00
C201   C     0.55953   0.48354   0.73343   0.00000  Uiso   1.00
C202   C     0.61278   0.34359   0.46221   0.00000  Uiso   1.00
C203   C     0.64174   0.35511   0.38822   0.00000  Uiso   1.00
C204   C     0.67133   0.31843   0.40951   0.00000  Uiso   1.00
C205   C     0.55008   0.32696   0.43526   0.00000  Uiso   1.00
C206   C     0.52633   0.32450   0.33860   0.00000  Uiso   1.00
C207   C     0.50313   0.27381   0.33718   0.00000  Uiso   1.00
H208   H     0.57924   0.25629   0.69577   0.00000  Uiso   1.00
H209   H     0.56663   0.33767   0.86904   0.00000  Uiso   1.00
H210   H     0.64333   0.22439   0.64680   0.00000  Uiso   1.00
H211   H     0.52794   0.19378   0.59719   0.00000  Uiso   1.00
H212   H     0.55241   0.44841   0.02056   0.00000  Uiso   1.00
H213   H     0.71414   0.20953   0.55194   0.00000  Uiso   1.00
H214   H     0.47081   0.14499   0.44732   0.00000  Uiso   1.00
H215   H     0.57730   0.41433   0.38316   0.00000  Uiso   1.00
H216   H     0.56458   0.50438   0.53927   0.00000  Uiso   1.00
H217   H     0.64129   0.39110   0.31704   0.00000  Uiso   1.00
H218   H     0.52589   0.36049   0.26743   0.00000  Uiso   1.00
H219   H     0.55075   0.58372   0.75292   0.00000  Uiso   1.00
H220   H     0.71248   0.34484   0.28429   0.00000  Uiso   1.00
H221   H     0.46915   0.28030   0.17967   0.00000  Uiso   1.00
O222   O     0.54326   0.57246   0.99508   0.00000  Uiso   1.00
O223   O     0.75544   0.25905   0.38024   0.00000  Uiso   1.00
O224   O     0.43619   0.17438   0.24300   0.00000  Uiso   1.00
N225   N     0.55376   0.46790   0.93614   0.00000  Uiso   1.00
N226   N     0.70497   0.24456   0.49802   0.00000  Uiso   1.00
N227   N     0.47748   0.18422   0.40019   0.00000  Uiso   1.00
N228   N     0.55286   0.54070   0.79213   0.00000  Uiso   1.00
N229   N     0.70408   0.31737   0.35400   0.00000  Uiso   1.00
N230   N     0.47658   0.25703   0.25618   0.00000  Uiso   1.00
C231   C     0.08309   0.63917   0.94851   0.00000  Uiso   1.00
C232   C     0.07189   0.57437   0.90038   0.00000  Uiso   1.00
C233   C     0.06231   0.56062   0.78002   0.00000  Uiso   1.00
C234   C     0.05293   0.49842   0.75448   0.00000  Uiso   1.00
C235   C     0.03553   0.40490   0.66580   0.00000  Uiso   1.00
C236   C     0.11920   0.62977   0.00578   0.00000  Uiso   1.00
C237   C     0.14939   0.66260   0.97404   0.00000  Uiso   1.00
C238   C     0.17982   0.64704   0.03725   0.00000  Uiso   1.00
C239   C     0.23586   0.63955   0.11227   0.00000  Uiso   1.00
C240   C     0.05843   0.65445   0.05495   0.00000  Uiso   1.00
C241   C     0.03753   0.70804   0.06457   0.00000  Uiso   1.00
C242   C     0.01681   0.71327   0.16919   0.00000  Uiso   1.00
C243   C     0.97850   0.74411   0.32055   0.00000  Uiso   1.00
C244   C     0.08346   0.55318   0.11720   0.00000  Uiso   1.00
C245   C     0.07210   0.52767   0.99202   0.00000  Uiso   1.00
C246   C     0.06272   0.46548   0.96666   0.00000  Uiso   1.00
C247   C     0.05313   0.45163   0.84627   0.00000  Uiso   1.00
C248   C     0.11940   0.58306   0.09741   0.00000  Uiso   1.00
C249   C     0.14979   0.56746   0.16069   0.00000  Uiso   1.00
C250   C     0.18002   0.60025   0.12904   0.00000  Uiso   1.00
C251   C     0.05863   0.60774   0.14658   0.00000  Uiso   1.00
C252   C     0.03794   0.61290   0.25121   0.00000  Uiso   1.00
C253   C     0.01701   0.66648   0.26098   0.00000  Uiso   1.00
H254   H     0.08293   0.67554   0.87717   0.00000  Uiso   1.00
H255   H     0.06216   0.59677   0.70913   0.00000  Uiso   1.00
H256   H     0.14922   0.69874   0.90314   0.00000  Uiso   1.00
H257   H     0.03738   0.74417   0.99365   0.00000  Uiso   1.00
H258   H     0.03924   0.48885   0.56322   0.00000  Uiso   1.00
H259   H     0.22280   0.70387   0.97233   0.00000  Uiso   1.00
H260   H     0.98697   0.79967   0.16319   0.00000  Uiso   1.00
H261   H     0.08362   0.51682   0.18855   0.00000  Uiso   1.00
H262   H     0.06288   0.42934   0.03758   0.00000  Uiso   1.00
H263   H     0.14994   0.53131   0.23159   0.00000  Uiso   1.00
H264   H     0.03810   0.57674   0.32210   0.00000  Uiso   1.00
H265   H     0.03982   0.35296   0.82980   0.00000  Uiso   1.00
H266   H     0.22338   0.56798   0.23892   0.00000  Uiso   1.00
H267   H     0.98755   0.66378   0.42977   0.00000  Uiso   1.00
O268   O     0.02589   0.36622   0.59158   0.00000  Uiso   1.00
O269   O     0.26671   0.64833   0.12833   0.00000  Uiso   1.00
O270   O     0.95731   0.77401   0.37872   0.00000  Uiso   1.00
N271   N     0.04221   0.46887   0.64668   0.00000  Uiso   1.00
N272   N     0.21383   0.66990   0.02916   0.00000  Uiso   1.00
N273   N     0.99336   0.75947   0.20761   0.00000  Uiso   1.00
N274   N     0.04253   0.39575   0.79013   0.00000  Uiso   1.00
N275   N     0.21415   0.59677   0.17261   0.00000  Uiso   1.00
N276   N     0.99367   0.68635   0.35106   0.00000  Uiso   1.00
C277   C     0.42120   0.70750   0.62416   0.00000  Uiso   1.00
C278   C     0.42833   0.64137   0.67494   0.00000  Uiso   1.00
C279   C     0.43382   0.62633   0.79787   0.00000  Uiso   1.00
C280   C     0.43990   0.56305   0.82559   0.00000  Uiso   1.00
C281   C     0.45086   0.46743   0.91844   0.00000  Uiso   1.00
C282   C     0.38665   0.70292   0.55420   0.00000  Uiso   1.00
C283   C     0.35710   0.73962   0.57561   0.00000  Uiso   1.00
C284   C     0.32810   0.72816   0.50167   0.00000  Uiso   1.00
C285   C     0.27436   0.72812   0.40702   0.00000  Uiso   1.00
C286   C     0.44935   0.71954   0.52726   0.00000  Uiso   1.00
C287   C     0.47251   0.77024   0.52598   0.00000  Uiso   1.00
C288   C     0.49630   0.77278   0.42934   0.00000  Uiso   1.00
C289   C     0.53991   0.79856   0.29286   0.00000  Uiso   1.00
C290   C     0.42225   0.62188   0.45479   0.00000  Uiso   1.00
C291   C     0.42890   0.59487   0.58294   0.00000  Uiso   1.00
C292   C     0.43498   0.53159   0.61048   0.00000  Uiso   1.00
C293   C     0.44047   0.51646   0.73343   0.00000  Uiso   1.00
C294   C     0.38722   0.65641   0.46221   0.00000  Uiso   1.00
C295   C     0.35826   0.64489   0.38822   0.00000  Uiso   1.00
C296   C     0.32867   0.68157   0.40951   0.00000  Uiso   1.00
C297   C     0.44992   0.67304   0.43526   0.00000  Uiso   1.00
C298   C     0.47367   0.67550   0.33860   0.00000  Uiso   1.00
C299   C     0.49687   0.72619   0.33718   0.00000  Uiso   1.00
H300   H     0.42076   0.74371   0.69577   0.00000  Uiso   1.00
H301   H     0.43337   0.66233   0.86904   0.00000  Uiso   1.00
H302   H     0.35667   0.77561   0.64680   0.00000  Uiso   1.00
H303   H     0.47206   0.80622   0.59719   0.00000  Uiso   1.00
H304   H     0.44759   0.55159   0.02056   0.00000  Uiso   1.00
H305   H     0.28586   0.79047   0.55194   0.00000  Uiso   1.00
H306   H     0.52919   0.85501   0.44732   0.00000  Uiso   1.00
H307   H     0.42270   0.58567   0.38316   0.00000  Uiso   1.00
H308   H     0.43542   0.49562   0.53927   0.00000  Uiso   1.00
H309   H     0.35871   0.60890   0.31704   0.00000  Uiso   1.00
H310   H     0.47411   0.63951   0.26743   0.00000  Uiso   1.00
H311   H     0.44925   0.41628   0.75292   0.00000  Uiso   1.00
H312   H     0.28752   0.65516   0.28429   0.00000  Uiso   1.00
H313   H     0.53085   0.71970   0.17967   0.00000  Uiso   1.00
O314   O     0.45674   0.42754   0.99508   0.00000  Uiso   1.00
O315   O     0.24456   0.74095   0.38024   0.00000  Uiso   1.00
O316   O     0.56381   0.82562   0.24300   0.00000  Uiso   1.00
N317   N     0.44624   0.53210   0.93614   0.00000  Uiso   1.00
N318   N     0.29503   0.75544   0.49802   0.00000  Uiso   1.00
N319   N     0.52252   0.81578   0.40019   0.00000  Uiso   1.00
N320   N     0.44714   0.45930   0.79213   0.00000  Uiso   1.00
N321   N     0.29592   0.68263   0.35400   0.00000  Uiso   1.00
N322   N     0.52342   0.74297   0.25618   0.00000  Uiso   1.00
C323   C     0.91691   0.36083   0.94851   0.00000  Uiso   1.00
C324   C     0.92811   0.42563   0.90038   0.00000  Uiso   1.00
C325   C     0.93769   0.43938   0.78002   0.00000  Uiso   1.00
C326   C     0.94707   0.50158   0.75448   0.00000  Uiso   1.00
C327   C     0.96447   0.59510   0.66580   0.00000  Uiso   1.00
C328   C     0.88080   0.37023   0.00578   0.00000  Uiso   1.00
C329   C     0.85061   0.33740   0.97404   0.00000  Uiso   1.00
C330   C     0.82018   0.35296   0.03725   0.00000  Uiso   1.00
C331   C     0.76414   0.36045   0.11227   0.00000  Uiso   1.00
C332   C     0.94157   0.34555   0.05495   0.00000  Uiso   1.00
C333   C     0.96247   0.29196   0.06457   0.00000  Uiso   1.00
C334   C     0.98319   0.28673   0.16919   0.00000  Uiso   1.00
C335   C     0.02150   0.25589   0.32055   0.00000  Uiso   1.00
C336   C     0.91654   0.44682   0.11720   0.00000  Uiso   1.00
C337   C     0.92790   0.47233   0.99202   0.00000  Uiso   1.00
C338   C     0.93728   0.53452   0.96666   0.00000  Uiso   1.00
C339   C     0.94687   0.54837   0.84627   0.00000  Uiso   1.00
C340   C     0.88060   0.41694   0.09741   0.00000  Uiso   1.00
C341   C     0.85021   0.43254   0.16069   0.00000  Uiso   1.00
C342   C     0.81998   0.39975   0.12904   0.00000  Uiso   1.00
C343   C     0.94137   0.39226   0.14658   0.00000  Uiso   1.00
C344   C     0.96206   0.38710   0.25121   0.00000  Uiso   1.00
C345   C     0.98299   0.33352   0.26098   0.00000  Uiso   1.00
H346   H     0.91707   0.32446   0.87717   0.00000  Uiso   1.00
H347   H     0.93784   0.40323   0.70913   0.00000  Uiso   1.00
H348   H     0.85078   0.30126   0.90314   0.00000  Uiso   1.00
H349   H     0.96262   0.25583   0.99365   0.00000  Uiso   1.00
H350   H     0.96076   0.51115   0.56322   0.00000  Uiso   1.00
H351   H     0.77720   0.29613   0.97233   0.00000  Uiso   1.00
H352   H     0.01303   0.20033   0.16319   0.00000  Uiso   1.00
H353   H     0.91638   0.48318   0.18855   0.00000  Uiso   1.00
H354   H     0.93712   0.57066   0.03758   0.00000  Uiso   1.00
H355   H     0.85006   0.46869   0.23159   0.00000  Uiso   1.00
H356   H     0.96190   0.42326   0.32210   0.00000  Uiso   1.00
H357   H     0.96018   0.64704   0.82980   0.00000  Uiso   1.00
H358   H     0.77662   0.43202   0.23892   0.00000  Uiso   1.00
H359   H     0.01245   0.33622   0.42977   0.00000  Uiso   1.00
O360   O     0.97411   0.63378   0.59158   0.00000  Uiso   1.00
O361   O     0.73329   0.35167   0.12833   0.00000  Uiso   1.00
O362   O     0.04269   0.22599   0.37872   0.00000  Uiso   1.00
N363   N     0.95779   0.53113   0.64668   0.00000  Uiso   1.00
N364   N     0.78617   0.33010   0.02916   0.00000  Uiso   1.00
N365   N     0.00664   0.24053   0.20761   0.00000  Uiso   1.00
N366   N     0.95747   0.60425   0.79013   0.00000  Uiso   1.00
N367   N     0.78585   0.40323   0.17261   0.00000  Uiso   1.00
N368   N     0.00633   0.31365   0.35106   0.00000  Uiso   1.00
