data_job_01981
_audit_creation_date              2018-12-19
_audit_creation_method            'Materials Studio'
_symmetry_space_group_name_H-M    'P1'
_symmetry_Int_Tables_number       1
_symmetry_cell_setting            triclinic
loop_
_symmetry_equiv_pos_as_xyz
  x,y,z
_cell_length_a                    20.9824
_cell_length_b                    19.3738
_cell_length_c                    17.7839
_cell_angle_alpha                 90.0000
_cell_angle_beta                  90.0000
_cell_angle_gamma                 90.0000
loop_
_atom_site_label
_atom_site_type_symbol
_atom_site_fract_x
_atom_site_fract_y
_atom_site_fract_z
_atom_site_U_iso_or_equiv
_atom_site_adp_type
_atom_site_occupancy
C1     C     0.82369   0.04208   0.00036   0.00000  Uiso   1.00
C2     C     0.84993   0.11364   0.98261   0.00000  Uiso   1.00
C3     C     0.87286   0.13531   0.91332   0.00000  Uiso   1.00
C4     C     0.89481   0.20278   0.90858   0.00000  Uiso   1.00
C5     C     0.93574   0.30718   0.87154   0.00000  Uiso   1.00
C6     C     0.86321   0.01486   0.06593   0.00000  Uiso   1.00
C7     C     0.89730   0.95348   0.06669   0.00000  Uiso   1.00
C8     C     0.93042   0.93779   0.13209   0.00000  Uiso   1.00
C9     C     0.99193   0.88881   0.22443   0.00000  Uiso   1.00
C10    C     0.75669   0.05342   0.03119   0.00000  Uiso   1.00
C11    C     0.70121   0.02443   0.00277   0.00000  Uiso   1.00
C12    C     0.64464   0.04119   0.03894   0.00000  Uiso   1.00
C13    C     0.54076   0.05207   0.07735   0.00000  Uiso   1.00
C14    C     0.82189   0.12336   0.11513   0.00000  Uiso   1.00
C15    C     0.84896   0.15779   0.04495   0.00000  Uiso   1.00
C16    C     0.87087   0.22525   0.04031   0.00000  Uiso   1.00
C17    C     0.89383   0.24701   0.97103   0.00000  Uiso   1.00
C18    C     0.86224   0.05901   0.12827   0.00000  Uiso   1.00
C19    C     0.89531   0.04341   0.19368   0.00000  Uiso   1.00
C20    C     0.92944   0.98202   0.19454   0.00000  Uiso   1.00
C21    C     0.75571   0.09757   0.09354   0.00000  Uiso   1.00
C22    C     0.69922   0.11437   0.12976   0.00000  Uiso   1.00
C23    C     0.64366   0.08542   0.10139   0.00000  Uiso   1.00
H24    H     0.82445   0.00770   0.95183   0.00000  Uiso   1.00
H25    H     0.87362   0.10113   0.86509   0.00000  Uiso   1.00
H26    H     0.89804   0.91932   0.01844   0.00000  Uiso   1.00
H27    H     0.70198   0.99027   0.95453   0.00000  Uiso   1.00
H28    H     0.92771   0.22417   0.79644   0.00000  Uiso   1.00
H29    H     0.97920   0.84081   0.11979   0.00000  Uiso   1.00
H30    H     0.56577   0.99041   0.98502   0.00000  Uiso   1.00
H31    H     0.82113   0.15773   0.16367   0.00000  Uiso   1.00
H32    H     0.87011   0.25940   0.08856   0.00000  Uiso   1.00
H33    H     0.89454   0.07759   0.24191   0.00000  Uiso   1.00
H34    H     0.69848   0.14854   0.17800   0.00000  Uiso   1.00
H35    H     0.92487   0.35263   0.97781   0.00000  Uiso   1.00
H36    H     0.97636   0.96926   0.30117   0.00000  Uiso   1.00
H37    H     0.56293   0.11887   0.16639   0.00000  Uiso   1.00
O38    O     0.95859   0.35257   0.83390   0.00000  Uiso   1.00
O39    O     0.02613   0.84959   0.25813   0.00000  Uiso   1.00
O40    O     0.48373   0.04588   0.08131   0.00000  Uiso   1.00
N41    N     0.92031   0.24046   0.84943   0.00000  Uiso   1.00
N42    N     0.96846   0.88204   0.15174   0.00000  Uiso   1.00
N43    N     0.58194   0.02189   0.02575   0.00000  Uiso   1.00
N44    N     0.91878   0.30958   0.94702   0.00000  Uiso   1.00
N45    N     0.96693   0.95116   0.24933   0.00000  Uiso   1.00
N46    N     0.58041   0.09101   0.12335   0.00000  Uiso   1.00
C47    C     0.67631   0.45792   0.00036   0.00000  Uiso   1.00
C48    C     0.65007   0.38636   0.98261   0.00000  Uiso   1.00
C49    C     0.62714   0.36469   0.91332   0.00000  Uiso   1.00
C50    C     0.60519   0.29722   0.90858   0.00000  Uiso   1.00
C51    C     0.56426   0.19282   0.87154   0.00000  Uiso   1.00
C52    C     0.63679   0.48514   0.06593   0.00000  Uiso   1.00
C53    C     0.60270   0.54652   0.06669   0.00000  Uiso   1.00
C54    C     0.56958   0.56221   0.13209   0.00000  Uiso   1.00
C55    C     0.50807   0.61119   0.22443   0.00000  Uiso   1.00
C56    C     0.74331   0.44658   0.03119   0.00000  Uiso   1.00
C57    C     0.79879   0.47557   0.00277   0.00000  Uiso   1.00
C58    C     0.85536   0.45881   0.03894   0.00000  Uiso   1.00
C59    C     0.95924   0.44793   0.07735   0.00000  Uiso   1.00
C60    C     0.67811   0.37664   0.11513   0.00000  Uiso   1.00
C61    C     0.65104   0.34221   0.04495   0.00000  Uiso   1.00
C62    C     0.62913   0.27475   0.04031   0.00000  Uiso   1.00
C63    C     0.60617   0.25299   0.97103   0.00000  Uiso   1.00
C64    C     0.63776   0.44099   0.12827   0.00000  Uiso   1.00
C65    C     0.60469   0.45659   0.19368   0.00000  Uiso   1.00
C66    C     0.57056   0.51798   0.19454   0.00000  Uiso   1.00
C67    C     0.74429   0.40243   0.09354   0.00000  Uiso   1.00
C68    C     0.80078   0.38563   0.12976   0.00000  Uiso   1.00
C69    C     0.85634   0.41458   0.10139   0.00000  Uiso   1.00
H70    H     0.67555   0.49230   0.95183   0.00000  Uiso   1.00
H71    H     0.62638   0.39887   0.86509   0.00000  Uiso   1.00
H72    H     0.60196   0.58068   0.01844   0.00000  Uiso   1.00
H73    H     0.79802   0.50973   0.95453   0.00000  Uiso   1.00
H74    H     0.57229   0.27583   0.79644   0.00000  Uiso   1.00
H75    H     0.52080   0.65919   0.11979   0.00000  Uiso   1.00
H76    H     0.93423   0.50959   0.98502   0.00000  Uiso   1.00
H77    H     0.67887   0.34227   0.16367   0.00000  Uiso   1.00
H78    H     0.62989   0.24060   0.08856   0.00000  Uiso   1.00
H79    H     0.60546   0.42241   0.24191   0.00000  Uiso   1.00
H80    H     0.80152   0.35146   0.17800   0.00000  Uiso   1.00
H81    H     0.57513   0.14737   0.97781   0.00000  Uiso   1.00
H82    H     0.52364   0.53074   0.30117   0.00000  Uiso   1.00
H83    H     0.93707   0.38113   0.16639   0.00000  Uiso   1.00
O84    O     0.54141   0.14743   0.83390   0.00000  Uiso   1.00
O85    O     0.47387   0.65041   0.25813   0.00000  Uiso   1.00
O86    O     0.01627   0.45412   0.08131   0.00000  Uiso   1.00
N87    N     0.57969   0.25954   0.84943   0.00000  Uiso   1.00
N88    N     0.53154   0.61796   0.15174   0.00000  Uiso   1.00
N89    N     0.91806   0.47811   0.02575   0.00000  Uiso   1.00
N90    N     0.58122   0.19042   0.94702   0.00000  Uiso   1.00
N91    N     0.53307   0.54884   0.24933   0.00000  Uiso   1.00
N92    N     0.91959   0.40899   0.12335   0.00000  Uiso   1.00
C93    C     0.17631   0.54208   0.49964   0.00000  Uiso   1.00
C94    C     0.15007   0.61364   0.51739   0.00000  Uiso   1.00
C95    C     0.12714   0.63531   0.58668   0.00000  Uiso   1.00
C96    C     0.10519   0.70278   0.59142   0.00000  Uiso   1.00
C97    C     0.06426   0.80718   0.62846   0.00000  Uiso   1.00
C98    C     0.13679   0.51486   0.43407   0.00000  Uiso   1.00
C99    C     0.10270   0.45348   0.43331   0.00000  Uiso   1.00
C100   C     0.06958   0.43779   0.36791   0.00000  Uiso   1.00
C101   C     0.00807   0.38881   0.27557   0.00000  Uiso   1.00
C102   C     0.24331   0.55342   0.46881   0.00000  Uiso   1.00
C103   C     0.29879   0.52443   0.49723   0.00000  Uiso   1.00
C104   C     0.35536   0.54119   0.46106   0.00000  Uiso   1.00
C105   C     0.45924   0.55207   0.42265   0.00000  Uiso   1.00
C106   C     0.17811   0.62336   0.38487   0.00000  Uiso   1.00
C107   C     0.15104   0.65779   0.45505   0.00000  Uiso   1.00
C108   C     0.12913   0.72525   0.45969   0.00000  Uiso   1.00
C109   C     0.10617   0.74701   0.52897   0.00000  Uiso   1.00
C110   C     0.13776   0.55901   0.37173   0.00000  Uiso   1.00
C111   C     0.10469   0.54341   0.30632   0.00000  Uiso   1.00
C112   C     0.07056   0.48202   0.30546   0.00000  Uiso   1.00
C113   C     0.24429   0.59757   0.40646   0.00000  Uiso   1.00
C114   C     0.30078   0.61437   0.37024   0.00000  Uiso   1.00
C115   C     0.35634   0.58542   0.39861   0.00000  Uiso   1.00
H116   H     0.17555   0.50770   0.54817   0.00000  Uiso   1.00
H117   H     0.12638   0.60113   0.63491   0.00000  Uiso   1.00
H118   H     0.10196   0.41932   0.48156   0.00000  Uiso   1.00
H119   H     0.29802   0.49027   0.54547   0.00000  Uiso   1.00
H120   H     0.07229   0.72417   0.70356   0.00000  Uiso   1.00
H121   H     0.02080   0.34081   0.38021   0.00000  Uiso   1.00
H122   H     0.43423   0.49041   0.51498   0.00000  Uiso   1.00
H123   H     0.17887   0.65773   0.33633   0.00000  Uiso   1.00
H124   H     0.12989   0.75940   0.41144   0.00000  Uiso   1.00
H125   H     0.10546   0.57759   0.25809   0.00000  Uiso   1.00
H126   H     0.30152   0.64854   0.32200   0.00000  Uiso   1.00
H127   H     0.07513   0.85263   0.52219   0.00000  Uiso   1.00
H128   H     0.02364   0.46926   0.19883   0.00000  Uiso   1.00
H129   H     0.43707   0.61887   0.33361   0.00000  Uiso   1.00
O130   O     0.04141   0.85257   0.66610   0.00000  Uiso   1.00
O131   O     0.97387   0.34959   0.24187   0.00000  Uiso   1.00
O132   O     0.51627   0.54588   0.41869   0.00000  Uiso   1.00
N133   N     0.07969   0.74046   0.65057   0.00000  Uiso   1.00
N134   N     0.03154   0.38204   0.34826   0.00000  Uiso   1.00
N135   N     0.41806   0.52189   0.47425   0.00000  Uiso   1.00
N136   N     0.08122   0.80958   0.55298   0.00000  Uiso   1.00
N137   N     0.03307   0.45116   0.25067   0.00000  Uiso   1.00
N138   N     0.41959   0.59101   0.37665   0.00000  Uiso   1.00
C139   C     0.32369   0.95792   0.49964   0.00000  Uiso   1.00
C140   C     0.34993   0.88636   0.51739   0.00000  Uiso   1.00
C141   C     0.37286   0.86469   0.58668   0.00000  Uiso   1.00
C142   C     0.39481   0.79722   0.59142   0.00000  Uiso   1.00
C143   C     0.43574   0.69282   0.62846   0.00000  Uiso   1.00
C144   C     0.36321   0.98514   0.43407   0.00000  Uiso   1.00
C145   C     0.39730   0.04652   0.43331   0.00000  Uiso   1.00
C146   C     0.43042   0.06221   0.36791   0.00000  Uiso   1.00
C147   C     0.49193   0.11119   0.27557   0.00000  Uiso   1.00
C148   C     0.25669   0.94658   0.46881   0.00000  Uiso   1.00
C149   C     0.20121   0.97557   0.49723   0.00000  Uiso   1.00
C150   C     0.14464   0.95881   0.46106   0.00000  Uiso   1.00
C151   C     0.04076   0.94793   0.42265   0.00000  Uiso   1.00
C152   C     0.32189   0.87664   0.38487   0.00000  Uiso   1.00
C153   C     0.34896   0.84221   0.45505   0.00000  Uiso   1.00
C154   C     0.37087   0.77475   0.45969   0.00000  Uiso   1.00
C155   C     0.39383   0.75299   0.52897   0.00000  Uiso   1.00
C156   C     0.36224   0.94099   0.37173   0.00000  Uiso   1.00
C157   C     0.39531   0.95659   0.30632   0.00000  Uiso   1.00
C158   C     0.42944   0.01798   0.30546   0.00000  Uiso   1.00
C159   C     0.25571   0.90243   0.40646   0.00000  Uiso   1.00
C160   C     0.19922   0.88563   0.37024   0.00000  Uiso   1.00
C161   C     0.14366   0.91458   0.39861   0.00000  Uiso   1.00
H162   H     0.32445   0.99230   0.54817   0.00000  Uiso   1.00
H163   H     0.37362   0.89887   0.63491   0.00000  Uiso   1.00
H164   H     0.39804   0.08068   0.48156   0.00000  Uiso   1.00
H165   H     0.20198   0.00973   0.54547   0.00000  Uiso   1.00
H166   H     0.42771   0.77583   0.70356   0.00000  Uiso   1.00
H167   H     0.47920   0.15919   0.38021   0.00000  Uiso   1.00
H168   H     0.06577   0.00959   0.51498   0.00000  Uiso   1.00
H169   H     0.32113   0.84227   0.33633   0.00000  Uiso   1.00
H170   H     0.37011   0.74060   0.41144   0.00000  Uiso   1.00
H171   H     0.39454   0.92241   0.25809   0.00000  Uiso   1.00
H172   H     0.19848   0.85146   0.32200   0.00000  Uiso   1.00
H173   H     0.42487   0.64737   0.52219   0.00000  Uiso   1.00
H174   H     0.47636   0.03074   0.19883   0.00000  Uiso   1.00
H175   H     0.06293   0.88113   0.33361   0.00000  Uiso   1.00
O176   O     0.45859   0.64743   0.66610   0.00000  Uiso   1.00
O177   O     0.52613   0.15041   0.24187   0.00000  Uiso   1.00
O178   O     0.98373   0.95412   0.41869   0.00000  Uiso   1.00
N179   N     0.42031   0.75954   0.65057   0.00000  Uiso   1.00
N180   N     0.46846   0.11796   0.34826   0.00000  Uiso   1.00
N181   N     0.08194   0.97811   0.47425   0.00000  Uiso   1.00
N182   N     0.41878   0.69042   0.55298   0.00000  Uiso   1.00
N183   N     0.46693   0.04884   0.25067   0.00000  Uiso   1.00
N184   N     0.08041   0.90899   0.37665   0.00000  Uiso   1.00
C185   C     0.17631   0.95792   0.99964   0.00000  Uiso   1.00
C186   C     0.15007   0.88636   0.01739   0.00000  Uiso   1.00
C187   C     0.12714   0.86469   0.08668   0.00000  Uiso   1.00
C188   C     0.10519   0.79722   0.09142   0.00000  Uiso   1.00
C189   C     0.06426   0.69282   0.12846   0.00000  Uiso   1.00
C190   C     0.13679   0.98514   0.93407   0.00000  Uiso   1.00
C191   C     0.10270   0.04652   0.93331   0.00000  Uiso   1.00
C192   C     0.06958   0.06221   0.86791   0.00000  Uiso   1.00
C193   C     0.00807   0.11119   0.77557   0.00000  Uiso   1.00
C194   C     0.24331   0.94658   0.96881   0.00000  Uiso   1.00
C195   C     0.29879   0.97557   0.99723   0.00000  Uiso   1.00
C196   C     0.35536   0.95881   0.96106   0.00000  Uiso   1.00
C197   C     0.45924   0.94793   0.92265   0.00000  Uiso   1.00
C198   C     0.17811   0.87664   0.88487   0.00000  Uiso   1.00
C199   C     0.15104   0.84221   0.95505   0.00000  Uiso   1.00
C200   C     0.12913   0.77475   0.95969   0.00000  Uiso   1.00
C201   C     0.10617   0.75299   0.02897   0.00000  Uiso   1.00
C202   C     0.13776   0.94099   0.87173   0.00000  Uiso   1.00
C203   C     0.10469   0.95659   0.80632   0.00000  Uiso   1.00
C204   C     0.07056   0.01798   0.80546   0.00000  Uiso   1.00
C205   C     0.24429   0.90243   0.90646   0.00000  Uiso   1.00
C206   C     0.30078   0.88563   0.87024   0.00000  Uiso   1.00
C207   C     0.35634   0.91458   0.89861   0.00000  Uiso   1.00
H208   H     0.17555   0.99230   0.04817   0.00000  Uiso   1.00
H209   H     0.12638   0.89887   0.13491   0.00000  Uiso   1.00
H210   H     0.10196   0.08068   0.98156   0.00000  Uiso   1.00
H211   H     0.29802   0.00973   0.04547   0.00000  Uiso   1.00
H212   H     0.07229   0.77583   0.20356   0.00000  Uiso   1.00
H213   H     0.02080   0.15919   0.88021   0.00000  Uiso   1.00
H214   H     0.43423   0.00959   0.01498   0.00000  Uiso   1.00
H215   H     0.17887   0.84227   0.83633   0.00000  Uiso   1.00
H216   H     0.12989   0.74060   0.91144   0.00000  Uiso   1.00
H217   H     0.10546   0.92241   0.75809   0.00000  Uiso   1.00
H218   H     0.30152   0.85146   0.82200   0.00000  Uiso   1.00
H219   H     0.07513   0.64737   0.02219   0.00000  Uiso   1.00
H220   H     0.02364   0.03074   0.69883   0.00000  Uiso   1.00
H221   H     0.43707   0.88113   0.83361   0.00000  Uiso   1.00
O222   O     0.04141   0.64743   0.16610   0.00000  Uiso   1.00
O223   O     0.97387   0.15041   0.74187   0.00000  Uiso   1.00
O224   O     0.51627   0.95412   0.91869   0.00000  Uiso   1.00
N225   N     0.07969   0.75954   0.15057   0.00000  Uiso   1.00
N226   N     0.03154   0.11796   0.84826   0.00000  Uiso   1.00
N227   N     0.41806   0.97811   0.97425   0.00000  Uiso   1.00
N228   N     0.08122   0.69042   0.05298   0.00000  Uiso   1.00
N229   N     0.03307   0.04884   0.75067   0.00000  Uiso   1.00
N230   N     0.41959   0.90899   0.87665   0.00000  Uiso   1.00
C231   C     0.32369   0.54208   0.99964   0.00000  Uiso   1.00
C232   C     0.34993   0.61364   0.01739   0.00000  Uiso   1.00
C233   C     0.37286   0.63531   0.08668   0.00000  Uiso   1.00
C234   C     0.39481   0.70278   0.09142   0.00000  Uiso   1.00
C235   C     0.43574   0.80718   0.12846   0.00000  Uiso   1.00
C236   C     0.36321   0.51486   0.93407   0.00000  Uiso   1.00
C237   C     0.39730   0.45348   0.93331   0.00000  Uiso   1.00
C238   C     0.43042   0.43779   0.86791   0.00000  Uiso   1.00
C239   C     0.49193   0.38881   0.77557   0.00000  Uiso   1.00
C240   C     0.25669   0.55342   0.96881   0.00000  Uiso   1.00
C241   C     0.20121   0.52443   0.99723   0.00000  Uiso   1.00
C242   C     0.14464   0.54119   0.96106   0.00000  Uiso   1.00
C243   C     0.04076   0.55207   0.92265   0.00000  Uiso   1.00
C244   C     0.32189   0.62336   0.88487   0.00000  Uiso   1.00
C245   C     0.34896   0.65779   0.95505   0.00000  Uiso   1.00
C246   C     0.37087   0.72525   0.95969   0.00000  Uiso   1.00
C247   C     0.39383   0.74701   0.02897   0.00000  Uiso   1.00
C248   C     0.36224   0.55901   0.87173   0.00000  Uiso   1.00
C249   C     0.39531   0.54341   0.80632   0.00000  Uiso   1.00
C250   C     0.42944   0.48202   0.80546   0.00000  Uiso   1.00
C251   C     0.25571   0.59757   0.90646   0.00000  Uiso   1.00
C252   C     0.19922   0.61437   0.87024   0.00000  Uiso   1.00
C253   C     0.14366   0.58542   0.89861   0.00000  Uiso   1.00
H254   H     0.32445   0.50770   0.04817   0.00000  Uiso   1.00
H255   H     0.37362   0.60113   0.13491   0.00000  Uiso   1.00
H256   H     0.39804   0.41932   0.98156   0.00000  Uiso   1.00
H257   H     0.20198   0.49027   0.04547   0.00000  Uiso   1.00
H258   H     0.42771   0.72417   0.20356   0.00000  Uiso   1.00
H259   H     0.47920   0.34081   0.88021   0.00000  Uiso   1.00
H260   H     0.06577   0.49041   0.01498   0.00000  Uiso   1.00
H261   H     0.32113   0.65773   0.83633   0.00000  Uiso   1.00
H262   H     0.37011   0.75940   0.91144   0.00000  Uiso   1.00
H263   H     0.39454   0.57759   0.75809   0.00000  Uiso   1.00
H264   H     0.19848   0.64854   0.82200   0.00000  Uiso   1.00
H265   H     0.42487   0.85263   0.02219   0.00000  Uiso   1.00
H266   H     0.47636   0.46926   0.69883   0.00000  Uiso   1.00
H267   H     0.06293   0.61887   0.83361   0.00000  Uiso   1.00
O268   O     0.45859   0.85257   0.16610   0.00000  Uiso   1.00
O269   O     0.52613   0.34959   0.74187   0.00000  Uiso   1.00
O270   O     0.98373   0.54588   0.91869   0.00000  Uiso   1.00
N271   N     0.42031   0.74046   0.15057   0.00000  Uiso   1.00
N272   N     0.46846   0.38204   0.84826   0.00000  Uiso   1.00
N273   N     0.08194   0.52189   0.97425   0.00000  Uiso   1.00
N274   N     0.41878   0.80958   0.05298   0.00000  Uiso   1.00
N275   N     0.46693   0.45116   0.75067   0.00000  Uiso   1.00
N276   N     0.08041   0.59101   0.87665   0.00000  Uiso   1.00
C277   C     0.82369   0.45792   0.50036   0.00000  Uiso   1.00
C278   C     0.84993   0.38636   0.48261   0.00000  Uiso   1.00
C279   C     0.87286   0.36469   0.41332   0.00000  Uiso   1.00
C280   C     0.89481   0.29722   0.40858   0.00000  Uiso   1.00
C281   C     0.93574   0.19282   0.37154   0.00000  Uiso   1.00
C282   C     0.86321   0.48514   0.56593   0.00000  Uiso   1.00
C283   C     0.89730   0.54652   0.56669   0.00000  Uiso   1.00
C284   C     0.93042   0.56221   0.63209   0.00000  Uiso   1.00
C285   C     0.99193   0.61119   0.72443   0.00000  Uiso   1.00
C286   C     0.75669   0.44658   0.53119   0.00000  Uiso   1.00
C287   C     0.70121   0.47557   0.50277   0.00000  Uiso   1.00
C288   C     0.64464   0.45881   0.53894   0.00000  Uiso   1.00
C289   C     0.54076   0.44793   0.57735   0.00000  Uiso   1.00
C290   C     0.82189   0.37664   0.61513   0.00000  Uiso   1.00
C291   C     0.84896   0.34221   0.54495   0.00000  Uiso   1.00
C292   C     0.87087   0.27475   0.54031   0.00000  Uiso   1.00
C293   C     0.89383   0.25299   0.47103   0.00000  Uiso   1.00
C294   C     0.86224   0.44099   0.62827   0.00000  Uiso   1.00
C295   C     0.89531   0.45659   0.69368   0.00000  Uiso   1.00
C296   C     0.92944   0.51798   0.69454   0.00000  Uiso   1.00
C297   C     0.75571   0.40243   0.59354   0.00000  Uiso   1.00
C298   C     0.69922   0.38563   0.62976   0.00000  Uiso   1.00
C299   C     0.64366   0.41458   0.60139   0.00000  Uiso   1.00
H300   H     0.82445   0.49230   0.45183   0.00000  Uiso   1.00
H301   H     0.87362   0.39887   0.36509   0.00000  Uiso   1.00
H302   H     0.89804   0.58068   0.51844   0.00000  Uiso   1.00
H303   H     0.70198   0.50973   0.45453   0.00000  Uiso   1.00
H304   H     0.92771   0.27583   0.29644   0.00000  Uiso   1.00
H305   H     0.97920   0.65919   0.61979   0.00000  Uiso   1.00
H306   H     0.56577   0.50959   0.48502   0.00000  Uiso   1.00
H307   H     0.82113   0.34227   0.66367   0.00000  Uiso   1.00
H308   H     0.87011   0.24060   0.58856   0.00000  Uiso   1.00
H309   H     0.89454   0.42241   0.74191   0.00000  Uiso   1.00
H310   H     0.69848   0.35146   0.67800   0.00000  Uiso   1.00
H311   H     0.92487   0.14737   0.47781   0.00000  Uiso   1.00
H312   H     0.97636   0.53074   0.80117   0.00000  Uiso   1.00
H313   H     0.56293   0.38113   0.66639   0.00000  Uiso   1.00
O314   O     0.95859   0.14743   0.33390   0.00000  Uiso   1.00
O315   O     0.02613   0.65041   0.75813   0.00000  Uiso   1.00
O316   O     0.48373   0.45412   0.58131   0.00000  Uiso   1.00
N317   N     0.92031   0.25954   0.34943   0.00000  Uiso   1.00
N318   N     0.96846   0.61796   0.65174   0.00000  Uiso   1.00
N319   N     0.58194   0.47811   0.52575   0.00000  Uiso   1.00
N320   N     0.91878   0.19042   0.44702   0.00000  Uiso   1.00
N321   N     0.96693   0.54884   0.74933   0.00000  Uiso   1.00
N322   N     0.58041   0.40899   0.62335   0.00000  Uiso   1.00
C323   C     0.67631   0.04208   0.50036   0.00000  Uiso   1.00
C324   C     0.65007   0.11364   0.48261   0.00000  Uiso   1.00
C325   C     0.62714   0.13531   0.41332   0.00000  Uiso   1.00
C326   C     0.60519   0.20278   0.40858   0.00000  Uiso   1.00
C327   C     0.56426   0.30718   0.37154   0.00000  Uiso   1.00
C328   C     0.63679   0.01486   0.56593   0.00000  Uiso   1.00
C329   C     0.60270   0.95348   0.56669   0.00000  Uiso   1.00
C330   C     0.56958   0.93779   0.63209   0.00000  Uiso   1.00
C331   C     0.50807   0.88881   0.72443   0.00000  Uiso   1.00
C332   C     0.74331   0.05342   0.53119   0.00000  Uiso   1.00
C333   C     0.79879   0.02443   0.50277   0.00000  Uiso   1.00
C334   C     0.85536   0.04119   0.53894   0.00000  Uiso   1.00
C335   C     0.95924   0.05207   0.57735   0.00000  Uiso   1.00
C336   C     0.67811   0.12336   0.61513   0.00000  Uiso   1.00
C337   C     0.65104   0.15779   0.54495   0.00000  Uiso   1.00
C338   C     0.62913   0.22525   0.54031   0.00000  Uiso   1.00
C339   C     0.60617   0.24701   0.47103   0.00000  Uiso   1.00
C340   C     0.63776   0.05901   0.62827   0.00000  Uiso   1.00
C341   C     0.60469   0.04341   0.69368   0.00000  Uiso   1.00
C342   C     0.57056   0.98202   0.69454   0.00000  Uiso   1.00
C343   C     0.74429   0.09757   0.59354   0.00000  Uiso   1.00
C344   C     0.80078   0.11437   0.62976   0.00000  Uiso   1.00
C345   C     0.85634   0.08542   0.60139   0.00000  Uiso   1.00
H346   H     0.67555   0.00770   0.45183   0.00000  Uiso   1.00
H347   H     0.62638   0.10113   0.36509   0.00000  Uiso   1.00
H348   H     0.60196   0.91932   0.51844   0.00000  Uiso   1.00
H349   H     0.79802   0.99027   0.45453   0.00000  Uiso   1.00
H350   H     0.57229   0.22417   0.29644   0.00000  Uiso   1.00
H351   H     0.52080   0.84081   0.61979   0.00000  Uiso   1.00
H352   H     0.93423   0.99041   0.48502   0.00000  Uiso   1.00
H353   H     0.67887   0.15773   0.66367   0.00000  Uiso   1.00
H354   H     0.62989   0.25940   0.58856   0.00000  Uiso   1.00
H355   H     0.60546   0.07759   0.74191   0.00000  Uiso   1.00
H356   H     0.80152   0.14854   0.67800   0.00000  Uiso   1.00
H357   H     0.57513   0.35263   0.47781   0.00000  Uiso   1.00
H358   H     0.52364   0.96926   0.80117   0.00000  Uiso   1.00
H359   H     0.93707   0.11887   0.66639   0.00000  Uiso   1.00
O360   O     0.54141   0.35257   0.33390   0.00000  Uiso   1.00
O361   O     0.47387   0.84959   0.75813   0.00000  Uiso   1.00
O362   O     0.01627   0.04588   0.58131   0.00000  Uiso   1.00
N363   N     0.57969   0.24046   0.34943   0.00000  Uiso   1.00
N364   N     0.53154   0.88204   0.65174   0.00000  Uiso   1.00
N365   N     0.91806   0.02189   0.52575   0.00000  Uiso   1.00
N366   N     0.58122   0.30958   0.44702   0.00000  Uiso   1.00
N367   N     0.53307   0.95116   0.74933   0.00000  Uiso   1.00
N368   N     0.91959   0.09101   0.62335   0.00000  Uiso   1.00
