data_job_01947
_audit_creation_date              2018-12-19
_audit_creation_method            'Materials Studio'
_symmetry_space_group_name_H-M    'P1'
_symmetry_Int_Tables_number       1
_symmetry_cell_setting            triclinic
loop_
_symmetry_equiv_pos_as_xyz
  x,y,z
_cell_length_a                    17.5520
_cell_length_b                    17.9940
_cell_length_c                    17.1924
_cell_angle_alpha                 90.0000
_cell_angle_beta                  90.0000
_cell_angle_gamma                 90.0000
loop_
_atom_site_label
_atom_site_type_symbol
_atom_site_fract_x
_atom_site_fract_y
_atom_site_fract_z
_atom_site_U_iso_or_equiv
_atom_site_adp_type
_atom_site_occupancy
C1     C     0.24362   0.95726   0.65686   0.00000  Uiso   1.00
C2     C     0.22081   0.87549   0.65598   0.00000  Uiso   1.00
C3     C     0.14676   0.84846   0.65631   0.00000  Uiso   1.00
C4     C     0.13783   0.77180   0.65538   0.00000  Uiso   1.00
C5     C     0.09284   0.65211   0.65423   0.00000  Uiso   1.00
C6     C     0.29534   0.96709   0.72738   0.00000  Uiso   1.00
C7     C     0.28397   0.01709   0.78774   0.00000  Uiso   1.00
C8     C     0.33780   0.01754   0.84691   0.00000  Uiso   1.00
C9     C     0.40856   0.04010   0.95659   0.00000  Uiso   1.00
C10    C     0.29409   0.96884   0.58570   0.00000  Uiso   1.00
C11    C     0.28168   0.02031   0.52693   0.00000  Uiso   1.00
C12    C     0.33447   0.02225   0.46682   0.00000  Uiso   1.00
C13    C     0.40328   0.04752   0.35651   0.00000  Uiso   1.00
C14    C     0.35946   0.86918   0.65461   0.00000  Uiso   1.00
C15    C     0.28373   0.82765   0.65476   0.00000  Uiso   1.00
C16    C     0.27492   0.75101   0.65382   0.00000  Uiso   1.00
C17    C     0.20087   0.72387   0.65415   0.00000  Uiso   1.00
C18    C     0.35826   0.91925   0.72616   0.00000  Uiso   1.00
C19    C     0.41213   0.91964   0.78525   0.00000  Uiso   1.00
C20    C     0.40084   0.96961   0.84569   0.00000  Uiso   1.00
C21    C     0.35701   0.92099   0.58447   0.00000  Uiso   1.00
C22    C     0.40984   0.92285   0.52444   0.00000  Uiso   1.00
C23    C     0.39750   0.97432   0.46560   0.00000  Uiso   1.00
H24    H     0.19464   0.99451   0.65782   0.00000  Uiso   1.00
H25    H     0.09808   0.88551   0.65726   0.00000  Uiso   1.00
H26    H     0.23527   0.05411   0.78867   0.00000  Uiso   1.00
H27    H     0.23298   0.05733   0.52790   0.00000  Uiso   1.00
H28    H     0.01877   0.74356   0.65614   0.00000  Uiso   1.00
H29    H     0.30807   0.09908   0.93320   0.00000  Uiso   1.00
H30    H     0.30323   0.10587   0.38332   0.00000  Uiso   1.00
H31    H     0.40845   0.83193   0.65366   0.00000  Uiso   1.00
H32    H     0.32362   0.71400   0.65287   0.00000  Uiso   1.00
H33    H     0.46082   0.88261   0.78428   0.00000  Uiso   1.00
H34    H     0.45852   0.88582   0.52351   0.00000  Uiso   1.00
H35    H     0.20183   0.60436   0.65258   0.00000  Uiso   1.00
H36    H     0.49113   0.95989   0.92964   0.00000  Uiso   1.00
H37    H     0.48629   0.96667   0.37976   0.00000  Uiso   1.00
O38    O     0.05064   0.59931   0.65394   0.00000  Uiso   1.00
O39    O     0.43020   0.06576   0.01743   0.00000  Uiso   1.00
O40    O     0.42385   0.07466   0.29600   0.00000  Uiso   1.00
N41    N     0.07350   0.72698   0.65539   0.00000  Uiso   1.00
N42    N     0.34397   0.05937   0.91444   0.00000  Uiso   1.00
N43    N     0.33946   0.06573   0.40036   0.00000  Uiso   1.00
N44    N     0.17200   0.65208   0.65348   0.00000  Uiso   1.00
N45    N     0.44247   0.98447   0.91252   0.00000  Uiso   1.00
N46    N     0.43796   0.99083   0.39844   0.00000  Uiso   1.00
C47    C     0.25638   0.04274   0.15686   0.00000  Uiso   1.00
C48    C     0.27919   0.12451   0.15598   0.00000  Uiso   1.00
C49    C     0.35324   0.15154   0.15631   0.00000  Uiso   1.00
C50    C     0.36217   0.22820   0.15538   0.00000  Uiso   1.00
C51    C     0.40716   0.34789   0.15423   0.00000  Uiso   1.00
C52    C     0.20466   0.03291   0.22738   0.00000  Uiso   1.00
C53    C     0.21603   0.98291   0.28774   0.00000  Uiso   1.00
C54    C     0.16220   0.98246   0.34691   0.00000  Uiso   1.00
C55    C     0.09144   0.95990   0.45659   0.00000  Uiso   1.00
C56    C     0.20591   0.03116   0.08570   0.00000  Uiso   1.00
C57    C     0.21832   0.97969   0.02693   0.00000  Uiso   1.00
C58    C     0.16553   0.97775   0.96682   0.00000  Uiso   1.00
C59    C     0.09672   0.95248   0.85651   0.00000  Uiso   1.00
C60    C     0.14054   0.13082   0.15461   0.00000  Uiso   1.00
C61    C     0.21627   0.17235   0.15476   0.00000  Uiso   1.00
C62    C     0.22508   0.24899   0.15382   0.00000  Uiso   1.00
C63    C     0.29913   0.27613   0.15415   0.00000  Uiso   1.00
C64    C     0.14174   0.08075   0.22616   0.00000  Uiso   1.00
C65    C     0.08787   0.08036   0.28525   0.00000  Uiso   1.00
C66    C     0.09916   0.03039   0.34569   0.00000  Uiso   1.00
C67    C     0.14299   0.07901   0.08447   0.00000  Uiso   1.00
C68    C     0.09016   0.07715   0.02444   0.00000  Uiso   1.00
C69    C     0.10250   0.02568   0.96560   0.00000  Uiso   1.00
H70    H     0.30536   0.00549   0.15782   0.00000  Uiso   1.00
H71    H     0.40192   0.11449   0.15726   0.00000  Uiso   1.00
H72    H     0.26473   0.94589   0.28867   0.00000  Uiso   1.00
H73    H     0.26702   0.94267   0.02790   0.00000  Uiso   1.00
H74    H     0.48123   0.25644   0.15614   0.00000  Uiso   1.00
H75    H     0.19193   0.90092   0.43320   0.00000  Uiso   1.00
H76    H     0.19677   0.89413   0.88332   0.00000  Uiso   1.00
H77    H     0.09155   0.16807   0.15366   0.00000  Uiso   1.00
H78    H     0.17638   0.28600   0.15287   0.00000  Uiso   1.00
H79    H     0.03918   0.11739   0.28428   0.00000  Uiso   1.00
H80    H     0.04148   0.11418   0.02351   0.00000  Uiso   1.00
H81    H     0.29817   0.39564   0.15258   0.00000  Uiso   1.00
H82    H     0.00887   0.04011   0.42964   0.00000  Uiso   1.00
H83    H     0.01371   0.03333   0.87976   0.00000  Uiso   1.00
O84    O     0.44936   0.40069   0.15394   0.00000  Uiso   1.00
O85    O     0.06980   0.93424   0.51743   0.00000  Uiso   1.00
O86    O     0.07615   0.92534   0.79600   0.00000  Uiso   1.00
N87    N     0.42650   0.27302   0.15539   0.00000  Uiso   1.00
N88    N     0.15603   0.94063   0.41444   0.00000  Uiso   1.00
N89    N     0.16054   0.93427   0.90036   0.00000  Uiso   1.00
N90    N     0.32800   0.34792   0.15348   0.00000  Uiso   1.00
N91    N     0.05753   0.01553   0.41252   0.00000  Uiso   1.00
N92    N     0.06204   0.00917   0.89844   0.00000  Uiso   1.00
C93    C     0.75638   0.45726   0.84314   0.00000  Uiso   1.00
C94    C     0.77919   0.37549   0.84402   0.00000  Uiso   1.00
C95    C     0.85324   0.34846   0.84369   0.00000  Uiso   1.00
C96    C     0.86217   0.27180   0.84462   0.00000  Uiso   1.00
C97    C     0.90716   0.15211   0.84577   0.00000  Uiso   1.00
C98    C     0.70466   0.46709   0.77262   0.00000  Uiso   1.00
C99    C     0.71603   0.51709   0.71226   0.00000  Uiso   1.00
C100   C     0.66220   0.51754   0.65309   0.00000  Uiso   1.00
C101   C     0.59144   0.54010   0.54341   0.00000  Uiso   1.00
C102   C     0.70591   0.46884   0.91430   0.00000  Uiso   1.00
C103   C     0.71832   0.52031   0.97307   0.00000  Uiso   1.00
C104   C     0.66553   0.52225   0.03318   0.00000  Uiso   1.00
C105   C     0.59672   0.54752   0.14349   0.00000  Uiso   1.00
C106   C     0.64054   0.36918   0.84539   0.00000  Uiso   1.00
C107   C     0.71627   0.32765   0.84524   0.00000  Uiso   1.00
C108   C     0.72508   0.25101   0.84618   0.00000  Uiso   1.00
C109   C     0.79913   0.22387   0.84585   0.00000  Uiso   1.00
C110   C     0.64174   0.41925   0.77384   0.00000  Uiso   1.00
C111   C     0.58787   0.41964   0.71475   0.00000  Uiso   1.00
C112   C     0.59916   0.46961   0.65431   0.00000  Uiso   1.00
C113   C     0.64299   0.42099   0.91553   0.00000  Uiso   1.00
C114   C     0.59016   0.42285   0.97556   0.00000  Uiso   1.00
C115   C     0.60250   0.47432   0.03440   0.00000  Uiso   1.00
H116   H     0.80536   0.49451   0.84218   0.00000  Uiso   1.00
H117   H     0.90192   0.38551   0.84274   0.00000  Uiso   1.00
H118   H     0.76473   0.55411   0.71133   0.00000  Uiso   1.00
H119   H     0.76702   0.55733   0.97210   0.00000  Uiso   1.00
H120   H     0.98123   0.24356   0.84386   0.00000  Uiso   1.00
H121   H     0.69193   0.59908   0.56680   0.00000  Uiso   1.00
H122   H     0.69677   0.60587   0.11668   0.00000  Uiso   1.00
H123   H     0.59155   0.33193   0.84634   0.00000  Uiso   1.00
H124   H     0.67638   0.21400   0.84713   0.00000  Uiso   1.00
H125   H     0.53918   0.38261   0.71572   0.00000  Uiso   1.00
H126   H     0.54148   0.38582   0.97649   0.00000  Uiso   1.00
H127   H     0.79817   0.10436   0.84742   0.00000  Uiso   1.00
H128   H     0.50887   0.45989   0.57036   0.00000  Uiso   1.00
H129   H     0.51371   0.46667   0.12024   0.00000  Uiso   1.00
O130   O     0.94936   0.09931   0.84606   0.00000  Uiso   1.00
O131   O     0.56980   0.56576   0.48257   0.00000  Uiso   1.00
O132   O     0.57615   0.57466   0.20400   0.00000  Uiso   1.00
N133   N     0.92650   0.22698   0.84461   0.00000  Uiso   1.00
N134   N     0.65603   0.55937   0.58556   0.00000  Uiso   1.00
N135   N     0.66054   0.56573   0.09964   0.00000  Uiso   1.00
N136   N     0.82800   0.15208   0.84652   0.00000  Uiso   1.00
N137   N     0.55753   0.48447   0.58748   0.00000  Uiso   1.00
N138   N     0.56204   0.49083   0.10156   0.00000  Uiso   1.00
C139   C     0.74362   0.54274   0.34314   0.00000  Uiso   1.00
C140   C     0.72081   0.62451   0.34402   0.00000  Uiso   1.00
C141   C     0.64676   0.65154   0.34369   0.00000  Uiso   1.00
C142   C     0.63783   0.72820   0.34462   0.00000  Uiso   1.00
C143   C     0.59284   0.84789   0.34577   0.00000  Uiso   1.00
C144   C     0.79534   0.53291   0.27262   0.00000  Uiso   1.00
C145   C     0.78397   0.48291   0.21226   0.00000  Uiso   1.00
C146   C     0.83780   0.48246   0.15309   0.00000  Uiso   1.00
C147   C     0.90856   0.45990   0.04341   0.00000  Uiso   1.00
C148   C     0.79409   0.53116   0.41430   0.00000  Uiso   1.00
C149   C     0.78168   0.47969   0.47307   0.00000  Uiso   1.00
C150   C     0.83447   0.47775   0.53318   0.00000  Uiso   1.00
C151   C     0.90328   0.45248   0.64349   0.00000  Uiso   1.00
C152   C     0.85946   0.63082   0.34539   0.00000  Uiso   1.00
C153   C     0.78373   0.67235   0.34524   0.00000  Uiso   1.00
C154   C     0.77492   0.74899   0.34618   0.00000  Uiso   1.00
C155   C     0.70087   0.77613   0.34585   0.00000  Uiso   1.00
C156   C     0.85826   0.58075   0.27384   0.00000  Uiso   1.00
C157   C     0.91213   0.58036   0.21475   0.00000  Uiso   1.00
C158   C     0.90084   0.53039   0.15431   0.00000  Uiso   1.00
C159   C     0.85701   0.57901   0.41553   0.00000  Uiso   1.00
C160   C     0.90984   0.57715   0.47556   0.00000  Uiso   1.00
C161   C     0.89750   0.52568   0.53440   0.00000  Uiso   1.00
H162   H     0.69464   0.50549   0.34218   0.00000  Uiso   1.00
H163   H     0.59808   0.61449   0.34274   0.00000  Uiso   1.00
H164   H     0.73527   0.44589   0.21133   0.00000  Uiso   1.00
H165   H     0.73298   0.44267   0.47210   0.00000  Uiso   1.00
H166   H     0.51877   0.75644   0.34386   0.00000  Uiso   1.00
H167   H     0.80807   0.40092   0.06680   0.00000  Uiso   1.00
H168   H     0.80323   0.39413   0.61668   0.00000  Uiso   1.00
H169   H     0.90845   0.66807   0.34634   0.00000  Uiso   1.00
H170   H     0.82362   0.78600   0.34713   0.00000  Uiso   1.00
H171   H     0.96082   0.61739   0.21572   0.00000  Uiso   1.00
H172   H     0.95852   0.61418   0.47649   0.00000  Uiso   1.00
H173   H     0.70183   0.89564   0.34742   0.00000  Uiso   1.00
H174   H     0.99113   0.54011   0.07036   0.00000  Uiso   1.00
H175   H     0.98629   0.53333   0.62024   0.00000  Uiso   1.00
O176   O     0.55064   0.90069   0.34606   0.00000  Uiso   1.00
O177   O     0.93020   0.43424   0.98257   0.00000  Uiso   1.00
O178   O     0.92385   0.42534   0.70400   0.00000  Uiso   1.00
N179   N     0.57350   0.77302   0.34461   0.00000  Uiso   1.00
N180   N     0.84397   0.44063   0.08556   0.00000  Uiso   1.00
N181   N     0.83946   0.43427   0.59964   0.00000  Uiso   1.00
N182   N     0.67200   0.84792   0.34652   0.00000  Uiso   1.00
N183   N     0.94247   0.51553   0.08748   0.00000  Uiso   1.00
N184   N     0.93796   0.50917   0.60156   0.00000  Uiso   1.00
C185   C     0.75638   0.04274   0.34314   0.00000  Uiso   1.00
C186   C     0.77919   0.12451   0.34402   0.00000  Uiso   1.00
C187   C     0.85324   0.15154   0.34369   0.00000  Uiso   1.00
C188   C     0.86217   0.22820   0.34462   0.00000  Uiso   1.00
C189   C     0.90716   0.34789   0.34577   0.00000  Uiso   1.00
C190   C     0.70466   0.03291   0.27262   0.00000  Uiso   1.00
C191   C     0.71603   0.98291   0.21226   0.00000  Uiso   1.00
C192   C     0.66220   0.98246   0.15309   0.00000  Uiso   1.00
C193   C     0.59144   0.95990   0.04341   0.00000  Uiso   1.00
C194   C     0.70591   0.03116   0.41430   0.00000  Uiso   1.00
C195   C     0.71832   0.97969   0.47307   0.00000  Uiso   1.00
C196   C     0.66553   0.97775   0.53318   0.00000  Uiso   1.00
C197   C     0.59672   0.95248   0.64349   0.00000  Uiso   1.00
C198   C     0.64054   0.13082   0.34539   0.00000  Uiso   1.00
C199   C     0.71627   0.17235   0.34524   0.00000  Uiso   1.00
C200   C     0.72508   0.24899   0.34618   0.00000  Uiso   1.00
C201   C     0.79913   0.27613   0.34585   0.00000  Uiso   1.00
C202   C     0.64174   0.08075   0.27384   0.00000  Uiso   1.00
C203   C     0.58787   0.08036   0.21475   0.00000  Uiso   1.00
C204   C     0.59916   0.03039   0.15431   0.00000  Uiso   1.00
C205   C     0.64299   0.07901   0.41553   0.00000  Uiso   1.00
C206   C     0.59016   0.07715   0.47556   0.00000  Uiso   1.00
C207   C     0.60250   0.02568   0.53440   0.00000  Uiso   1.00
H208   H     0.80536   0.00549   0.34218   0.00000  Uiso   1.00
H209   H     0.90192   0.11449   0.34274   0.00000  Uiso   1.00
H210   H     0.76473   0.94589   0.21133   0.00000  Uiso   1.00
H211   H     0.76702   0.94267   0.47210   0.00000  Uiso   1.00
H212   H     0.98123   0.25644   0.34386   0.00000  Uiso   1.00
H213   H     0.69193   0.90092   0.06680   0.00000  Uiso   1.00
H214   H     0.69677   0.89413   0.61668   0.00000  Uiso   1.00
H215   H     0.59155   0.16807   0.34634   0.00000  Uiso   1.00
H216   H     0.67638   0.28600   0.34713   0.00000  Uiso   1.00
H217   H     0.53918   0.11739   0.21572   0.00000  Uiso   1.00
H218   H     0.54148   0.11418   0.47649   0.00000  Uiso   1.00
H219   H     0.79817   0.39564   0.34742   0.00000  Uiso   1.00
H220   H     0.50887   0.04011   0.07036   0.00000  Uiso   1.00
H221   H     0.51371   0.03333   0.62024   0.00000  Uiso   1.00
O222   O     0.94936   0.40069   0.34606   0.00000  Uiso   1.00
O223   O     0.56980   0.93424   0.98257   0.00000  Uiso   1.00
O224   O     0.57615   0.92534   0.70400   0.00000  Uiso   1.00
N225   N     0.92650   0.27302   0.34461   0.00000  Uiso   1.00
N226   N     0.65603   0.94063   0.08556   0.00000  Uiso   1.00
N227   N     0.66054   0.93427   0.59964   0.00000  Uiso   1.00
N228   N     0.82800   0.34792   0.34652   0.00000  Uiso   1.00
N229   N     0.55753   0.01553   0.08748   0.00000  Uiso   1.00
N230   N     0.56204   0.00917   0.60156   0.00000  Uiso   1.00
C231   C     0.74362   0.95726   0.84314   0.00000  Uiso   1.00
C232   C     0.72081   0.87549   0.84402   0.00000  Uiso   1.00
C233   C     0.64676   0.84846   0.84369   0.00000  Uiso   1.00
C234   C     0.63783   0.77180   0.84462   0.00000  Uiso   1.00
C235   C     0.59284   0.65211   0.84577   0.00000  Uiso   1.00
C236   C     0.79534   0.96709   0.77262   0.00000  Uiso   1.00
C237   C     0.78397   0.01709   0.71226   0.00000  Uiso   1.00
C238   C     0.83780   0.01754   0.65309   0.00000  Uiso   1.00
C239   C     0.90856   0.04010   0.54341   0.00000  Uiso   1.00
C240   C     0.79409   0.96884   0.91430   0.00000  Uiso   1.00
C241   C     0.78168   0.02031   0.97307   0.00000  Uiso   1.00
C242   C     0.83447   0.02225   0.03318   0.00000  Uiso   1.00
C243   C     0.90328   0.04752   0.14349   0.00000  Uiso   1.00
C244   C     0.85946   0.86918   0.84539   0.00000  Uiso   1.00
C245   C     0.78373   0.82765   0.84524   0.00000  Uiso   1.00
C246   C     0.77492   0.75101   0.84618   0.00000  Uiso   1.00
C247   C     0.70087   0.72387   0.84585   0.00000  Uiso   1.00
C248   C     0.85826   0.91925   0.77384   0.00000  Uiso   1.00
C249   C     0.91213   0.91964   0.71475   0.00000  Uiso   1.00
C250   C     0.90084   0.96961   0.65431   0.00000  Uiso   1.00
C251   C     0.85701   0.92099   0.91553   0.00000  Uiso   1.00
C252   C     0.90984   0.92285   0.97556   0.00000  Uiso   1.00
C253   C     0.89750   0.97432   0.03440   0.00000  Uiso   1.00
H254   H     0.69464   0.99451   0.84218   0.00000  Uiso   1.00
H255   H     0.59808   0.88551   0.84274   0.00000  Uiso   1.00
H256   H     0.73527   0.05411   0.71133   0.00000  Uiso   1.00
H257   H     0.73298   0.05733   0.97210   0.00000  Uiso   1.00
H258   H     0.51877   0.74356   0.84386   0.00000  Uiso   1.00
H259   H     0.80807   0.09908   0.56680   0.00000  Uiso   1.00
H260   H     0.80323   0.10587   0.11668   0.00000  Uiso   1.00
H261   H     0.90845   0.83193   0.84634   0.00000  Uiso   1.00
H262   H     0.82362   0.71400   0.84713   0.00000  Uiso   1.00
H263   H     0.96082   0.88261   0.71572   0.00000  Uiso   1.00
H264   H     0.95852   0.88582   0.97649   0.00000  Uiso   1.00
H265   H     0.70183   0.60436   0.84742   0.00000  Uiso   1.00
H266   H     0.99113   0.95989   0.57036   0.00000  Uiso   1.00
H267   H     0.98629   0.96667   0.12024   0.00000  Uiso   1.00
O268   O     0.55064   0.59931   0.84606   0.00000  Uiso   1.00
O269   O     0.93020   0.06576   0.48257   0.00000  Uiso   1.00
O270   O     0.92385   0.07466   0.20400   0.00000  Uiso   1.00
N271   N     0.57350   0.72698   0.84461   0.00000  Uiso   1.00
N272   N     0.84397   0.05937   0.58556   0.00000  Uiso   1.00
N273   N     0.83946   0.06573   0.09964   0.00000  Uiso   1.00
N274   N     0.67200   0.65208   0.84652   0.00000  Uiso   1.00
N275   N     0.94247   0.98447   0.58748   0.00000  Uiso   1.00
N276   N     0.93796   0.99083   0.10156   0.00000  Uiso   1.00
C277   C     0.24362   0.54274   0.15686   0.00000  Uiso   1.00
C278   C     0.22081   0.62451   0.15598   0.00000  Uiso   1.00
C279   C     0.14676   0.65154   0.15631   0.00000  Uiso   1.00
C280   C     0.13783   0.72820   0.15538   0.00000  Uiso   1.00
C281   C     0.09284   0.84789   0.15423   0.00000  Uiso   1.00
C282   C     0.29534   0.53291   0.22738   0.00000  Uiso   1.00
C283   C     0.28397   0.48291   0.28774   0.00000  Uiso   1.00
C284   C     0.33780   0.48246   0.34691   0.00000  Uiso   1.00
C285   C     0.40856   0.45990   0.45659   0.00000  Uiso   1.00
C286   C     0.29409   0.53116   0.08570   0.00000  Uiso   1.00
C287   C     0.28168   0.47969   0.02693   0.00000  Uiso   1.00
C288   C     0.33447   0.47775   0.96682   0.00000  Uiso   1.00
C289   C     0.40328   0.45248   0.85651   0.00000  Uiso   1.00
C290   C     0.35946   0.63082   0.15461   0.00000  Uiso   1.00
C291   C     0.28373   0.67235   0.15476   0.00000  Uiso   1.00
C292   C     0.27492   0.74899   0.15382   0.00000  Uiso   1.00
C293   C     0.20087   0.77613   0.15415   0.00000  Uiso   1.00
C294   C     0.35826   0.58075   0.22616   0.00000  Uiso   1.00
C295   C     0.41213   0.58036   0.28525   0.00000  Uiso   1.00
C296   C     0.40084   0.53039   0.34569   0.00000  Uiso   1.00
C297   C     0.35701   0.57901   0.08447   0.00000  Uiso   1.00
C298   C     0.40984   0.57715   0.02444   0.00000  Uiso   1.00
C299   C     0.39750   0.52568   0.96560   0.00000  Uiso   1.00
H300   H     0.19464   0.50549   0.15782   0.00000  Uiso   1.00
H301   H     0.09808   0.61449   0.15726   0.00000  Uiso   1.00
H302   H     0.23527   0.44589   0.28867   0.00000  Uiso   1.00
H303   H     0.23298   0.44267   0.02790   0.00000  Uiso   1.00
H304   H     0.01877   0.75644   0.15614   0.00000  Uiso   1.00
H305   H     0.30807   0.40092   0.43320   0.00000  Uiso   1.00
H306   H     0.30323   0.39413   0.88332   0.00000  Uiso   1.00
H307   H     0.40845   0.66807   0.15366   0.00000  Uiso   1.00
H308   H     0.32362   0.78600   0.15287   0.00000  Uiso   1.00
H309   H     0.46082   0.61739   0.28428   0.00000  Uiso   1.00
H310   H     0.45852   0.61418   0.02351   0.00000  Uiso   1.00
H311   H     0.20183   0.89564   0.15258   0.00000  Uiso   1.00
H312   H     0.49113   0.54011   0.42964   0.00000  Uiso   1.00
H313   H     0.48629   0.53333   0.87976   0.00000  Uiso   1.00
O314   O     0.05064   0.90069   0.15394   0.00000  Uiso   1.00
O315   O     0.43020   0.43424   0.51743   0.00000  Uiso   1.00
O316   O     0.42385   0.42534   0.79600   0.00000  Uiso   1.00
N317   N     0.07350   0.77302   0.15539   0.00000  Uiso   1.00
N318   N     0.34397   0.44063   0.41444   0.00000  Uiso   1.00
N319   N     0.33946   0.43427   0.90036   0.00000  Uiso   1.00
N320   N     0.17200   0.84792   0.15348   0.00000  Uiso   1.00
N321   N     0.44247   0.51553   0.41252   0.00000  Uiso   1.00
N322   N     0.43796   0.50917   0.89844   0.00000  Uiso   1.00
C323   C     0.25638   0.45726   0.65686   0.00000  Uiso   1.00
C324   C     0.27919   0.37549   0.65598   0.00000  Uiso   1.00
C325   C     0.35324   0.34846   0.65631   0.00000  Uiso   1.00
C326   C     0.36217   0.27180   0.65538   0.00000  Uiso   1.00
C327   C     0.40716   0.15211   0.65423   0.00000  Uiso   1.00
C328   C     0.20466   0.46709   0.72738   0.00000  Uiso   1.00
C329   C     0.21603   0.51709   0.78774   0.00000  Uiso   1.00
C330   C     0.16220   0.51754   0.84691   0.00000  Uiso   1.00
C331   C     0.09144   0.54010   0.95659   0.00000  Uiso   1.00
C332   C     0.20591   0.46884   0.58570   0.00000  Uiso   1.00
C333   C     0.21832   0.52031   0.52693   0.00000  Uiso   1.00
C334   C     0.16553   0.52225   0.46682   0.00000  Uiso   1.00
C335   C     0.09672   0.54752   0.35651   0.00000  Uiso   1.00
C336   C     0.14054   0.36918   0.65461   0.00000  Uiso   1.00
C337   C     0.21627   0.32765   0.65476   0.00000  Uiso   1.00
C338   C     0.22508   0.25101   0.65382   0.00000  Uiso   1.00
C339   C     0.29913   0.22387   0.65415   0.00000  Uiso   1.00
C340   C     0.14174   0.41925   0.72616   0.00000  Uiso   1.00
C341   C     0.08787   0.41964   0.78525   0.00000  Uiso   1.00
C342   C     0.09916   0.46961   0.84569   0.00000  Uiso   1.00
C343   C     0.14299   0.42099   0.58447   0.00000  Uiso   1.00
C344   C     0.09016   0.42285   0.52444   0.00000  Uiso   1.00
C345   C     0.10250   0.47432   0.46560   0.00000  Uiso   1.00
H346   H     0.30536   0.49451   0.65782   0.00000  Uiso   1.00
H347   H     0.40192   0.38551   0.65726   0.00000  Uiso   1.00
H348   H     0.26473   0.55411   0.78867   0.00000  Uiso   1.00
H349   H     0.26702   0.55733   0.52790   0.00000  Uiso   1.00
H350   H     0.48123   0.24356   0.65614   0.00000  Uiso   1.00
H351   H     0.19193   0.59908   0.93320   0.00000  Uiso   1.00
H352   H     0.19677   0.60587   0.38332   0.00000  Uiso   1.00
H353   H     0.09155   0.33193   0.65366   0.00000  Uiso   1.00
H354   H     0.17638   0.21400   0.65287   0.00000  Uiso   1.00
H355   H     0.03918   0.38261   0.78428   0.00000  Uiso   1.00
H356   H     0.04148   0.38582   0.52351   0.00000  Uiso   1.00
H357   H     0.29817   0.10436   0.65258   0.00000  Uiso   1.00
H358   H     0.00887   0.45989   0.92964   0.00000  Uiso   1.00
H359   H     0.01371   0.46667   0.37976   0.00000  Uiso   1.00
O360   O     0.44936   0.09931   0.65394   0.00000  Uiso   1.00
O361   O     0.06980   0.56576   0.01743   0.00000  Uiso   1.00
O362   O     0.07615   0.57466   0.29600   0.00000  Uiso   1.00
N363   N     0.42650   0.22698   0.65539   0.00000  Uiso   1.00
N364   N     0.15603   0.55937   0.91444   0.00000  Uiso   1.00
N365   N     0.16054   0.56573   0.40036   0.00000  Uiso   1.00
N366   N     0.32800   0.15208   0.65348   0.00000  Uiso   1.00
N367   N     0.05753   0.48447   0.91252   0.00000  Uiso   1.00
N368   N     0.06204   0.49083   0.39844   0.00000  Uiso   1.00
