data_job_00392
_audit_creation_date              2018-12-19
_audit_creation_method            'Materials Studio'
_symmetry_space_group_name_H-M    'P1'
_symmetry_Int_Tables_number       1
_symmetry_cell_setting            triclinic
loop_
_symmetry_equiv_pos_as_xyz
  x,y,z
_cell_length_a                    25.1044
_cell_length_b                    16.8987
_cell_length_c                    17.9654
_cell_angle_alpha                 90.0000
_cell_angle_beta                  139.5621
_cell_angle_gamma                 90.0000
loop_
_atom_site_label
_atom_site_type_symbol
_atom_site_fract_x
_atom_site_fract_y
_atom_site_fract_z
_atom_site_U_iso_or_equiv
_atom_site_adp_type
_atom_site_occupancy
C1     C     0.90861   0.16395   0.29348   0.00000  Uiso   1.00
C2     C     0.00026   0.14961   0.40198   0.00000  Uiso   1.00
C3     C     0.04304   0.08256   0.42543   0.00000  Uiso   1.00
C4     C     0.12663   0.08078   0.52949   0.00000  Uiso   1.00
C5     C     0.26296   0.04889   0.68616   0.00000  Uiso   1.00
C6     C     0.87363   0.18028   0.33351   0.00000  Uiso   1.00
C7     C     0.80992   0.13903   0.29936   0.00000  Uiso   1.00
C8     C     0.78690   0.16308   0.34577   0.00000  Uiso   1.00
C9     C     0.72659   0.17885   0.39606   0.00000  Uiso   1.00
C10    C     0.90152   0.24151   0.24304   0.00000  Uiso   1.00
C11    C     0.86126   0.25176   0.13282   0.00000  Uiso   1.00
C12    C     0.86171   0.32737   0.10305   0.00000  Uiso   1.00
C13    C     0.84471   0.43821   0.01289   0.00000  Uiso   1.00
C14    C     0.98097   0.28002   0.43660   0.00000  Uiso   1.00
C15    C     0.03957   0.21265   0.47972   0.00000  Uiso   1.00
C16    C     0.12311   0.21097   0.58377   0.00000  Uiso   1.00
C17    C     0.16601   0.14394   0.60736   0.00000  Uiso   1.00
C18    C     0.91293   0.24332   0.41124   0.00000  Uiso   1.00
C19    C     0.88999   0.26744   0.45770   0.00000  Uiso   1.00
C20    C     0.82628   0.22623   0.42364   0.00000  Uiso   1.00
C21    C     0.94083   0.30455   0.32078   0.00000  Uiso   1.00
C22    C     0.94133   0.38016   0.29117   0.00000  Uiso   1.00
C23    C     0.90108   0.39052   0.18093   0.00000  Uiso   1.00
H24    H     0.87800   0.11488   0.23296   0.00000  Uiso   1.00
H25    H     0.01260   0.03378   0.36525   0.00000  Uiso   1.00
H26    H     0.77951   0.09025   0.23919   0.00000  Uiso   1.00
H27    H     0.83085   0.20296   0.07269   0.00000  Uiso   1.00
H28    H     0.17916   0.97167   0.54621   0.00000  Uiso   1.00
H29    H     0.68767   0.09075   0.28039   0.00000  Uiso   1.00
H30    H     0.79591   0.32842   0.92927   0.00000  Uiso   1.00
H31    H     0.01158   0.32910   0.49712   0.00000  Uiso   1.00
H32    H     0.15351   0.25976   0.64391   0.00000  Uiso   1.00
H33    H     0.92042   0.31623   0.51785   0.00000  Uiso   1.00
H34    H     0.97176   0.42893   0.35135   0.00000  Uiso   1.00
H35    H     0.29353   0.15508   0.77239   0.00000  Uiso   1.00
H36    H     0.80203   0.27416   0.50655   0.00000  Uiso   1.00
H37    H     0.91028   0.51183   0.15545   0.00000  Uiso   1.00
O38    O     0.32729   0.01389   0.75111   0.00000  Uiso   1.00
O39    O     0.68247   0.17012   0.40233   0.00000  Uiso   1.00
O40    O     0.82448   0.48194   0.94169   0.00000  Uiso   1.00
N41    N     0.18660   0.02436   0.57929   0.00000  Uiso   1.00
N42    N     0.72709   0.13568   0.33077   0.00000  Uiso   1.00
N43    N     0.82827   0.35789   0.00250   0.00000  Uiso   1.00
N44    N     0.24814   0.12305   0.70099   0.00000  Uiso   1.00
N45    N     0.78863   0.23437   0.45247   0.00000  Uiso   1.00
N46    N     0.88981   0.45658   0.12420   0.00000  Uiso   1.00
C47    C     0.40861   0.66395   0.29348   0.00000  Uiso   1.00
C48    C     0.50026   0.64961   0.40198   0.00000  Uiso   1.00
C49    C     0.54304   0.58256   0.42543   0.00000  Uiso   1.00
C50    C     0.62663   0.58078   0.52949   0.00000  Uiso   1.00
C51    C     0.76296   0.54889   0.68616   0.00000  Uiso   1.00
C52    C     0.37363   0.68028   0.33351   0.00000  Uiso   1.00
C53    C     0.30992   0.63903   0.29936   0.00000  Uiso   1.00
C54    C     0.28690   0.66308   0.34577   0.00000  Uiso   1.00
C55    C     0.22659   0.67885   0.39606   0.00000  Uiso   1.00
C56    C     0.40152   0.74151   0.24304   0.00000  Uiso   1.00
C57    C     0.36126   0.75176   0.13282   0.00000  Uiso   1.00
C58    C     0.36171   0.82737   0.10305   0.00000  Uiso   1.00
C59    C     0.34471   0.93821   0.01289   0.00000  Uiso   1.00
C60    C     0.48097   0.78002   0.43660   0.00000  Uiso   1.00
C61    C     0.53957   0.71265   0.47972   0.00000  Uiso   1.00
C62    C     0.62311   0.71097   0.58377   0.00000  Uiso   1.00
C63    C     0.66601   0.64394   0.60736   0.00000  Uiso   1.00
C64    C     0.41293   0.74332   0.41124   0.00000  Uiso   1.00
C65    C     0.38999   0.76744   0.45770   0.00000  Uiso   1.00
C66    C     0.32628   0.72623   0.42364   0.00000  Uiso   1.00
C67    C     0.44083   0.80455   0.32078   0.00000  Uiso   1.00
C68    C     0.44133   0.88016   0.29117   0.00000  Uiso   1.00
C69    C     0.40108   0.89052   0.18093   0.00000  Uiso   1.00
H70    H     0.37800   0.61488   0.23296   0.00000  Uiso   1.00
H71    H     0.51260   0.53378   0.36525   0.00000  Uiso   1.00
H72    H     0.27951   0.59025   0.23919   0.00000  Uiso   1.00
H73    H     0.33085   0.70296   0.07269   0.00000  Uiso   1.00
H74    H     0.67916   0.47167   0.54621   0.00000  Uiso   1.00
H75    H     0.18767   0.59075   0.28039   0.00000  Uiso   1.00
H76    H     0.29591   0.82842   0.92927   0.00000  Uiso   1.00
H77    H     0.51158   0.82910   0.49712   0.00000  Uiso   1.00
H78    H     0.65351   0.75976   0.64391   0.00000  Uiso   1.00
H79    H     0.42042   0.81623   0.51785   0.00000  Uiso   1.00
H80    H     0.47176   0.92893   0.35135   0.00000  Uiso   1.00
H81    H     0.79353   0.65508   0.77239   0.00000  Uiso   1.00
H82    H     0.30203   0.77416   0.50655   0.00000  Uiso   1.00
H83    H     0.41028   0.01183   0.15545   0.00000  Uiso   1.00
O84    O     0.82729   0.51389   0.75111   0.00000  Uiso   1.00
O85    O     0.18247   0.67012   0.40233   0.00000  Uiso   1.00
O86    O     0.32448   0.98194   0.94169   0.00000  Uiso   1.00
N87    N     0.68660   0.52436   0.57929   0.00000  Uiso   1.00
N88    N     0.22709   0.63568   0.33077   0.00000  Uiso   1.00
N89    N     0.32827   0.85789   0.00250   0.00000  Uiso   1.00
N90    N     0.74814   0.62305   0.70099   0.00000  Uiso   1.00
N91    N     0.28863   0.73437   0.45247   0.00000  Uiso   1.00
N92    N     0.38981   0.95658   0.12420   0.00000  Uiso   1.00
C93    C     0.09139   0.16395   0.20652   0.00000  Uiso   1.00
C94    C     0.99974   0.14961   0.09802   0.00000  Uiso   1.00
C95    C     0.95696   0.08256   0.07457   0.00000  Uiso   1.00
C96    C     0.87337   0.08078   0.97051   0.00000  Uiso   1.00
C97    C     0.73704   0.04889   0.81384   0.00000  Uiso   1.00
C98    C     0.12637   0.18028   0.16649   0.00000  Uiso   1.00
C99    C     0.19008   0.13903   0.20064   0.00000  Uiso   1.00
C100   C     0.21310   0.16308   0.15423   0.00000  Uiso   1.00
C101   C     0.27341   0.17885   0.10394   0.00000  Uiso   1.00
C102   C     0.09848   0.24151   0.25696   0.00000  Uiso   1.00
C103   C     0.13874   0.25176   0.36718   0.00000  Uiso   1.00
C104   C     0.13829   0.32737   0.39695   0.00000  Uiso   1.00
C105   C     0.15529   0.43821   0.48711   0.00000  Uiso   1.00
C106   C     0.01903   0.28002   0.06340   0.00000  Uiso   1.00
C107   C     0.96043   0.21265   0.02028   0.00000  Uiso   1.00
C108   C     0.87689   0.21097   0.91623   0.00000  Uiso   1.00
C109   C     0.83399   0.14394   0.89264   0.00000  Uiso   1.00
C110   C     0.08707   0.24332   0.08876   0.00000  Uiso   1.00
C111   C     0.11001   0.26744   0.04230   0.00000  Uiso   1.00
C112   C     0.17372   0.22623   0.07636   0.00000  Uiso   1.00
C113   C     0.05917   0.30455   0.17922   0.00000  Uiso   1.00
C114   C     0.05867   0.38016   0.20883   0.00000  Uiso   1.00
C115   C     0.09892   0.39052   0.31907   0.00000  Uiso   1.00
H116   H     0.12200   0.11488   0.26704   0.00000  Uiso   1.00
H117   H     0.98740   0.03378   0.13475   0.00000  Uiso   1.00
H118   H     0.22049   0.09025   0.26081   0.00000  Uiso   1.00
H119   H     0.16915   0.20296   0.42731   0.00000  Uiso   1.00
H120   H     0.82084   0.97167   0.95379   0.00000  Uiso   1.00
H121   H     0.31233   0.09075   0.21961   0.00000  Uiso   1.00
H122   H     0.20409   0.32842   0.57073   0.00000  Uiso   1.00
H123   H     0.98842   0.32910   0.00288   0.00000  Uiso   1.00
H124   H     0.84649   0.25976   0.85609   0.00000  Uiso   1.00
H125   H     0.07958   0.31623   0.98215   0.00000  Uiso   1.00
H126   H     0.02824   0.42893   0.14865   0.00000  Uiso   1.00
H127   H     0.70647   0.15508   0.72761   0.00000  Uiso   1.00
H128   H     0.19797   0.27416   0.99345   0.00000  Uiso   1.00
H129   H     0.08972   0.51183   0.34455   0.00000  Uiso   1.00
O130   O     0.67271   0.01389   0.74889   0.00000  Uiso   1.00
O131   O     0.31753   0.17012   0.09767   0.00000  Uiso   1.00
O132   O     0.17552   0.48194   0.55831   0.00000  Uiso   1.00
N133   N     0.81340   0.02436   0.92071   0.00000  Uiso   1.00
N134   N     0.27291   0.13568   0.16923   0.00000  Uiso   1.00
N135   N     0.17173   0.35789   0.49750   0.00000  Uiso   1.00
N136   N     0.75186   0.12305   0.79901   0.00000  Uiso   1.00
N137   N     0.21137   0.23437   0.04753   0.00000  Uiso   1.00
N138   N     0.11019   0.45658   0.37580   0.00000  Uiso   1.00
C139   C     0.59139   0.66395   0.20652   0.00000  Uiso   1.00
C140   C     0.49974   0.64961   0.09802   0.00000  Uiso   1.00
C141   C     0.45696   0.58256   0.07457   0.00000  Uiso   1.00
C142   C     0.37337   0.58078   0.97051   0.00000  Uiso   1.00
C143   C     0.23704   0.54889   0.81384   0.00000  Uiso   1.00
C144   C     0.62637   0.68028   0.16649   0.00000  Uiso   1.00
C145   C     0.69008   0.63903   0.20064   0.00000  Uiso   1.00
C146   C     0.71310   0.66308   0.15423   0.00000  Uiso   1.00
C147   C     0.77341   0.67885   0.10394   0.00000  Uiso   1.00
C148   C     0.59848   0.74151   0.25696   0.00000  Uiso   1.00
C149   C     0.63874   0.75176   0.36718   0.00000  Uiso   1.00
C150   C     0.63829   0.82737   0.39695   0.00000  Uiso   1.00
C151   C     0.65529   0.93821   0.48711   0.00000  Uiso   1.00
C152   C     0.51903   0.78002   0.06340   0.00000  Uiso   1.00
C153   C     0.46043   0.71265   0.02028   0.00000  Uiso   1.00
C154   C     0.37689   0.71097   0.91623   0.00000  Uiso   1.00
C155   C     0.33399   0.64394   0.89264   0.00000  Uiso   1.00
C156   C     0.58707   0.74332   0.08876   0.00000  Uiso   1.00
C157   C     0.61001   0.76744   0.04230   0.00000  Uiso   1.00
C158   C     0.67372   0.72623   0.07636   0.00000  Uiso   1.00
C159   C     0.55917   0.80455   0.17922   0.00000  Uiso   1.00
C160   C     0.55867   0.88016   0.20883   0.00000  Uiso   1.00
C161   C     0.59892   0.89052   0.31907   0.00000  Uiso   1.00
H162   H     0.62200   0.61488   0.26704   0.00000  Uiso   1.00
H163   H     0.48740   0.53378   0.13475   0.00000  Uiso   1.00
H164   H     0.72049   0.59025   0.26081   0.00000  Uiso   1.00
H165   H     0.66915   0.70296   0.42731   0.00000  Uiso   1.00
H166   H     0.32084   0.47167   0.95379   0.00000  Uiso   1.00
H167   H     0.81233   0.59075   0.21961   0.00000  Uiso   1.00
H168   H     0.70409   0.82842   0.57073   0.00000  Uiso   1.00
H169   H     0.48842   0.82910   0.00288   0.00000  Uiso   1.00
H170   H     0.34649   0.75976   0.85609   0.00000  Uiso   1.00
H171   H     0.57958   0.81623   0.98215   0.00000  Uiso   1.00
H172   H     0.52824   0.92893   0.14865   0.00000  Uiso   1.00
H173   H     0.20647   0.65508   0.72761   0.00000  Uiso   1.00
H174   H     0.69797   0.77416   0.99345   0.00000  Uiso   1.00
H175   H     0.58972   0.01183   0.34455   0.00000  Uiso   1.00
O176   O     0.17271   0.51389   0.74889   0.00000  Uiso   1.00
O177   O     0.81753   0.67012   0.09767   0.00000  Uiso   1.00
O178   O     0.67552   0.98194   0.55831   0.00000  Uiso   1.00
N179   N     0.31340   0.52436   0.92071   0.00000  Uiso   1.00
N180   N     0.77291   0.63568   0.16923   0.00000  Uiso   1.00
N181   N     0.67173   0.85789   0.49750   0.00000  Uiso   1.00
N182   N     0.25186   0.62305   0.79901   0.00000  Uiso   1.00
N183   N     0.71137   0.73437   0.04753   0.00000  Uiso   1.00
N184   N     0.61019   0.95658   0.37580   0.00000  Uiso   1.00
C185   C     0.09139   0.83605   0.70652   0.00000  Uiso   1.00
C186   C     0.99974   0.85039   0.59802   0.00000  Uiso   1.00
C187   C     0.95696   0.91744   0.57457   0.00000  Uiso   1.00
C188   C     0.87337   0.91922   0.47051   0.00000  Uiso   1.00
C189   C     0.73704   0.95111   0.31384   0.00000  Uiso   1.00
C190   C     0.12637   0.81972   0.66649   0.00000  Uiso   1.00
C191   C     0.19008   0.86097   0.70064   0.00000  Uiso   1.00
C192   C     0.21310   0.83692   0.65423   0.00000  Uiso   1.00
C193   C     0.27341   0.82115   0.60394   0.00000  Uiso   1.00
C194   C     0.09848   0.75849   0.75696   0.00000  Uiso   1.00
C195   C     0.13874   0.74824   0.86718   0.00000  Uiso   1.00
C196   C     0.13829   0.67263   0.89695   0.00000  Uiso   1.00
C197   C     0.15529   0.56179   0.98711   0.00000  Uiso   1.00
C198   C     0.01903   0.71998   0.56340   0.00000  Uiso   1.00
C199   C     0.96043   0.78735   0.52028   0.00000  Uiso   1.00
C200   C     0.87689   0.78903   0.41623   0.00000  Uiso   1.00
C201   C     0.83399   0.85606   0.39264   0.00000  Uiso   1.00
C202   C     0.08707   0.75668   0.58876   0.00000  Uiso   1.00
C203   C     0.11001   0.73256   0.54230   0.00000  Uiso   1.00
C204   C     0.17372   0.77377   0.57636   0.00000  Uiso   1.00
C205   C     0.05917   0.69545   0.67922   0.00000  Uiso   1.00
C206   C     0.05867   0.61984   0.70883   0.00000  Uiso   1.00
C207   C     0.09892   0.60948   0.81907   0.00000  Uiso   1.00
H208   H     0.12200   0.88512   0.76704   0.00000  Uiso   1.00
H209   H     0.98740   0.96622   0.63475   0.00000  Uiso   1.00
H210   H     0.22049   0.90975   0.76081   0.00000  Uiso   1.00
H211   H     0.16915   0.79704   0.92731   0.00000  Uiso   1.00
H212   H     0.82084   0.02833   0.45379   0.00000  Uiso   1.00
H213   H     0.31233   0.90925   0.71961   0.00000  Uiso   1.00
H214   H     0.20409   0.67158   0.07073   0.00000  Uiso   1.00
H215   H     0.98842   0.67090   0.50288   0.00000  Uiso   1.00
H216   H     0.84649   0.74024   0.35609   0.00000  Uiso   1.00
H217   H     0.07958   0.68377   0.48215   0.00000  Uiso   1.00
H218   H     0.02824   0.57107   0.64865   0.00000  Uiso   1.00
H219   H     0.70647   0.84492   0.22761   0.00000  Uiso   1.00
H220   H     0.19797   0.72584   0.49345   0.00000  Uiso   1.00
H221   H     0.08972   0.48817   0.84455   0.00000  Uiso   1.00
O222   O     0.67271   0.98611   0.24889   0.00000  Uiso   1.00
O223   O     0.31753   0.82988   0.59767   0.00000  Uiso   1.00
O224   O     0.17552   0.51806   0.05831   0.00000  Uiso   1.00
N225   N     0.81340   0.97564   0.42071   0.00000  Uiso   1.00
N226   N     0.27291   0.86432   0.66923   0.00000  Uiso   1.00
N227   N     0.17173   0.64211   0.99750   0.00000  Uiso   1.00
N228   N     0.75186   0.87695   0.29901   0.00000  Uiso   1.00
N229   N     0.21137   0.76563   0.54753   0.00000  Uiso   1.00
N230   N     0.11019   0.54342   0.87580   0.00000  Uiso   1.00
C231   C     0.59139   0.33605   0.70652   0.00000  Uiso   1.00
C232   C     0.49974   0.35039   0.59802   0.00000  Uiso   1.00
C233   C     0.45696   0.41744   0.57457   0.00000  Uiso   1.00
C234   C     0.37337   0.41922   0.47051   0.00000  Uiso   1.00
C235   C     0.23704   0.45111   0.31384   0.00000  Uiso   1.00
C236   C     0.62637   0.31972   0.66649   0.00000  Uiso   1.00
C237   C     0.69008   0.36097   0.70064   0.00000  Uiso   1.00
C238   C     0.71310   0.33692   0.65423   0.00000  Uiso   1.00
C239   C     0.77341   0.32115   0.60394   0.00000  Uiso   1.00
C240   C     0.59848   0.25849   0.75696   0.00000  Uiso   1.00
C241   C     0.63874   0.24824   0.86718   0.00000  Uiso   1.00
C242   C     0.63829   0.17263   0.89695   0.00000  Uiso   1.00
C243   C     0.65529   0.06179   0.98711   0.00000  Uiso   1.00
C244   C     0.51903   0.21998   0.56340   0.00000  Uiso   1.00
C245   C     0.46043   0.28735   0.52028   0.00000  Uiso   1.00
C246   C     0.37689   0.28903   0.41623   0.00000  Uiso   1.00
C247   C     0.33399   0.35606   0.39264   0.00000  Uiso   1.00
C248   C     0.58707   0.25668   0.58876   0.00000  Uiso   1.00
C249   C     0.61001   0.23256   0.54230   0.00000  Uiso   1.00
C250   C     0.67372   0.27377   0.57636   0.00000  Uiso   1.00
C251   C     0.55917   0.19545   0.67922   0.00000  Uiso   1.00
C252   C     0.55867   0.11984   0.70883   0.00000  Uiso   1.00
C253   C     0.59892   0.10948   0.81907   0.00000  Uiso   1.00
H254   H     0.62200   0.38512   0.76704   0.00000  Uiso   1.00
H255   H     0.48740   0.46622   0.63475   0.00000  Uiso   1.00
H256   H     0.72049   0.40975   0.76081   0.00000  Uiso   1.00
H257   H     0.66915   0.29704   0.92731   0.00000  Uiso   1.00
H258   H     0.32084   0.52833   0.45379   0.00000  Uiso   1.00
H259   H     0.81233   0.40925   0.71961   0.00000  Uiso   1.00
H260   H     0.70409   0.17158   0.07073   0.00000  Uiso   1.00
H261   H     0.48842   0.17090   0.50288   0.00000  Uiso   1.00
H262   H     0.34649   0.24024   0.35609   0.00000  Uiso   1.00
H263   H     0.57958   0.18377   0.48215   0.00000  Uiso   1.00
H264   H     0.52824   0.07107   0.64865   0.00000  Uiso   1.00
H265   H     0.20647   0.34492   0.22761   0.00000  Uiso   1.00
H266   H     0.69797   0.22584   0.49345   0.00000  Uiso   1.00
H267   H     0.58972   0.98817   0.84455   0.00000  Uiso   1.00
O268   O     0.17271   0.48611   0.24889   0.00000  Uiso   1.00
O269   O     0.81753   0.32988   0.59767   0.00000  Uiso   1.00
O270   O     0.67552   0.01806   0.05831   0.00000  Uiso   1.00
N271   N     0.31340   0.47564   0.42071   0.00000  Uiso   1.00
N272   N     0.77291   0.36432   0.66923   0.00000  Uiso   1.00
N273   N     0.67173   0.14211   0.99750   0.00000  Uiso   1.00
N274   N     0.25186   0.37695   0.29901   0.00000  Uiso   1.00
N275   N     0.71137   0.26563   0.54753   0.00000  Uiso   1.00
N276   N     0.61019   0.04342   0.87580   0.00000  Uiso   1.00
C277   C     0.90861   0.83605   0.79348   0.00000  Uiso   1.00
C278   C     0.00026   0.85039   0.90198   0.00000  Uiso   1.00
C279   C     0.04304   0.91744   0.92543   0.00000  Uiso   1.00
C280   C     0.12663   0.91922   0.02949   0.00000  Uiso   1.00
C281   C     0.26296   0.95111   0.18616   0.00000  Uiso   1.00
C282   C     0.87363   0.81972   0.83351   0.00000  Uiso   1.00
C283   C     0.80992   0.86097   0.79936   0.00000  Uiso   1.00
C284   C     0.78690   0.83692   0.84577   0.00000  Uiso   1.00
C285   C     0.72659   0.82115   0.89606   0.00000  Uiso   1.00
C286   C     0.90152   0.75849   0.74304   0.00000  Uiso   1.00
C287   C     0.86126   0.74824   0.63282   0.00000  Uiso   1.00
C288   C     0.86171   0.67263   0.60305   0.00000  Uiso   1.00
C289   C     0.84471   0.56179   0.51289   0.00000  Uiso   1.00
C290   C     0.98097   0.71998   0.93660   0.00000  Uiso   1.00
C291   C     0.03957   0.78735   0.97972   0.00000  Uiso   1.00
C292   C     0.12311   0.78903   0.08377   0.00000  Uiso   1.00
C293   C     0.16601   0.85606   0.10736   0.00000  Uiso   1.00
C294   C     0.91293   0.75668   0.91124   0.00000  Uiso   1.00
C295   C     0.88999   0.73256   0.95770   0.00000  Uiso   1.00
C296   C     0.82628   0.77377   0.92364   0.00000  Uiso   1.00
C297   C     0.94083   0.69545   0.82078   0.00000  Uiso   1.00
C298   C     0.94133   0.61984   0.79117   0.00000  Uiso   1.00
C299   C     0.90108   0.60948   0.68093   0.00000  Uiso   1.00
H300   H     0.87800   0.88512   0.73296   0.00000  Uiso   1.00
H301   H     0.01260   0.96622   0.86525   0.00000  Uiso   1.00
H302   H     0.77951   0.90975   0.73919   0.00000  Uiso   1.00
H303   H     0.83085   0.79704   0.57269   0.00000  Uiso   1.00
H304   H     0.17916   0.02833   0.04621   0.00000  Uiso   1.00
H305   H     0.68767   0.90925   0.78039   0.00000  Uiso   1.00
H306   H     0.79591   0.67158   0.42927   0.00000  Uiso   1.00
H307   H     0.01158   0.67090   0.99712   0.00000  Uiso   1.00
H308   H     0.15351   0.74024   0.14391   0.00000  Uiso   1.00
H309   H     0.92042   0.68377   0.01785   0.00000  Uiso   1.00
H310   H     0.97176   0.57107   0.85135   0.00000  Uiso   1.00
H311   H     0.29353   0.84492   0.27239   0.00000  Uiso   1.00
H312   H     0.80203   0.72584   0.00655   0.00000  Uiso   1.00
H313   H     0.91028   0.48817   0.65545   0.00000  Uiso   1.00
O314   O     0.32729   0.98611   0.25111   0.00000  Uiso   1.00
O315   O     0.68247   0.82988   0.90233   0.00000  Uiso   1.00
O316   O     0.82448   0.51806   0.44169   0.00000  Uiso   1.00
N317   N     0.18660   0.97564   0.07929   0.00000  Uiso   1.00
N318   N     0.72709   0.86432   0.83077   0.00000  Uiso   1.00
N319   N     0.82827   0.64211   0.50250   0.00000  Uiso   1.00
N320   N     0.24814   0.87695   0.20099   0.00000  Uiso   1.00
N321   N     0.78863   0.76563   0.95247   0.00000  Uiso   1.00
N322   N     0.88981   0.54342   0.62420   0.00000  Uiso   1.00
C323   C     0.40861   0.33605   0.79348   0.00000  Uiso   1.00
C324   C     0.50026   0.35039   0.90198   0.00000  Uiso   1.00
C325   C     0.54304   0.41744   0.92543   0.00000  Uiso   1.00
C326   C     0.62663   0.41922   0.02949   0.00000  Uiso   1.00
C327   C     0.76296   0.45111   0.18616   0.00000  Uiso   1.00
C328   C     0.37363   0.31972   0.83351   0.00000  Uiso   1.00
C329   C     0.30992   0.36097   0.79936   0.00000  Uiso   1.00
C330   C     0.28690   0.33692   0.84577   0.00000  Uiso   1.00
C331   C     0.22659   0.32115   0.89606   0.00000  Uiso   1.00
C332   C     0.40152   0.25849   0.74304   0.00000  Uiso   1.00
C333   C     0.36126   0.24824   0.63282   0.00000  Uiso   1.00
C334   C     0.36171   0.17263   0.60305   0.00000  Uiso   1.00
C335   C     0.34471   0.06179   0.51289   0.00000  Uiso   1.00
C336   C     0.48097   0.21998   0.93660   0.00000  Uiso   1.00
C337   C     0.53957   0.28735   0.97972   0.00000  Uiso   1.00
C338   C     0.62311   0.28903   0.08377   0.00000  Uiso   1.00
C339   C     0.66601   0.35606   0.10736   0.00000  Uiso   1.00
C340   C     0.41293   0.25668   0.91124   0.00000  Uiso   1.00
C341   C     0.38999   0.23256   0.95770   0.00000  Uiso   1.00
C342   C     0.32628   0.27377   0.92364   0.00000  Uiso   1.00
C343   C     0.44083   0.19545   0.82078   0.00000  Uiso   1.00
C344   C     0.44133   0.11984   0.79117   0.00000  Uiso   1.00
C345   C     0.40108   0.10948   0.68093   0.00000  Uiso   1.00
H346   H     0.37800   0.38512   0.73296   0.00000  Uiso   1.00
H347   H     0.51260   0.46622   0.86525   0.00000  Uiso   1.00
H348   H     0.27951   0.40975   0.73919   0.00000  Uiso   1.00
H349   H     0.33085   0.29704   0.57269   0.00000  Uiso   1.00
H350   H     0.67916   0.52833   0.04621   0.00000  Uiso   1.00
H351   H     0.18767   0.40925   0.78039   0.00000  Uiso   1.00
H352   H     0.29591   0.17158   0.42927   0.00000  Uiso   1.00
H353   H     0.51158   0.17090   0.99712   0.00000  Uiso   1.00
H354   H     0.65351   0.24024   0.14391   0.00000  Uiso   1.00
H355   H     0.42042   0.18377   0.01785   0.00000  Uiso   1.00
H356   H     0.47176   0.07107   0.85135   0.00000  Uiso   1.00
H357   H     0.79353   0.34492   0.27239   0.00000  Uiso   1.00
H358   H     0.30203   0.22584   0.00655   0.00000  Uiso   1.00
H359   H     0.41028   0.98817   0.65545   0.00000  Uiso   1.00
O360   O     0.82729   0.48611   0.25111   0.00000  Uiso   1.00
O361   O     0.18247   0.32988   0.90233   0.00000  Uiso   1.00
O362   O     0.32448   0.01806   0.44169   0.00000  Uiso   1.00
N363   N     0.68660   0.47564   0.07929   0.00000  Uiso   1.00
N364   N     0.22709   0.36432   0.83077   0.00000  Uiso   1.00
N365   N     0.32827   0.14211   0.50250   0.00000  Uiso   1.00
N366   N     0.74814   0.37695   0.20099   0.00000  Uiso   1.00
N367   N     0.28863   0.26563   0.95247   0.00000  Uiso   1.00
N368   N     0.38981   0.04342   0.62420   0.00000  Uiso   1.00
