data_job_06583
_audit_creation_date              2018-12-19
_audit_creation_method            'Materials Studio'
_symmetry_space_group_name_H-M    'P1'
_symmetry_Int_Tables_number       1
_symmetry_cell_setting            triclinic
loop_
_symmetry_equiv_pos_as_xyz
  x,y,z
_cell_length_a                    18.8078
_cell_length_b                    19.0806
_cell_length_c                    21.7213
_cell_angle_alpha                 96.7886
_cell_angle_beta                  99.0123
_cell_angle_gamma                 93.4207
loop_
_atom_site_label
_atom_site_type_symbol
_atom_site_fract_x
_atom_site_fract_y
_atom_site_fract_z
_atom_site_U_iso_or_equiv
_atom_site_adp_type
_atom_site_occupancy
C1     C     0.83134   0.26617   0.48464   0.00000  Uiso   1.00
C2     C     0.77692   0.29986   0.52177   0.00000  Uiso   1.00
C3     C     0.79336   0.34051   0.58024   0.00000  Uiso   1.00
C4     C     0.73589   0.36655   0.60639   0.00000  Uiso   1.00
C5     C     0.66224   0.42097   0.66880   0.00000  Uiso   1.00
C6     C     0.80791   0.18720   0.47177   0.00000  Uiso   1.00
C7     C     0.85041   0.13314   0.48819   0.00000  Uiso   1.00
C8     C     0.81902   0.06434   0.47225   0.00000  Uiso   1.00
C9     C     0.79349   0.94387   0.45699   0.00000  Uiso   1.00
C10    C     0.81920   0.29359   0.42097   0.00000  Uiso   1.00
C11    C     0.87120   0.32897   0.39466   0.00000  Uiso   1.00
C12    C     0.84933   0.34973   0.33594   0.00000  Uiso   1.00
C13    C     0.84134   0.39444   0.24181   0.00000  Uiso   1.00
C14    C     0.70003   0.24011   0.42711   0.00000  Uiso   1.00
C15    C     0.70560   0.28569   0.49052   0.00000  Uiso   1.00
C16    C     0.64808   0.31168   0.51658   0.00000  Uiso   1.00
C17    C     0.66444   0.35237   0.57508   0.00000  Uiso   1.00
C18    C     0.73659   0.17304   0.44052   0.00000  Uiso   1.00
C19    C     0.70513   0.10431   0.42454   0.00000  Uiso   1.00
C20    C     0.74757   0.05016   0.44094   0.00000  Uiso   1.00
C21    C     0.74788   0.27943   0.38972   0.00000  Uiso   1.00
C22    C     0.72593   0.30013   0.33101   0.00000  Uiso   1.00
C23    C     0.77788   0.33554   0.30463   0.00000  Uiso   1.00
H24    H     0.88686   0.27719   0.50897   0.00000  Uiso   1.00
H25    H     0.84856   0.35145   0.60441   0.00000  Uiso   1.00
H26    H     0.90560   0.14412   0.51237   0.00000  Uiso   1.00
H27    H     0.92639   0.33991   0.41886   0.00000  Uiso   1.00
H28    H     0.77464   0.42752   0.69645   0.00000  Uiso   1.00
H29    H     0.89492   0.99034   0.50236   0.00000  Uiso   1.00
H30    H     0.93876   0.40322   0.30518   0.00000  Uiso   1.00
H31    H     0.64450   0.22908   0.40278   0.00000  Uiso   1.00
H32    H     0.59290   0.30071   0.49239   0.00000  Uiso   1.00
H33    H     0.64994   0.09337   0.40035   0.00000  Uiso   1.00
H34    H     0.67073   0.28917   0.30684   0.00000  Uiso   1.00
H35    H     0.56714   0.38633   0.60553   0.00000  Uiso   1.00
H36    H     0.68741   0.94915   0.41144   0.00000  Uiso   1.00
H37    H     0.73126   0.36203   0.21426   0.00000  Uiso   1.00
O38    O     0.64131   0.45489   0.71187   0.00000  Uiso   1.00
O39    O     0.79912   0.88133   0.45722   0.00000  Uiso   1.00
O40    O     0.85664   0.42302   0.19852   0.00000  Uiso   1.00
N41    N     0.73289   0.40801   0.66275   0.00000  Uiso   1.00
N42    N     0.84533   0.99927   0.48130   0.00000  Uiso   1.00
N43    N     0.88633   0.38526   0.29694   0.00000  Uiso   1.00
N44    N     0.62123   0.38585   0.61383   0.00000  Uiso   1.00
N45    N     0.73368   0.97711   0.43238   0.00000  Uiso   1.00
N46    N     0.77467   0.36310   0.24802   0.00000  Uiso   1.00
C47    C     0.31235   0.73961   0.39234   0.00000  Uiso   1.00
C48    C     0.38321   0.70846   0.41471   0.00000  Uiso   1.00
C49    C     0.42423   0.72356   0.47429   0.00000  Uiso   1.00
C50    C     0.48737   0.68961   0.48548   0.00000  Uiso   1.00
C51    C     0.59418   0.64847   0.52732   0.00000  Uiso   1.00
C52    C     0.32368   0.77400   0.33434   0.00000  Uiso   1.00
C53    C     0.31464   0.84421   0.32636   0.00000  Uiso   1.00
C54    C     0.32766   0.86542   0.26989   0.00000  Uiso   1.00
C55    C     0.34199   0.92602   0.18695   0.00000  Uiso   1.00
C56    C     0.25701   0.67665   0.36896   0.00000  Uiso   1.00
C57    C     0.19191   0.66501   0.39006   0.00000  Uiso   1.00
C58    C     0.14880   0.60427   0.36272   0.00000  Uiso   1.00
C59    C     0.05962   0.51371   0.33352   0.00000  Uiso   1.00
C60    C     0.35152   0.65246   0.30625   0.00000  Uiso   1.00
C61    C     0.40449   0.66113   0.36795   0.00000  Uiso   1.00
C62    C     0.46758   0.62714   0.37905   0.00000  Uiso   1.00
C63    C     0.50869   0.64218   0.43864   0.00000  Uiso   1.00
C64    C     0.34496   0.72667   0.28759   0.00000  Uiso   1.00
C65    C     0.35798   0.74778   0.23112   0.00000  Uiso   1.00
C66    C     0.34897   0.81800   0.22305   0.00000  Uiso   1.00
C67    C     0.27829   0.62931   0.32220   0.00000  Uiso   1.00
C68    C     0.23526   0.56858   0.29482   0.00000  Uiso   1.00
C69    C     0.17011   0.55684   0.31588   0.00000  Uiso   1.00
H70    H     0.29578   0.77647   0.42873   0.00000  Uiso   1.00
H71    H     0.40775   0.76021   0.51046   0.00000  Uiso   1.00
H72    H     0.29816   0.88083   0.36255   0.00000  Uiso   1.00
H73    H     0.17546   0.70165   0.42624   0.00000  Uiso   1.00
H74    H     0.54129   0.72132   0.58045   0.00000  Uiso   1.00
H75    H     0.31020   0.97565   0.26856   0.00000  Uiso   1.00
H76    H     0.05145   0.59783   0.40286   0.00000  Uiso   1.00
H77    H     0.36809   0.61560   0.26984   0.00000  Uiso   1.00
H78    H     0.48403   0.59051   0.34285   0.00000  Uiso   1.00
H79    H     0.37445   0.71113   0.19494   0.00000  Uiso   1.00
H80    H     0.25175   0.53196   0.25863   0.00000  Uiso   1.00
H81    H     0.60320   0.58359   0.44441   0.00000  Uiso   1.00
H82    H     0.37211   0.83792   0.13252   0.00000  Uiso   1.00
H83    H     0.11337   0.46009   0.26682   0.00000  Uiso   1.00
O84    O     0.64722   0.63887   0.56332   0.00000  Uiso   1.00
O85    O     0.34402   0.97253   0.15413   0.00000  Uiso   1.00
O86    O     0.00456   0.47684   0.33033   0.00000  Uiso   1.00
N87    N     0.53994   0.69234   0.53841   0.00000  Uiso   1.00
N88    N     0.32389   0.93012   0.24682   0.00000  Uiso   1.00
N89    N     0.08198   0.57690   0.37237   0.00000  Uiso   1.00
N90    N     0.57326   0.61822   0.46521   0.00000  Uiso   1.00
N91    N     0.35721   0.85601   0.17362   0.00000  Uiso   1.00
N92    N     0.11530   0.50279   0.29917   0.00000  Uiso   1.00
C93    C     0.39311   0.26221   0.77335   0.00000  Uiso   1.00
C94    C     0.39776   0.31969   0.73065   0.00000  Uiso   1.00
C95    C     0.45969   0.36111   0.72671   0.00000  Uiso   1.00
C96    C     0.45273   0.41081   0.68478   0.00000  Uiso   1.00
C97    C     0.47007   0.49888   0.62408   0.00000  Uiso   1.00
C98    C     0.33538   0.28222   0.81287   0.00000  Uiso   1.00
C99    C     0.34486   0.29212   0.87806   0.00000  Uiso   1.00
C100   C     0.28539   0.31027   0.90534   0.00000  Uiso   1.00
C101   C     0.20587   0.34012   0.97229   0.00000  Uiso   1.00
C102   C     0.36223   0.19473   0.73031   0.00000  Uiso   1.00
C103   C     0.39428   0.13106   0.72608   0.00000  Uiso   1.00
C104   C     0.35741   0.07553   0.68386   0.00000  Uiso   1.00
C105   C     0.31959   0.96954   0.62260   0.00000  Uiso   1.00
C106   C     0.27062   0.27682   0.70589   0.00000  Uiso   1.00
C107   C     0.33123   0.32763   0.69401   0.00000  Uiso   1.00
C108   C     0.32417   0.37727   0.65207   0.00000  Uiso   1.00
C109   C     0.38608   0.41876   0.64807   0.00000  Uiso   1.00
C110   C     0.26885   0.29016   0.77624   0.00000  Uiso   1.00
C111   C     0.20935   0.30829   0.80343   0.00000  Uiso   1.00
C112   C     0.21874   0.31822   0.86864   0.00000  Uiso   1.00
C113   C     0.29570   0.20266   0.69366   0.00000  Uiso   1.00
C114   C     0.25877   0.14723   0.65144   0.00000  Uiso   1.00
C115   C     0.29076   0.08349   0.64715   0.00000  Uiso   1.00
H116   H     0.44490   0.25603   0.80188   0.00000  Uiso   1.00
H117   H     0.51116   0.35496   0.75508   0.00000  Uiso   1.00
H118   H     0.39635   0.28597   0.90641   0.00000  Uiso   1.00
H119   H     0.44577   0.12494   0.75444   0.00000  Uiso   1.00
H120   H     0.55528   0.46815   0.68705   0.00000  Uiso   1.00
H121   H     0.31319   0.32267   0.00613   0.00000  Uiso   1.00
H122   H     0.41740   0.98309   0.68569   0.00000  Uiso   1.00
H123   H     0.21882   0.28300   0.67737   0.00000  Uiso   1.00
H124   H     0.27268   0.38340   0.62373   0.00000  Uiso   1.00
H125   H     0.15787   0.31442   0.77506   0.00000  Uiso   1.00
H126   H     0.20728   0.15339   0.62309   0.00000  Uiso   1.00
H127   H     0.36172   0.49125   0.58044   0.00000  Uiso   1.00
H128   H     0.11963   0.34576   0.89952   0.00000  Uiso   1.00
H129   H     0.22383   0.00619   0.57908   0.00000  Uiso   1.00
O130   O     0.49801   0.54528   0.60072   0.00000  Uiso   1.00
O131   O     0.18039   0.35440   0.01934   0.00000  Uiso   1.00
O132   O     0.31711   0.90889   0.59893   0.00000  Uiso   1.00
N133   N     0.50234   0.45980   0.66931   0.00000  Uiso   1.00
N134   N     0.27600   0.32379   0.96763   0.00000  Uiso   1.00
N135   N     0.37342   0.00631   0.66806   0.00000  Uiso   1.00
N136   N     0.39819   0.47222   0.61194   0.00000  Uiso   1.00
N137   N     0.17185   0.33622   0.91026   0.00000  Uiso   1.00
N138   N     0.26926   0.01874   0.61069   0.00000  Uiso   1.00
C139   C     0.30719   0.74421   0.90900   0.00000  Uiso   1.00
C140   C     0.27362   0.81297   0.92682   0.00000  Uiso   1.00
C141   C     0.29291   0.85765   0.98300   0.00000  Uiso   1.00
C142   C     0.25575   0.91801   0.99028   0.00000  Uiso   1.00
C143   C     0.21194   0.02251   0.02513   0.00000  Uiso   1.00
C144   C     0.33430   0.75198   0.84737   0.00000  Uiso   1.00
C145   C     0.40460   0.74537   0.83676   0.00000  Uiso   1.00
C146   C     0.41852   0.75438   0.77715   0.00000  Uiso   1.00
C147   C     0.46890   0.76414   0.68865   0.00000  Uiso   1.00
C148   C     0.24492   0.68670   0.89319   0.00000  Uiso   1.00
C149   C     0.24009   0.62517   0.92108   0.00000  Uiso   1.00
C150   C     0.17876   0.57920   0.90003   0.00000  Uiso   1.00
C151   C     0.09037   0.48759   0.88266   0.00000  Uiso   1.00
C152   C     0.20689   0.77197   0.82202   0.00000  Uiso   1.00
C153   C     0.21914   0.82805   0.87957   0.00000  Uiso   1.00
C154   C     0.18194   0.88836   0.88677   0.00000  Uiso   1.00
C155   C     0.20117   0.93312   0.94295   0.00000  Uiso   1.00
C156   C     0.27983   0.76706   0.80013   0.00000  Uiso   1.00
C157   C     0.29364   0.77608   0.74052   0.00000  Uiso   1.00
C158   C     0.36395   0.76948   0.72982   0.00000  Uiso   1.00
C159   C     0.19044   0.70177   0.84594   0.00000  Uiso   1.00
C160   C     0.12912   0.65589   0.82485   0.00000  Uiso   1.00
C161   C     0.12419   0.59431   0.85270   0.00000  Uiso   1.00
H162   H     0.34960   0.73247   0.94578   0.00000  Uiso   1.00
H163   H     0.33507   0.84597   0.01955   0.00000  Uiso   1.00
H164   H     0.44675   0.73369   0.87333   0.00000  Uiso   1.00
H165   H     0.28225   0.61352   0.95764   0.00000  Uiso   1.00
H166   H     0.29496   0.97846   0.08050   0.00000  Uiso   1.00
H167   H     0.53043   0.74170   0.77217   0.00000  Uiso   1.00
H168   H     0.18356   0.48829   0.94996   0.00000  Uiso   1.00
H169   H     0.16448   0.78371   0.78523   0.00000  Uiso   1.00
H170   H     0.13979   0.90001   0.85020   0.00000  Uiso   1.00
H171   H     0.25147   0.78774   0.70397   0.00000  Uiso   1.00
H172   H     0.08697   0.66757   0.78829   0.00000  Uiso   1.00
H173   H     0.13646   0.02233   0.94305   0.00000  Uiso   1.00
H174   H     0.37193   0.78557   0.63472   0.00000  Uiso   1.00
H175   H     0.02506   0.53216   0.81250   0.00000  Uiso   1.00
O176   O     0.20283   0.07599   0.05740   0.00000  Uiso   1.00
O177   O     0.51175   0.76536   0.65288   0.00000  Uiso   1.00
O178   O     0.05666   0.43290   0.88613   0.00000  Uiso   1.00
N179   N     0.26104   0.97281   0.03924   0.00000  Uiso   1.00
N180   N     0.48119   0.75147   0.75097   0.00000  Uiso   1.00
N181   N     0.15690   0.51455   0.91718   0.00000  Uiso   1.00
N182   N     0.17575   0.99642   0.96528   0.00000  Uiso   1.00
N183   N     0.39590   0.77508   0.67701   0.00000  Uiso   1.00
N184   N     0.07161   0.53815   0.84321   0.00000  Uiso   1.00
C185   C     0.83042   0.82050   0.25924   0.00000  Uiso   1.00
C186   C     0.88496   0.82724   0.21479   0.00000  Uiso   1.00
C187   C     0.93070   0.88679   0.21384   0.00000  Uiso   1.00
C188   C     0.97665   0.88236   0.16959   0.00000  Uiso   1.00
C189   C     0.06135   0.90222   0.10694   0.00000  Uiso   1.00
C190   C     0.84909   0.75651   0.29277   0.00000  Uiso   1.00
C191   C     0.86465   0.75659   0.35738   0.00000  Uiso   1.00
C192   C     0.88039   0.69261   0.37877   0.00000  Uiso   1.00
C193   C     0.90934   0.60265   0.43718   0.00000  Uiso   1.00
C194   C     0.75739   0.79978   0.21749   0.00000  Uiso   1.00
C195   C     0.69585   0.83624   0.21882   0.00000  Uiso   1.00
C196   C     0.63439   0.80869   0.17684   0.00000  Uiso   1.00
C197   C     0.52097   0.78592   0.11837   0.00000  Uiso   1.00
C198   C     0.83069   0.70674   0.18235   0.00000  Uiso   1.00
C199   C     0.88511   0.76545   0.17303   0.00000  Uiso   1.00
C200   C     0.93100   0.76094   0.12877   0.00000  Uiso   1.00
C201   C     0.97680   0.82047   0.12775   0.00000  Uiso   1.00
C202   C     0.84924   0.69472   0.25100   0.00000  Uiso   1.00
C203   C     0.86495   0.63073   0.27230   0.00000  Uiso   1.00
C204   C     0.88054   0.63071   0.33693   0.00000  Uiso   1.00
C205   C     0.75754   0.73800   0.17572   0.00000  Uiso   1.00
C206   C     0.69616   0.71038   0.13374   0.00000  Uiso   1.00
C207   C     0.63454   0.74679   0.13500   0.00000  Uiso   1.00
H208   H     0.83030   0.86860   0.29176   0.00000  Uiso   1.00
H209   H     0.93057   0.93459   0.24617   0.00000  Uiso   1.00
H210   H     0.86453   0.80441   0.38969   0.00000  Uiso   1.00
H211   H     0.69576   0.88405   0.25115   0.00000  Uiso   1.00
H212   H     0.04183   0.98051   0.17722   0.00000  Uiso   1.00
H213   H     0.90254   0.70600   0.47983   0.00000  Uiso   1.00
H214   H     0.54666   0.87393   0.18769   0.00000  Uiso   1.00
H215   H     0.83081   0.65864   0.14984   0.00000  Uiso   1.00
H216   H     0.93111   0.71311   0.09645   0.00000  Uiso   1.00
H217   H     0.86506   0.58293   0.23997   0.00000  Uiso   1.00
H218   H     0.69630   0.66257   0.10143   0.00000  Uiso   1.00
H219   H     0.04227   0.80074   0.05571   0.00000  Uiso   1.00
H220   H     0.90297   0.52623   0.35832   0.00000  Uiso   1.00
H221   H     0.54710   0.69417   0.06618   0.00000  Uiso   1.00
O222   O     0.10804   0.93024   0.08392   0.00000  Uiso   1.00
O223   O     0.92528   0.57009   0.48094   0.00000  Uiso   1.00
O224   O     0.45838   0.79043   0.09765   0.00000  Uiso   1.00
N225   N     0.02816   0.93073   0.15594   0.00000  Uiso   1.00
N226   N     0.89794   0.67408   0.43886   0.00000  Uiso   1.00
N227   N     0.56522   0.83108   0.16575   0.00000  Uiso   1.00
N228   N     0.02839   0.83400   0.09055   0.00000  Uiso   1.00
N229   N     0.89817   0.57735   0.37348   0.00000  Uiso   1.00
N230   N     0.56545   0.73435   0.10036   0.00000  Uiso   1.00
C231   C     0.86541   0.18899   0.89324   0.00000  Uiso   1.00
C232   C     0.88365   0.15285   0.95208   0.00000  Uiso   1.00
C233   C     0.94275   0.17165   0.99933   0.00000  Uiso   1.00
C234   C     0.94990   0.13201   0.04928   0.00000  Uiso   1.00
C235   C     0.98583   0.08450   0.14027   0.00000  Uiso   1.00
C236   C     0.78912   0.21195   0.89321   0.00000  Uiso   1.00
C237   C     0.76874   0.28044   0.89096   0.00000  Uiso   1.00
C238   C     0.69631   0.29055   0.89135   0.00000  Uiso   1.00
C239   C     0.58548   0.33479   0.89090   0.00000  Uiso   1.00
C240   C     0.86012   0.13101   0.83765   0.00000  Uiso   1.00
C241   C     0.89943   0.13146   0.78867   0.00000  Uiso   1.00
C242   C     0.88676   0.07343   0.74227   0.00000  Uiso   1.00
C243   C     0.88618   0.99201   0.65555   0.00000  Uiso   1.00
C244   C     0.77300   0.08516   0.89791   0.00000  Uiso   1.00
C245   C     0.83345   0.09645   0.95461   0.00000  Uiso   1.00
C246   C     0.84051   0.05678   0.00450   0.00000  Uiso   1.00
C247   C     0.89962   0.07552   0.05182   0.00000  Uiso   1.00
C248   C     0.73893   0.15556   0.89575   0.00000  Uiso   1.00
C249   C     0.66650   0.16557   0.89613   0.00000  Uiso   1.00
C250   C     0.64602   0.23406   0.89389   0.00000  Uiso   1.00
C251   C     0.80993   0.07462   0.84018   0.00000  Uiso   1.00
C252   C     0.79719   0.01658   0.79385   0.00000  Uiso   1.00
C253   C     0.83648   0.01694   0.74481   0.00000  Uiso   1.00
H254   H     0.90448   0.23289   0.89127   0.00000  Uiso   1.00
H255   H     0.98158   0.21530   0.99736   0.00000  Uiso   1.00
H256   H     0.80760   0.32407   0.88900   0.00000  Uiso   1.00
H257   H     0.93827   0.17511   0.78673   0.00000  Uiso   1.00
H258   H     0.04491   0.17094   0.11610   0.00000  Uiso   1.00
H259   H     0.67805   0.40029   0.88760   0.00000  Uiso   1.00
H260   H     0.95359   0.08618   0.67194   0.00000  Uiso   1.00
H261   H     0.73392   0.04125   0.89989   0.00000  Uiso   1.00
H262   H     0.80166   0.01314   0.00645   0.00000  Uiso   1.00
H263   H     0.62768   0.12191   0.89809   0.00000  Uiso   1.00
H264   H     0.75835   0.97295   0.79582   0.00000  Uiso   1.00
H265   H     0.89888   0.00686   0.12349   0.00000  Uiso   1.00
H266   H     0.53202   0.23621   0.89498   0.00000  Uiso   1.00
H267   H     0.80757   0.92209   0.67933   0.00000  Uiso   1.00
O268   O     0.01952   0.07388   0.18975   0.00000  Uiso   1.00
O269   O     0.53822   0.37477   0.88995   0.00000  Uiso   1.00
O270   O     0.89973   0.96266   0.60702   0.00000  Uiso   1.00
N271   N     0.00125   0.13617   0.10321   0.00000  Uiso   1.00
N272   N     0.65826   0.35060   0.88959   0.00000  Uiso   1.00
N273   N     0.91586   0.05694   0.68795   0.00000  Uiso   1.00
N274   N     0.92267   0.04788   0.10719   0.00000  Uiso   1.00
N275   N     0.57969   0.26231   0.89356   0.00000  Uiso   1.00
N276   N     0.83728   0.96865   0.69193   0.00000  Uiso   1.00
C277   C     0.16913   0.55582   0.56609   0.00000  Uiso   1.00
C278   C     0.21165   0.52584   0.51610   0.00000  Uiso   1.00
C279   C     0.18741   0.47012   0.46895   0.00000  Uiso   1.00
C280   C     0.23445   0.45061   0.42782   0.00000  Uiso   1.00
C281   C     0.29001   0.39876   0.34930   0.00000  Uiso   1.00
C282   C     0.16658   0.63454   0.56029   0.00000  Uiso   1.00
C283   C     0.10445   0.67020   0.55030   0.00000  Uiso   1.00
C284   C     0.11355   0.74220   0.54639   0.00000  Uiso   1.00
C285   C     0.09914   0.85911   0.53652   0.00000  Uiso   1.00
C286   C     0.21593   0.55125   0.62927   0.00000  Uiso   1.00
C287   C     0.19529   0.51690   0.67729   0.00000  Uiso   1.00
C288   C     0.24594   0.51879   0.73146   0.00000  Uiso   1.00
C289   C     0.30815   0.50639   0.82868   0.00000  Uiso   1.00
C290   C     0.29577   0.62027   0.57691   0.00000  Uiso   1.00
C291   C     0.28044   0.56085   0.52198   0.00000  Uiso   1.00
C292   C     0.32753   0.54142   0.48092   0.00000  Uiso   1.00
C293   C     0.30337   0.48567   0.43371   0.00000  Uiso   1.00
C294   C     0.23537   0.66954   0.56617   0.00000  Uiso   1.00
C295   C     0.24457   0.74150   0.56227   0.00000  Uiso   1.00
C296   C     0.18247   0.77727   0.55228   0.00000  Uiso   1.00
C297   C     0.28472   0.58625   0.63515   0.00000  Uiso   1.00
C298   C     0.33541   0.58820   0.68926   0.00000  Uiso   1.00
C299   C     0.31485   0.55386   0.73734   0.00000  Uiso   1.00
H300   H     0.11557   0.52857   0.56151   0.00000  Uiso   1.00
H301   H     0.13417   0.44305   0.46441   0.00000  Uiso   1.00
H302   H     0.05122   0.64310   0.54576   0.00000  Uiso   1.00
H303   H     0.14205   0.48982   0.67272   0.00000  Uiso   1.00
H304   H     0.18512   0.36368   0.35934   0.00000  Uiso   1.00
H305   H     0.01022   0.78551   0.53089   0.00000  Uiso   1.00
H306   H     0.20175   0.46229   0.79862   0.00000  Uiso   1.00
H307   H     0.34933   0.64752   0.58148   0.00000  Uiso   1.00
H308   H     0.38076   0.56851   0.48548   0.00000  Uiso   1.00
H309   H     0.29781   0.76857   0.56683   0.00000  Uiso   1.00
H310   H     0.38864   0.61529   0.69379   0.00000  Uiso   1.00
H311   H     0.38526   0.46551   0.37643   0.00000  Uiso   1.00
H312   H     0.21036   0.88735   0.54799   0.00000  Uiso   1.00
H313   H     0.40189   0.56413   0.81571   0.00000  Uiso   1.00
O314   O     0.30164   0.36049   0.30436   0.00000  Uiso   1.00
O315   O     0.07218   0.91392   0.52944   0.00000  Uiso   1.00
O316   O     0.32346   0.48987   0.88069   0.00000  Uiso   1.00
N317   N     0.22792   0.39848   0.37654   0.00000  Uiso   1.00
N318   N     0.06439   0.79286   0.53692   0.00000  Uiso   1.00
N319   N     0.24345   0.49070   0.78723   0.00000  Uiso   1.00
N320   N     0.33561   0.45327   0.38574   0.00000  Uiso   1.00
N321   N     0.17209   0.84766   0.54613   0.00000  Uiso   1.00
N322   N     0.35115   0.54550   0.79643   0.00000  Uiso   1.00
C323   C     0.64594   0.06581   0.61717   0.00000  Uiso   1.00
C324   C     0.57777   0.09901   0.59081   0.00000  Uiso   1.00
C325   C     0.54200   0.08624   0.52917   0.00000  Uiso   1.00
C326   C     0.48057   0.12180   0.51439   0.00000  Uiso   1.00
C327   C     0.37846   0.16623   0.46658   0.00000  Uiso   1.00
C328   C     0.62751   0.02990   0.67241   0.00000  Uiso   1.00
C329   C     0.63358   0.95902   0.67937   0.00000  Uiso   1.00
C330   C     0.61403   0.93641   0.73327   0.00000  Uiso   1.00
C331   C     0.58920   0.87355   0.81216   0.00000  Uiso   1.00
C332   C     0.70134   0.12737   0.64542   0.00000  Uiso   1.00
C333   C     0.76950   0.13844   0.62970   0.00000  Uiso   1.00
C334   C     0.81211   0.19788   0.66090   0.00000  Uiso   1.00
C335   C     0.90191   0.28636   0.69789   0.00000  Uiso   1.00
C336   C     0.60044   0.15169   0.70053   0.00000  Uiso   1.00
C337   C     0.55306   0.14565   0.63610   0.00000  Uiso   1.00
C338   C     0.49166   0.18125   0.62140   0.00000  Uiso   1.00
C339   C     0.45581   0.16853   0.55975   0.00000  Uiso   1.00
C340   C     0.60280   0.07654   0.71769   0.00000  Uiso   1.00
C341   C     0.58324   0.05403   0.77160   0.00000  Uiso   1.00
C342   C     0.58927   0.98314   0.77863   0.00000  Uiso   1.00
C343   C     0.67663   0.17401   0.69070   0.00000  Uiso   1.00
C344   C     0.71915   0.23345   0.72193   0.00000  Uiso   1.00
C345   C     0.78735   0.24461   0.70626   0.00000  Uiso   1.00
H346   H     0.66518   0.02949   0.58192   0.00000  Uiso   1.00
H347   H     0.56114   0.05013   0.49414   0.00000  Uiso   1.00
H348   H     0.65271   0.92294   0.64432   0.00000  Uiso   1.00
H349   H     0.78860   0.10233   0.59466   0.00000  Uiso   1.00
H350   H     0.43489   0.09356   0.41680   0.00000  Uiso   1.00
H351   H     0.62799   0.82537   0.73346   0.00000  Uiso   1.00
H352   H     0.91454   0.20365   0.62875   0.00000  Uiso   1.00
H353   H     0.58119   0.18800   0.73579   0.00000  Uiso   1.00
H354   H     0.47255   0.21734   0.65645   0.00000  Uiso   1.00
H355   H     0.56412   0.09014   0.80663   0.00000  Uiso   1.00
H356   H     0.70000   0.26954   0.75697   0.00000  Uiso   1.00
H357   H     0.36297   0.22927   0.54854   0.00000  Uiso   1.00
H358   H     0.55608   0.96108   0.86520   0.00000  Uiso   1.00
H359   H     0.84263   0.33937   0.76049   0.00000  Uiso   1.00
O360   O     0.32896   0.17784   0.42771   0.00000  Uiso   1.00
O361   O     0.58232   0.82599   0.84316   0.00000  Uiso   1.00
O362   O     0.95827   0.32229   0.70578   0.00000  Uiso   1.00
N363   N     0.43288   0.12148   0.45869   0.00000  Uiso   1.00
N364   N     0.61341   0.87074   0.75475   0.00000  Uiso   1.00
N365   N     0.88132   0.22439   0.65686   0.00000  Uiso   1.00
N366   N     0.39419   0.19451   0.52957   0.00000  Uiso   1.00
N367   N     0.57471   0.94377   0.82563   0.00000  Uiso   1.00
N368   N     0.84263   0.29742   0.72775   0.00000  Uiso   1.00
C369   C     0.53973   0.55618   0.20991   0.00000  Uiso   1.00
C370   C     0.54178   0.49944   0.25391   0.00000  Uiso   1.00
C371   C     0.48308   0.45586   0.26196   0.00000  Uiso   1.00
C372   C     0.49613   0.40731   0.30443   0.00000  Uiso   1.00
C373   C     0.48878   0.31990   0.36769   0.00000  Uiso   1.00
C374   C     0.59448   0.53802   0.16679   0.00000  Uiso   1.00
C375   C     0.58010   0.52689   0.10159   0.00000  Uiso   1.00
C376   C     0.63752   0.51082   0.07072   0.00000  Uiso   1.00
C377   C     0.71200   0.48336   0.99872   0.00000  Uiso   1.00
C378   C     0.57035   0.62509   0.25089   0.00000  Uiso   1.00
C379   C     0.53568   0.68718   0.25638   0.00000  Uiso   1.00
C380   C     0.57279   0.74443   0.29630   0.00000  Uiso   1.00
C381   C     0.60980   0.85217   0.35487   0.00000  Uiso   1.00
C382   C     0.66729   0.54745   0.27102   0.00000  Uiso   1.00
C383   C     0.61106   0.49470   0.28711   0.00000  Uiso   1.00
C384   C     0.62421   0.44620   0.32958   0.00000  Uiso   1.00
C385   C     0.56554   0.40256   0.33769   0.00000  Uiso   1.00
C386   C     0.66376   0.53327   0.19998   0.00000  Uiso   1.00
C387   C     0.72122   0.51723   0.16920   0.00000  Uiso   1.00
C388   C     0.70693   0.50607   0.10397   0.00000  Uiso   1.00
C389   C     0.63963   0.62035   0.28408   0.00000  Uiso   1.00
C390   C     0.67681   0.67752   0.32400   0.00000  Uiso   1.00
C391   C     0.64220   0.73968   0.32955   0.00000  Uiso   1.00
H392   H     0.48579   0.55987   0.18406   0.00000  Uiso   1.00
H393   H     0.42947   0.45954   0.23626   0.00000  Uiso   1.00
H394   H     0.52648   0.53057   0.07592   0.00000  Uiso   1.00
H395   H     0.48207   0.69083   0.23069   0.00000  Uiso   1.00
H396   H     0.39759   0.34620   0.30875   0.00000  Uiso   1.00
H397   H     0.60213   0.49598   0.97066   0.00000  Uiso   1.00
H398   H     0.50849   0.83394   0.29702   0.00000  Uiso   1.00
H399   H     0.72123   0.54376   0.29686   0.00000  Uiso   1.00
H400   H     0.67783   0.44254   0.35526   0.00000  Uiso   1.00
H401   H     0.77483   0.51356   0.19491   0.00000  Uiso   1.00
H402   H     0.73042   0.67383   0.34968   0.00000  Uiso   1.00
H403   H     0.59917   0.33240   0.40533   0.00000  Uiso   1.00
H404   H     0.80371   0.48219   0.06724   0.00000  Uiso   1.00
H405   H     0.71006   0.82014   0.39360   0.00000  Uiso   1.00
O406   O     0.46559   0.27300   0.39340   0.00000  Uiso   1.00
O407   O     0.73394   0.46952   0.94984   0.00000  Uiso   1.00
O408   O     0.61107   0.91290   0.37801   0.00000  Uiso   1.00
N409   N     0.45099   0.35685   0.32348   0.00000  Uiso   1.00
N410   N     0.64222   0.49688   0.00738   0.00000  Uiso   1.00
N411   N     0.55467   0.81284   0.31249   0.00000  Uiso   1.00
N412   N     0.55945   0.34943   0.37545   0.00000  Uiso   1.00
N413   N     0.75068   0.48945   0.05935   0.00000  Uiso   1.00
N414   N     0.66314   0.80542   0.36445   0.00000  Uiso   1.00
C415   C     0.62252   0.05120   0.07399   0.00000  Uiso   1.00
C416   C     0.65932   0.98353   0.05940   0.00000  Uiso   1.00
C417   C     0.64017   0.93438   0.00601   0.00000  Uiso   1.00
C418   C     0.68054   0.87595   0.00144   0.00000  Uiso   1.00
C419   C     0.72893   0.77221   0.97163   0.00000  Uiso   1.00
C420   C     0.59897   0.04726   0.13763   0.00000  Uiso   1.00
C421   C     0.52908   0.05170   0.15002   0.00000  Uiso   1.00
C422   C     0.51865   0.04693   0.21132   0.00000  Uiso   1.00
C423   C     0.47335   0.04218   0.30298   0.00000  Uiso   1.00
C424   C     0.68172   0.11160   0.08444   0.00000  Uiso   1.00
C425   C     0.68140   0.17015   0.05211   0.00000  Uiso   1.00
C426   C     0.74062   0.21956   0.06863   0.00000  Uiso   1.00
C427   C     0.82380   0.31471   0.07769   0.00000  Uiso   1.00
C428   C     0.72826   0.03485   0.16081   0.00000  Uiso   1.00
C429   C     0.71676   0.97465   0.10656   0.00000  Uiso   1.00
C430   C     0.75717   0.91628   0.10207   0.00000  Uiso   1.00
C431   C     0.73808   0.86705   0.04868   0.00000  Uiso   1.00
C432   C     0.65640   0.03838   0.18479   0.00000  Uiso   1.00
C433   C     0.64607   0.03360   0.24609   0.00000  Uiso   1.00
C434   C     0.57619   0.03803   0.25856   0.00000  Uiso   1.00
C435   C     0.73915   0.10272   0.13160   0.00000  Uiso   1.00
C436   C     0.79839   0.15205   0.14817   0.00000  Uiso   1.00
C437   C     0.79816   0.21066   0.11587   0.00000  Uiso   1.00
H438   H     0.57780   0.05812   0.03728   0.00000  Uiso   1.00
H439   H     0.59572   0.94127   0.96952   0.00000  Uiso   1.00
H440   H     0.48465   0.05858   0.11352   0.00000  Uiso   1.00
H441   H     0.63694   0.17701   0.01562   0.00000  Uiso   1.00
H442   H     0.64090   0.80779   0.91522   0.00000  Uiso   1.00
H443   H     0.40670   0.05517   0.21884   0.00000  Uiso   1.00
H444   H     0.72784   0.30490   0.01240   0.00000  Uiso   1.00
H445   H     0.77298   0.02793   0.19753   0.00000  Uiso   1.00
H446   H     0.80161   0.90942   0.13857   0.00000  Uiso   1.00
H447   H     0.69053   0.02673   0.28257   0.00000  Uiso   1.00
H448   H     0.84283   0.14516   0.18467   0.00000  Uiso   1.00
H449   H     0.80800   0.78194   0.05243   0.00000  Uiso   1.00
H450   H     0.57380   0.02932   0.35605   0.00000  Uiso   1.00
H451   H     0.89494   0.27905   0.14961   0.00000  Uiso   1.00
O452   O     0.73975   0.71744   0.94216   0.00000  Uiso   1.00
O453   O     0.43249   0.04201   0.34050   0.00000  Uiso   1.00
O454   O     0.85382   0.36964   0.06965   0.00000  Uiso   1.00
N455   N     0.67631   0.81798   0.95560   0.00000  Uiso   1.00
N456   N     0.45734   0.04925   0.23947   0.00000  Uiso   1.00
N457   N     0.75757   0.28274   0.04647   0.00000  Uiso   1.00
N458   N     0.76622   0.80406   0.02943   0.00000  Uiso   1.00
N459   N     0.54726   0.03534   0.31330   0.00000  Uiso   1.00
N460   N     0.84749   0.26883   0.12030   0.00000  Uiso   1.00
C461   C     0.11882   0.98907   0.73545   0.00000  Uiso   1.00
C462   C     0.06403   0.97843   0.77903   0.00000  Uiso   1.00
C463   C     0.01916   0.91754   0.77728   0.00000  Uiso   1.00
C464   C     0.97280   0.91833   0.82116   0.00000  Uiso   1.00
C465   C     0.88790   0.89276   0.88212   0.00000  Uiso   1.00
C466   C     0.09927   0.05477   0.70480   0.00000  Uiso   1.00
C467   C     0.08404   0.05806   0.64064   0.00000  Uiso   1.00
C468   C     0.06735   0.12311   0.62203   0.00000  Uiso   1.00
C469   C     0.03722   0.21607   0.56775   0.00000  Uiso   1.00
C470   C     0.19141   0.00917   0.77805   0.00000  Uiso   1.00
C471   C     0.25367   0.97414   0.77546   0.00000  Uiso   1.00
C472   C     0.31457   0.00081   0.81852   0.00000  Uiso   1.00
C473   C     0.42751   0.02297   0.87796   0.00000  Uiso   1.00
C474   C     0.11628   0.09874   0.81649   0.00000  Uiso   1.00
C475   C     0.06265   0.03800   0.82305   0.00000  Uiso   1.00
C476   C     0.01634   0.03888   0.86695   0.00000  Uiso   1.00
C477   C     0.97141   0.97800   0.86526   0.00000  Uiso   1.00
C478   C     0.09788   0.11434   0.74882   0.00000  Uiso   1.00
C479   C     0.08122   0.17940   0.73031   0.00000  Uiso   1.00
C480   C     0.06596   0.18279   0.66613   0.00000  Uiso   1.00
C481   C     0.19003   0.06874   0.82207   0.00000  Uiso   1.00
C482   C     0.25085   0.09547   0.86513   0.00000  Uiso   1.00
C483   C     0.31318   0.06049   0.86262   0.00000  Uiso   1.00
H484   H     0.11989   0.94270   0.70117   0.00000  Uiso   1.00
H485   H     0.02024   0.87146   0.74320   0.00000  Uiso   1.00
H486   H     0.08512   0.01196   0.60659   0.00000  Uiso   1.00
H487   H     0.25472   0.92804   0.74139   0.00000  Uiso   1.00
H488   H     0.90913   0.81875   0.80920   0.00000  Uiso   1.00
H489   H     0.04594   0.11501   0.52113   0.00000  Uiso   1.00
H490   H     0.40358   0.93806   0.80539   0.00000  Uiso   1.00
H491   H     0.11520   0.14512   0.85076   0.00000  Uiso   1.00
H492   H     0.01529   0.08499   0.90101   0.00000  Uiso   1.00
H493   H     0.08016   0.22549   0.76438   0.00000  Uiso   1.00
H494   H     0.24976   0.14157   0.89919   0.00000  Uiso   1.00
H495   H     0.90510   0.99206   0.93728   0.00000  Uiso   1.00
H496   H     0.04192   0.28832   0.64920   0.00000  Uiso   1.00
H497   H     0.39956   0.11137   0.93347   0.00000  Uiso   1.00
O498   O     0.84145   0.86220   0.90357   0.00000  Uiso   1.00
O499   O     0.02097   0.25089   0.52564   0.00000  Uiso   1.00
O500   O     0.49018   0.01873   0.89859   0.00000  Uiso   1.00
N501   N     0.92190   0.86779   0.83246   0.00000  Uiso   1.00
N502   N     0.04981   0.14477   0.56313   0.00000  Uiso   1.00
N503   N     0.38418   0.97935   0.82888   0.00000  Uiso   1.00
N504   N     0.91974   0.96104   0.90137   0.00000  Uiso   1.00
N505   N     0.04764   0.23803   0.63204   0.00000  Uiso   1.00
N506   N     0.38201   0.07261   0.89780   0.00000  Uiso   1.00
C507   C     0.08232   0.60465   0.09879   0.00000  Uiso   1.00
C508   C     0.06149   0.64167   0.04084   0.00000  Uiso   1.00
C509   C     0.00098   0.62320   0.99497   0.00000  Uiso   1.00
C510   C     0.99151   0.66366   0.94565   0.00000  Uiso   1.00
C511   C     0.95169   0.71247   0.85616   0.00000  Uiso   1.00
C512   C     0.15838   0.58221   0.09618   0.00000  Uiso   1.00
C513   C     0.17933   0.51375   0.09685   0.00000  Uiso   1.00
C514   C     0.25142   0.50416   0.09412   0.00000  Uiso   1.00
C515   C     0.36203   0.46066   0.09059   0.00000  Uiso   1.00
C516   C     0.08931   0.66181   0.15521   0.00000  Uiso   1.00
C517   C     0.05220   0.66027   0.20552   0.00000  Uiso   1.00
C518   C     0.06616   0.71769   0.25250   0.00000  Uiso   1.00
C519   C     0.06952   0.79779   0.34062   0.00000  Uiso   1.00
C520   C     0.17310   0.70935   0.09277   0.00000  Uiso   1.00
C521   C     0.11080   0.69854   0.03757   0.00000  Uiso   1.00
C522   C     0.10142   0.73904   0.98831   0.00000  Uiso   1.00
C523   C     0.04091   0.72063   0.94237   0.00000  Uiso   1.00
C524   C     0.20768   0.63908   0.09291   0.00000  Uiso   1.00
C525   C     0.27976   0.62959   0.09018   0.00000  Uiso   1.00
C526   C     0.30082   0.56113   0.09084   0.00000  Uiso   1.00
C527   C     0.13861   0.71868   0.15194   0.00000  Uiso   1.00
C528   C     0.15263   0.77611   0.19885   0.00000  Uiso   1.00
C529   C     0.11555   0.77466   0.24922   0.00000  Uiso   1.00
H530   H     0.04394   0.56038   0.10134   0.00000  Uiso   1.00
H531   H     0.96284   0.57919   0.99752   0.00000  Uiso   1.00
H532   H     0.14116   0.46975   0.09939   0.00000  Uiso   1.00
H533   H     0.01405   0.61625   0.20804   0.00000  Uiso   1.00
H534   H     0.89469   0.62510   0.88096   0.00000  Uiso   1.00
H535   H     0.27069   0.39436   0.09577   0.00000  Uiso   1.00
H536   H     0.00266   0.70329   0.32489   0.00000  Uiso   1.00
H537   H     0.21149   0.75363   0.09022   0.00000  Uiso   1.00
H538   H     0.13958   0.78304   0.98579   0.00000  Uiso   1.00
H539   H     0.31790   0.67361   0.08766   0.00000  Uiso   1.00
H540   H     0.19079   0.82011   0.19631   0.00000  Uiso   1.00
H541   H     0.03814   0.79056   0.87144   0.00000  Uiso   1.00
H542   H     0.41415   0.55982   0.08626   0.00000  Uiso   1.00
H543   H     0.14611   0.86874   0.31537   0.00000  Uiso   1.00
O544   O     0.91611   0.72368   0.80769   0.00000  Uiso   1.00
O545   O     0.40941   0.42096   0.08953   0.00000  Uiso   1.00
O546   O     0.05775   0.82626   0.39012   0.00000  Uiso   1.00
N547   N     0.93831   0.66002   0.89306   0.00000  Uiso   1.00
N548   N     0.28985   0.44428   0.09389   0.00000  Uiso   1.00
N549   N     0.03927   0.73309   0.30810   0.00000  Uiso   1.00
N550   N     0.01550   0.74905   0.88794   0.00000  Uiso   1.00
N551   N     0.36704   0.53331   0.08876   0.00000  Uiso   1.00
N552   N     0.11646   0.82212   0.30297   0.00000  Uiso   1.00
