data_job_04037
_audit_creation_date              2018-12-19
_audit_creation_method            'Materials Studio'
_symmetry_space_group_name_H-M    'P1'
_symmetry_Int_Tables_number       1
_symmetry_cell_setting            triclinic
loop_
_symmetry_equiv_pos_as_xyz
  x,y,z
_cell_length_a                    27.3793
_cell_length_b                    12.9410
_cell_length_c                    28.1666
_cell_angle_alpha                 90.0000
_cell_angle_beta                  115.6350
_cell_angle_gamma                 90.0000
loop_
_atom_site_label
_atom_site_type_symbol
_atom_site_fract_x
_atom_site_fract_y
_atom_site_fract_z
_atom_site_U_iso_or_equiv
_atom_site_adp_type
_atom_site_occupancy
C1     C     0.87683   0.07557   0.37377   0.00000  Uiso   1.00
C2     C     0.85208   0.00400   0.40050   0.00000  Uiso   1.00
C3     C     0.87621   0.91585   0.42908   0.00000  Uiso   1.00
C4     C     0.84694   0.86082   0.45043   0.00000  Uiso   1.00
C5     C     0.81633   0.74478   0.49298   0.00000  Uiso   1.00
C6     C     0.83623   0.08005   0.31594   0.00000  Uiso   1.00
C7     C     0.84705   0.05586   0.27343   0.00000  Uiso   1.00
C8     C     0.80444   0.06487   0.22360   0.00000  Uiso   1.00
C9     C     0.74925   0.06698   0.13487   0.00000  Uiso   1.00
C10    C     0.87716   0.18313   0.39602   0.00000  Uiso   1.00
C11    C     0.92237   0.24561   0.42082   0.00000  Uiso   1.00
C12    C     0.91421   0.34142   0.43840   0.00000  Uiso   1.00
C13    C     0.92256   0.50356   0.47400   0.00000  Uiso   1.00
C14    C     0.78195   0.13463   0.36086   0.00000  Uiso   1.00
C15    C     0.80054   0.03608   0.39349   0.00000  Uiso   1.00
C16    C     0.77123   0.98118   0.41480   0.00000  Uiso   1.00
C17    C     0.79531   0.89296   0.44341   0.00000  Uiso   1.00
C18    C     0.78470   0.11213   0.30893   0.00000  Uiso   1.00
C19    C     0.74207   0.12119   0.25915   0.00000  Uiso   1.00
C20    C     0.75281   0.09701   0.21657   0.00000  Uiso   1.00
C21    C     0.82562   0.21521   0.38901   0.00000  Uiso   1.00
C22    C     0.81739   0.31094   0.40654   0.00000  Uiso   1.00
C23    C     0.86258   0.37356   0.43137   0.00000  Uiso   1.00
H24    H     0.91695   0.05060   0.37923   0.00000  Uiso   1.00
H25    H     0.91609   0.89104   0.43450   0.00000  Uiso   1.00
H26    H     0.88693   0.03104   0.27887   0.00000  Uiso   1.00
H27    H     0.96224   0.22076   0.42624   0.00000  Uiso   1.00
H28    H     0.89240   0.72827   0.49266   0.00000  Uiso   1.00
H29    H     0.83092   0.02350   0.16452   0.00000  Uiso   1.00
H30    H     0.98973   0.42356   0.47528   0.00000  Uiso   1.00
H31    H     0.74182   0.15961   0.35540   0.00000  Uiso   1.00
H32    H     0.73135   0.00603   0.40936   0.00000  Uiso   1.00
H33    H     0.70219   0.14602   0.25373   0.00000  Uiso   1.00
H34    H     0.77750   0.33574   0.40111   0.00000  Uiso   1.00
H35    H     0.74245   0.82159   0.47226   0.00000  Uiso   1.00
H36    H     0.68098   0.11682   0.14411   0.00000  Uiso   1.00
H37    H     0.83979   0.51688   0.45488   0.00000  Uiso   1.00
O38    O     0.81369   0.67191   0.51838   0.00000  Uiso   1.00
O39    O     0.73304   0.05926   0.08786   0.00000  Uiso   1.00
O40    O     0.94140   0.58413   0.49558   0.00000  Uiso   1.00
N41    N     0.85855   0.77132   0.48047   0.00000  Uiso   1.00
N42    N     0.80107   0.04733   0.17367   0.00000  Uiso   1.00
N43    N     0.94955   0.42136   0.46419   0.00000  Uiso   1.00
N44    N     0.77786   0.82153   0.46949   0.00000  Uiso   1.00
N45    N     0.72039   0.09754   0.16269   0.00000  Uiso   1.00
N46    N     0.86886   0.47158   0.45322   0.00000  Uiso   1.00
C47    C     0.37683   0.57557   0.37377   0.00000  Uiso   1.00
C48    C     0.35208   0.50400   0.40050   0.00000  Uiso   1.00
C49    C     0.37621   0.41585   0.42908   0.00000  Uiso   1.00
C50    C     0.34694   0.36082   0.45043   0.00000  Uiso   1.00
C51    C     0.31633   0.24478   0.49298   0.00000  Uiso   1.00
C52    C     0.33623   0.58005   0.31594   0.00000  Uiso   1.00
C53    C     0.34705   0.55586   0.27343   0.00000  Uiso   1.00
C54    C     0.30444   0.56487   0.22360   0.00000  Uiso   1.00
C55    C     0.24925   0.56698   0.13487   0.00000  Uiso   1.00
C56    C     0.37716   0.68313   0.39602   0.00000  Uiso   1.00
C57    C     0.42237   0.74561   0.42082   0.00000  Uiso   1.00
C58    C     0.41421   0.84142   0.43840   0.00000  Uiso   1.00
C59    C     0.42256   0.00356   0.47400   0.00000  Uiso   1.00
C60    C     0.28195   0.63463   0.36086   0.00000  Uiso   1.00
C61    C     0.30054   0.53608   0.39349   0.00000  Uiso   1.00
C62    C     0.27123   0.48118   0.41480   0.00000  Uiso   1.00
C63    C     0.29531   0.39296   0.44341   0.00000  Uiso   1.00
C64    C     0.28470   0.61213   0.30893   0.00000  Uiso   1.00
C65    C     0.24207   0.62119   0.25915   0.00000  Uiso   1.00
C66    C     0.25281   0.59701   0.21657   0.00000  Uiso   1.00
C67    C     0.32562   0.71521   0.38901   0.00000  Uiso   1.00
C68    C     0.31739   0.81094   0.40654   0.00000  Uiso   1.00
C69    C     0.36258   0.87356   0.43137   0.00000  Uiso   1.00
H70    H     0.41695   0.55060   0.37923   0.00000  Uiso   1.00
H71    H     0.41609   0.39104   0.43450   0.00000  Uiso   1.00
H72    H     0.38693   0.53104   0.27887   0.00000  Uiso   1.00
H73    H     0.46224   0.72076   0.42624   0.00000  Uiso   1.00
H74    H     0.39240   0.22827   0.49266   0.00000  Uiso   1.00
H75    H     0.33092   0.52350   0.16452   0.00000  Uiso   1.00
H76    H     0.48973   0.92356   0.47528   0.00000  Uiso   1.00
H77    H     0.24182   0.65961   0.35540   0.00000  Uiso   1.00
H78    H     0.23135   0.50603   0.40936   0.00000  Uiso   1.00
H79    H     0.20219   0.64602   0.25373   0.00000  Uiso   1.00
H80    H     0.27750   0.83574   0.40111   0.00000  Uiso   1.00
H81    H     0.24245   0.32159   0.47226   0.00000  Uiso   1.00
H82    H     0.18098   0.61682   0.14411   0.00000  Uiso   1.00
H83    H     0.33979   0.01688   0.45488   0.00000  Uiso   1.00
O84    O     0.31369   0.17191   0.51838   0.00000  Uiso   1.00
O85    O     0.23304   0.55926   0.08786   0.00000  Uiso   1.00
O86    O     0.44140   0.08413   0.49558   0.00000  Uiso   1.00
N87    N     0.35855   0.27132   0.48047   0.00000  Uiso   1.00
N88    N     0.30107   0.54733   0.17367   0.00000  Uiso   1.00
N89    N     0.44955   0.92136   0.46419   0.00000  Uiso   1.00
N90    N     0.27786   0.32153   0.46949   0.00000  Uiso   1.00
N91    N     0.22039   0.59754   0.16269   0.00000  Uiso   1.00
N92    N     0.36886   0.97158   0.45322   0.00000  Uiso   1.00
C93    C     0.12317   0.07557   0.12623   0.00000  Uiso   1.00
C94    C     0.14792   0.00400   0.09950   0.00000  Uiso   1.00
C95    C     0.12379   0.91585   0.07092   0.00000  Uiso   1.00
C96    C     0.15306   0.86082   0.04957   0.00000  Uiso   1.00
C97    C     0.18367   0.74478   0.00702   0.00000  Uiso   1.00
C98    C     0.16377   0.08005   0.18406   0.00000  Uiso   1.00
C99    C     0.15295   0.05586   0.22657   0.00000  Uiso   1.00
C100   C     0.19556   0.06487   0.27640   0.00000  Uiso   1.00
C101   C     0.25075   0.06698   0.36513   0.00000  Uiso   1.00
C102   C     0.12284   0.18313   0.10398   0.00000  Uiso   1.00
C103   C     0.07763   0.24561   0.07918   0.00000  Uiso   1.00
C104   C     0.08579   0.34142   0.06160   0.00000  Uiso   1.00
C105   C     0.07744   0.50356   0.02600   0.00000  Uiso   1.00
C106   C     0.21805   0.13463   0.13914   0.00000  Uiso   1.00
C107   C     0.19946   0.03608   0.10651   0.00000  Uiso   1.00
C108   C     0.22877   0.98118   0.08520   0.00000  Uiso   1.00
C109   C     0.20469   0.89296   0.05659   0.00000  Uiso   1.00
C110   C     0.21530   0.11213   0.19107   0.00000  Uiso   1.00
C111   C     0.25793   0.12119   0.24085   0.00000  Uiso   1.00
C112   C     0.24719   0.09701   0.28343   0.00000  Uiso   1.00
C113   C     0.17438   0.21521   0.11099   0.00000  Uiso   1.00
C114   C     0.18261   0.31094   0.09346   0.00000  Uiso   1.00
C115   C     0.13742   0.37356   0.06863   0.00000  Uiso   1.00
H116   H     0.08305   0.05060   0.12077   0.00000  Uiso   1.00
H117   H     0.08391   0.89104   0.06550   0.00000  Uiso   1.00
H118   H     0.11307   0.03104   0.22113   0.00000  Uiso   1.00
H119   H     0.03776   0.22076   0.07376   0.00000  Uiso   1.00
H120   H     0.10760   0.72827   0.00734   0.00000  Uiso   1.00
H121   H     0.16908   0.02350   0.33548   0.00000  Uiso   1.00
H122   H     0.01027   0.42356   0.02472   0.00000  Uiso   1.00
H123   H     0.25818   0.15961   0.14460   0.00000  Uiso   1.00
H124   H     0.26865   0.00603   0.09064   0.00000  Uiso   1.00
H125   H     0.29781   0.14602   0.24627   0.00000  Uiso   1.00
H126   H     0.22250   0.33574   0.09889   0.00000  Uiso   1.00
H127   H     0.25755   0.82159   0.02774   0.00000  Uiso   1.00
H128   H     0.31902   0.11682   0.35589   0.00000  Uiso   1.00
H129   H     0.16021   0.51688   0.04512   0.00000  Uiso   1.00
O130   O     0.18631   0.67191   0.98162   0.00000  Uiso   1.00
O131   O     0.26696   0.05926   0.41214   0.00000  Uiso   1.00
O132   O     0.05860   0.58413   0.00442   0.00000  Uiso   1.00
N133   N     0.14145   0.77132   0.01953   0.00000  Uiso   1.00
N134   N     0.19893   0.04733   0.32633   0.00000  Uiso   1.00
N135   N     0.05045   0.42136   0.03581   0.00000  Uiso   1.00
N136   N     0.22214   0.82153   0.03051   0.00000  Uiso   1.00
N137   N     0.27961   0.09754   0.33731   0.00000  Uiso   1.00
N138   N     0.13114   0.47158   0.04678   0.00000  Uiso   1.00
C139   C     0.62317   0.57557   0.12623   0.00000  Uiso   1.00
C140   C     0.64792   0.50400   0.09950   0.00000  Uiso   1.00
C141   C     0.62379   0.41585   0.07092   0.00000  Uiso   1.00
C142   C     0.65306   0.36082   0.04957   0.00000  Uiso   1.00
C143   C     0.68367   0.24478   0.00702   0.00000  Uiso   1.00
C144   C     0.66377   0.58005   0.18406   0.00000  Uiso   1.00
C145   C     0.65295   0.55586   0.22657   0.00000  Uiso   1.00
C146   C     0.69556   0.56487   0.27640   0.00000  Uiso   1.00
C147   C     0.75075   0.56698   0.36513   0.00000  Uiso   1.00
C148   C     0.62284   0.68313   0.10398   0.00000  Uiso   1.00
C149   C     0.57763   0.74561   0.07918   0.00000  Uiso   1.00
C150   C     0.58579   0.84142   0.06160   0.00000  Uiso   1.00
C151   C     0.57744   0.00356   0.02600   0.00000  Uiso   1.00
C152   C     0.71805   0.63463   0.13914   0.00000  Uiso   1.00
C153   C     0.69946   0.53608   0.10651   0.00000  Uiso   1.00
C154   C     0.72877   0.48118   0.08520   0.00000  Uiso   1.00
C155   C     0.70469   0.39296   0.05659   0.00000  Uiso   1.00
C156   C     0.71530   0.61213   0.19107   0.00000  Uiso   1.00
C157   C     0.75793   0.62119   0.24085   0.00000  Uiso   1.00
C158   C     0.74719   0.59701   0.28343   0.00000  Uiso   1.00
C159   C     0.67438   0.71521   0.11099   0.00000  Uiso   1.00
C160   C     0.68261   0.81094   0.09346   0.00000  Uiso   1.00
C161   C     0.63742   0.87356   0.06863   0.00000  Uiso   1.00
H162   H     0.58305   0.55060   0.12077   0.00000  Uiso   1.00
H163   H     0.58391   0.39104   0.06550   0.00000  Uiso   1.00
H164   H     0.61307   0.53104   0.22113   0.00000  Uiso   1.00
H165   H     0.53776   0.72076   0.07376   0.00000  Uiso   1.00
H166   H     0.60760   0.22827   0.00734   0.00000  Uiso   1.00
H167   H     0.66908   0.52350   0.33548   0.00000  Uiso   1.00
H168   H     0.51027   0.92356   0.02472   0.00000  Uiso   1.00
H169   H     0.75818   0.65961   0.14460   0.00000  Uiso   1.00
H170   H     0.76865   0.50603   0.09064   0.00000  Uiso   1.00
H171   H     0.79781   0.64602   0.24627   0.00000  Uiso   1.00
H172   H     0.72250   0.83574   0.09889   0.00000  Uiso   1.00
H173   H     0.75755   0.32159   0.02774   0.00000  Uiso   1.00
H174   H     0.81902   0.61682   0.35589   0.00000  Uiso   1.00
H175   H     0.66021   0.01688   0.04512   0.00000  Uiso   1.00
O176   O     0.68631   0.17191   0.98162   0.00000  Uiso   1.00
O177   O     0.76696   0.55926   0.41214   0.00000  Uiso   1.00
O178   O     0.55860   0.08413   0.00442   0.00000  Uiso   1.00
N179   N     0.64145   0.27132   0.01953   0.00000  Uiso   1.00
N180   N     0.69893   0.54733   0.32633   0.00000  Uiso   1.00
N181   N     0.55045   0.92136   0.03581   0.00000  Uiso   1.00
N182   N     0.72214   0.32153   0.03051   0.00000  Uiso   1.00
N183   N     0.77961   0.59754   0.33731   0.00000  Uiso   1.00
N184   N     0.63114   0.97158   0.04678   0.00000  Uiso   1.00
C185   C     0.12317   0.92443   0.62623   0.00000  Uiso   1.00
C186   C     0.14792   0.99600   0.59950   0.00000  Uiso   1.00
C187   C     0.12379   0.08415   0.57092   0.00000  Uiso   1.00
C188   C     0.15306   0.13918   0.54957   0.00000  Uiso   1.00
C189   C     0.18367   0.25522   0.50702   0.00000  Uiso   1.00
C190   C     0.16377   0.91995   0.68406   0.00000  Uiso   1.00
C191   C     0.15295   0.94414   0.72657   0.00000  Uiso   1.00
C192   C     0.19556   0.93513   0.77640   0.00000  Uiso   1.00
C193   C     0.25075   0.93302   0.86513   0.00000  Uiso   1.00
C194   C     0.12284   0.81687   0.60398   0.00000  Uiso   1.00
C195   C     0.07763   0.75439   0.57918   0.00000  Uiso   1.00
C196   C     0.08579   0.65858   0.56160   0.00000  Uiso   1.00
C197   C     0.07744   0.49644   0.52600   0.00000  Uiso   1.00
C198   C     0.21805   0.86537   0.63914   0.00000  Uiso   1.00
C199   C     0.19946   0.96392   0.60651   0.00000  Uiso   1.00
C200   C     0.22877   0.01882   0.58520   0.00000  Uiso   1.00
C201   C     0.20469   0.10704   0.55659   0.00000  Uiso   1.00
C202   C     0.21530   0.88787   0.69107   0.00000  Uiso   1.00
C203   C     0.25793   0.87881   0.74085   0.00000  Uiso   1.00
C204   C     0.24719   0.90299   0.78343   0.00000  Uiso   1.00
C205   C     0.17438   0.78479   0.61099   0.00000  Uiso   1.00
C206   C     0.18261   0.68906   0.59346   0.00000  Uiso   1.00
C207   C     0.13742   0.62644   0.56863   0.00000  Uiso   1.00
H208   H     0.08305   0.94940   0.62077   0.00000  Uiso   1.00
H209   H     0.08391   0.10896   0.56550   0.00000  Uiso   1.00
H210   H     0.11307   0.96896   0.72113   0.00000  Uiso   1.00
H211   H     0.03776   0.77924   0.57376   0.00000  Uiso   1.00
H212   H     0.10760   0.27173   0.50734   0.00000  Uiso   1.00
H213   H     0.16908   0.97650   0.83548   0.00000  Uiso   1.00
H214   H     0.01027   0.57644   0.52472   0.00000  Uiso   1.00
H215   H     0.25818   0.84039   0.64460   0.00000  Uiso   1.00
H216   H     0.26865   0.99397   0.59064   0.00000  Uiso   1.00
H217   H     0.29781   0.85398   0.74627   0.00000  Uiso   1.00
H218   H     0.22250   0.66426   0.59889   0.00000  Uiso   1.00
H219   H     0.25755   0.17841   0.52774   0.00000  Uiso   1.00
H220   H     0.31902   0.88318   0.85589   0.00000  Uiso   1.00
H221   H     0.16021   0.48312   0.54512   0.00000  Uiso   1.00
O222   O     0.18631   0.32809   0.48162   0.00000  Uiso   1.00
O223   O     0.26696   0.94074   0.91214   0.00000  Uiso   1.00
O224   O     0.05860   0.41587   0.50442   0.00000  Uiso   1.00
N225   N     0.14145   0.22868   0.51953   0.00000  Uiso   1.00
N226   N     0.19893   0.95267   0.82633   0.00000  Uiso   1.00
N227   N     0.05045   0.57864   0.53581   0.00000  Uiso   1.00
N228   N     0.22214   0.17847   0.53051   0.00000  Uiso   1.00
N229   N     0.27961   0.90246   0.83731   0.00000  Uiso   1.00
N230   N     0.13114   0.52842   0.54678   0.00000  Uiso   1.00
C231   C     0.62317   0.42443   0.62623   0.00000  Uiso   1.00
C232   C     0.64792   0.49600   0.59950   0.00000  Uiso   1.00
C233   C     0.62379   0.58415   0.57092   0.00000  Uiso   1.00
C234   C     0.65306   0.63918   0.54957   0.00000  Uiso   1.00
C235   C     0.68367   0.75522   0.50702   0.00000  Uiso   1.00
C236   C     0.66377   0.41995   0.68406   0.00000  Uiso   1.00
C237   C     0.65295   0.44414   0.72657   0.00000  Uiso   1.00
C238   C     0.69556   0.43513   0.77640   0.00000  Uiso   1.00
C239   C     0.75075   0.43302   0.86513   0.00000  Uiso   1.00
C240   C     0.62284   0.31687   0.60398   0.00000  Uiso   1.00
C241   C     0.57763   0.25439   0.57918   0.00000  Uiso   1.00
C242   C     0.58579   0.15858   0.56160   0.00000  Uiso   1.00
C243   C     0.57744   0.99644   0.52600   0.00000  Uiso   1.00
C244   C     0.71805   0.36537   0.63914   0.00000  Uiso   1.00
C245   C     0.69946   0.46392   0.60651   0.00000  Uiso   1.00
C246   C     0.72877   0.51882   0.58520   0.00000  Uiso   1.00
C247   C     0.70469   0.60704   0.55659   0.00000  Uiso   1.00
C248   C     0.71530   0.38787   0.69107   0.00000  Uiso   1.00
C249   C     0.75793   0.37881   0.74085   0.00000  Uiso   1.00
C250   C     0.74719   0.40299   0.78343   0.00000  Uiso   1.00
C251   C     0.67438   0.28479   0.61099   0.00000  Uiso   1.00
C252   C     0.68261   0.18906   0.59346   0.00000  Uiso   1.00
C253   C     0.63742   0.12644   0.56863   0.00000  Uiso   1.00
H254   H     0.58305   0.44940   0.62077   0.00000  Uiso   1.00
H255   H     0.58391   0.60896   0.56550   0.00000  Uiso   1.00
H256   H     0.61307   0.46896   0.72113   0.00000  Uiso   1.00
H257   H     0.53776   0.27924   0.57376   0.00000  Uiso   1.00
H258   H     0.60760   0.77173   0.50734   0.00000  Uiso   1.00
H259   H     0.66908   0.47650   0.83548   0.00000  Uiso   1.00
H260   H     0.51027   0.07644   0.52472   0.00000  Uiso   1.00
H261   H     0.75818   0.34039   0.64460   0.00000  Uiso   1.00
H262   H     0.76865   0.49397   0.59064   0.00000  Uiso   1.00
H263   H     0.79781   0.35398   0.74627   0.00000  Uiso   1.00
H264   H     0.72250   0.16426   0.59889   0.00000  Uiso   1.00
H265   H     0.75755   0.67841   0.52774   0.00000  Uiso   1.00
H266   H     0.81902   0.38318   0.85589   0.00000  Uiso   1.00
H267   H     0.66021   0.98312   0.54512   0.00000  Uiso   1.00
O268   O     0.68631   0.82809   0.48162   0.00000  Uiso   1.00
O269   O     0.76696   0.44074   0.91214   0.00000  Uiso   1.00
O270   O     0.55860   0.91587   0.50442   0.00000  Uiso   1.00
N271   N     0.64145   0.72868   0.51953   0.00000  Uiso   1.00
N272   N     0.69893   0.45267   0.82633   0.00000  Uiso   1.00
N273   N     0.55045   0.07864   0.53581   0.00000  Uiso   1.00
N274   N     0.72214   0.67847   0.53051   0.00000  Uiso   1.00
N275   N     0.77961   0.40246   0.83731   0.00000  Uiso   1.00
N276   N     0.63114   0.02842   0.54678   0.00000  Uiso   1.00
C277   C     0.87683   0.92443   0.87377   0.00000  Uiso   1.00
C278   C     0.85208   0.99600   0.90050   0.00000  Uiso   1.00
C279   C     0.87621   0.08415   0.92908   0.00000  Uiso   1.00
C280   C     0.84694   0.13918   0.95043   0.00000  Uiso   1.00
C281   C     0.81633   0.25522   0.99298   0.00000  Uiso   1.00
C282   C     0.83623   0.91995   0.81594   0.00000  Uiso   1.00
C283   C     0.84705   0.94414   0.77343   0.00000  Uiso   1.00
C284   C     0.80444   0.93513   0.72360   0.00000  Uiso   1.00
C285   C     0.74925   0.93302   0.63487   0.00000  Uiso   1.00
C286   C     0.87716   0.81687   0.89602   0.00000  Uiso   1.00
C287   C     0.92237   0.75439   0.92082   0.00000  Uiso   1.00
C288   C     0.91421   0.65858   0.93840   0.00000  Uiso   1.00
C289   C     0.92256   0.49644   0.97400   0.00000  Uiso   1.00
C290   C     0.78195   0.86537   0.86086   0.00000  Uiso   1.00
C291   C     0.80054   0.96392   0.89349   0.00000  Uiso   1.00
C292   C     0.77123   0.01882   0.91480   0.00000  Uiso   1.00
C293   C     0.79531   0.10704   0.94341   0.00000  Uiso   1.00
C294   C     0.78470   0.88787   0.80893   0.00000  Uiso   1.00
C295   C     0.74207   0.87881   0.75915   0.00000  Uiso   1.00
C296   C     0.75281   0.90299   0.71657   0.00000  Uiso   1.00
C297   C     0.82562   0.78479   0.88901   0.00000  Uiso   1.00
C298   C     0.81739   0.68906   0.90654   0.00000  Uiso   1.00
C299   C     0.86258   0.62644   0.93137   0.00000  Uiso   1.00
H300   H     0.91695   0.94940   0.87923   0.00000  Uiso   1.00
H301   H     0.91609   0.10896   0.93450   0.00000  Uiso   1.00
H302   H     0.88693   0.96896   0.77887   0.00000  Uiso   1.00
H303   H     0.96224   0.77924   0.92624   0.00000  Uiso   1.00
H304   H     0.89240   0.27173   0.99266   0.00000  Uiso   1.00
H305   H     0.83092   0.97650   0.66452   0.00000  Uiso   1.00
H306   H     0.98973   0.57644   0.97528   0.00000  Uiso   1.00
H307   H     0.74182   0.84039   0.85540   0.00000  Uiso   1.00
H308   H     0.73135   0.99397   0.90936   0.00000  Uiso   1.00
H309   H     0.70219   0.85398   0.75373   0.00000  Uiso   1.00
H310   H     0.77750   0.66426   0.90111   0.00000  Uiso   1.00
H311   H     0.74245   0.17841   0.97226   0.00000  Uiso   1.00
H312   H     0.68098   0.88318   0.64411   0.00000  Uiso   1.00
H313   H     0.83979   0.48312   0.95488   0.00000  Uiso   1.00
O314   O     0.81369   0.32809   0.01838   0.00000  Uiso   1.00
O315   O     0.73304   0.94074   0.58786   0.00000  Uiso   1.00
O316   O     0.94140   0.41587   0.99558   0.00000  Uiso   1.00
N317   N     0.85855   0.22868   0.98047   0.00000  Uiso   1.00
N318   N     0.80107   0.95267   0.67367   0.00000  Uiso   1.00
N319   N     0.94955   0.57864   0.96419   0.00000  Uiso   1.00
N320   N     0.77786   0.17847   0.96949   0.00000  Uiso   1.00
N321   N     0.72039   0.90246   0.66269   0.00000  Uiso   1.00
N322   N     0.86886   0.52842   0.95322   0.00000  Uiso   1.00
C323   C     0.37683   0.42443   0.87377   0.00000  Uiso   1.00
C324   C     0.35208   0.49600   0.90050   0.00000  Uiso   1.00
C325   C     0.37621   0.58415   0.92908   0.00000  Uiso   1.00
C326   C     0.34694   0.63918   0.95043   0.00000  Uiso   1.00
C327   C     0.31633   0.75522   0.99298   0.00000  Uiso   1.00
C328   C     0.33623   0.41995   0.81594   0.00000  Uiso   1.00
C329   C     0.34705   0.44414   0.77343   0.00000  Uiso   1.00
C330   C     0.30444   0.43513   0.72360   0.00000  Uiso   1.00
C331   C     0.24925   0.43302   0.63487   0.00000  Uiso   1.00
C332   C     0.37716   0.31687   0.89602   0.00000  Uiso   1.00
C333   C     0.42237   0.25439   0.92082   0.00000  Uiso   1.00
C334   C     0.41421   0.15858   0.93840   0.00000  Uiso   1.00
C335   C     0.42256   0.99644   0.97400   0.00000  Uiso   1.00
C336   C     0.28195   0.36537   0.86086   0.00000  Uiso   1.00
C337   C     0.30054   0.46392   0.89349   0.00000  Uiso   1.00
C338   C     0.27123   0.51882   0.91480   0.00000  Uiso   1.00
C339   C     0.29531   0.60704   0.94341   0.00000  Uiso   1.00
C340   C     0.28470   0.38787   0.80893   0.00000  Uiso   1.00
C341   C     0.24207   0.37881   0.75915   0.00000  Uiso   1.00
C342   C     0.25281   0.40299   0.71657   0.00000  Uiso   1.00
C343   C     0.32562   0.28479   0.88901   0.00000  Uiso   1.00
C344   C     0.31739   0.18906   0.90654   0.00000  Uiso   1.00
C345   C     0.36258   0.12644   0.93137   0.00000  Uiso   1.00
H346   H     0.41695   0.44940   0.87923   0.00000  Uiso   1.00
H347   H     0.41609   0.60896   0.93450   0.00000  Uiso   1.00
H348   H     0.38693   0.46896   0.77887   0.00000  Uiso   1.00
H349   H     0.46224   0.27924   0.92624   0.00000  Uiso   1.00
H350   H     0.39240   0.77173   0.99266   0.00000  Uiso   1.00
H351   H     0.33092   0.47650   0.66452   0.00000  Uiso   1.00
H352   H     0.48973   0.07644   0.97528   0.00000  Uiso   1.00
H353   H     0.24182   0.34039   0.85540   0.00000  Uiso   1.00
H354   H     0.23135   0.49397   0.90936   0.00000  Uiso   1.00
H355   H     0.20219   0.35398   0.75373   0.00000  Uiso   1.00
H356   H     0.27750   0.16426   0.90111   0.00000  Uiso   1.00
H357   H     0.24245   0.67841   0.97226   0.00000  Uiso   1.00
H358   H     0.18098   0.38318   0.64411   0.00000  Uiso   1.00
H359   H     0.33979   0.98312   0.95488   0.00000  Uiso   1.00
O360   O     0.31369   0.82809   0.01838   0.00000  Uiso   1.00
O361   O     0.23304   0.44074   0.58786   0.00000  Uiso   1.00
O362   O     0.44140   0.91587   0.99558   0.00000  Uiso   1.00
N363   N     0.35855   0.72868   0.98047   0.00000  Uiso   1.00
N364   N     0.30107   0.45267   0.67367   0.00000  Uiso   1.00
N365   N     0.44955   0.07864   0.96419   0.00000  Uiso   1.00
N366   N     0.27786   0.67847   0.96949   0.00000  Uiso   1.00
N367   N     0.22039   0.40246   0.66269   0.00000  Uiso   1.00
N368   N     0.36886   0.02842   0.95322   0.00000  Uiso   1.00
