data_job_01051
_audit_creation_date              2018-12-19
_audit_creation_method            'Materials Studio'
_symmetry_space_group_name_H-M    'P1'
_symmetry_Int_Tables_number       1
_symmetry_cell_setting            triclinic
loop_
_symmetry_equiv_pos_as_xyz
  x,y,z
_cell_length_a                    17.6658
_cell_length_b                    17.6658
_cell_length_c                    12.4441
_cell_angle_alpha                 90.0000
_cell_angle_beta                  90.0000
_cell_angle_gamma                 120.0000
loop_
_atom_site_label
_atom_site_type_symbol
_atom_site_fract_x
_atom_site_fract_y
_atom_site_fract_z
_atom_site_U_iso_or_equiv
_atom_site_adp_type
_atom_site_occupancy
C1     C     0.58832   0.77150   0.51980   0.00000  Uiso   1.00
C2     C     0.49406   0.71357   0.55658   0.00000  Uiso   1.00
C3     C     0.44985   0.62297   0.56180   0.00000  Uiso   1.00
C4     C     0.36392   0.58205   0.59756   0.00000  Uiso   1.00
C5     C     0.22366   0.48479   0.65013   0.00000  Uiso   1.00
C6     C     0.58500   0.82687   0.42790   0.00000  Uiso   1.00
C7     C     0.61727   0.83153   0.32495   0.00000  Uiso   1.00
C8     C     0.60790   0.88600   0.25239   0.00000  Uiso   1.00
C9     C     0.60888   0.96468   0.10521   0.00000  Uiso   1.00
C10    C     0.63519   0.83467   0.61207   0.00000  Uiso   1.00
C11    C     0.70967   0.84592   0.66395   0.00000  Uiso   1.00
C12    C     0.74257   0.90698   0.74643   0.00000  Uiso   1.00
C13    C     0.82147   0.99778   0.88520   0.00000  Uiso   1.00
C14    C     0.51432   0.85994   0.57401   0.00000  Uiso   1.00
C15    C     0.45387   0.76161   0.58602   0.00000  Uiso   1.00
C16    C     0.36798   0.72082   0.62178   0.00000  Uiso   1.00
C17    C     0.32366   0.63017   0.62706   0.00000  Uiso   1.00
C18    C     0.54481   0.87490   0.45734   0.00000  Uiso   1.00
C19    C     0.53539   0.92938   0.38492   0.00000  Uiso   1.00
C20    C     0.56763   0.93413   0.28189   0.00000  Uiso   1.00
C21    C     0.59499   0.88271   0.64152   0.00000  Uiso   1.00
C22    C     0.62779   0.94377   0.72393   0.00000  Uiso   1.00
C23    C     0.70230   0.95510   0.77593   0.00000  Uiso   1.00
H24    H     0.61961   0.73410   0.49687   0.00000  Uiso   1.00
H25    H     0.48098   0.58581   0.53900   0.00000  Uiso   1.00
H26    H     0.64837   0.79435   0.30219   0.00000  Uiso   1.00
H27    H     0.74075   0.80873   0.64114   0.00000  Uiso   1.00
H28    H     0.30954   0.44259   0.59865   0.00000  Uiso   1.00
H29    H     0.66253   0.88233   0.09933   0.00000  Uiso   1.00
H30    H     0.85734   0.91266   0.81407   0.00000  Uiso   1.00
H31    H     0.48303   0.89735   0.59693   0.00000  Uiso   1.00
H32    H     0.33690   0.75801   0.64456   0.00000  Uiso   1.00
H33    H     0.50429   0.96655   0.40774   0.00000  Uiso   1.00
H34    H     0.59667   0.98093   0.74669   0.00000  Uiso   1.00
H35    H     0.19260   0.58235   0.68432   0.00000  Uiso   1.00
H36    H     0.54559   0.02210   0.18500   0.00000  Uiso   1.00
H37    H     0.74039   0.05242   0.89974   0.00000  Uiso   1.00
O38    O     0.15739   0.41787   0.67097   0.00000  Uiso   1.00
O39    O     0.62051   0.99480   0.01589   0.00000  Uiso   1.00
O40    O     0.87609   0.03459   0.95362   0.00000  Uiso   1.00
N41    N     0.30208   0.49461   0.61230   0.00000  Uiso   1.00
N42    N     0.63209   0.90573   0.14546   0.00000  Uiso   1.00
N43    N     0.81423   0.93410   0.81366   0.00000  Uiso   1.00
N44    N     0.23915   0.56981   0.65840   0.00000  Uiso   1.00
N45    N     0.56916   0.98093   0.19156   0.00000  Uiso   1.00
N46    N     0.75130   0.00930   0.85976   0.00000  Uiso   1.00
C47    C     0.22850   0.81682   0.85314   0.00000  Uiso   1.00
C48    C     0.28643   0.78049   0.88991   0.00000  Uiso   1.00
C49    C     0.37703   0.82689   0.89514   0.00000  Uiso   1.00
C50    C     0.41795   0.78187   0.93089   0.00000  Uiso   1.00
C51    C     0.51521   0.73887   0.98346   0.00000  Uiso   1.00
C52    C     0.17313   0.75813   0.76124   0.00000  Uiso   1.00
C53    C     0.16847   0.78573   0.65828   0.00000  Uiso   1.00
C54    C     0.11400   0.72190   0.58572   0.00000  Uiso   1.00
C55    C     0.03532   0.64419   0.43855   0.00000  Uiso   1.00
C56    C     0.16533   0.80052   0.94540   0.00000  Uiso   1.00
C57    C     0.15408   0.86375   0.99728   0.00000  Uiso   1.00
C58    C     0.09302   0.83559   0.07976   0.00000  Uiso   1.00
C59    C     0.00222   0.82369   0.21853   0.00000  Uiso   1.00
C60    C     0.14006   0.65438   0.90735   0.00000  Uiso   1.00
C61    C     0.23839   0.69226   0.91935   0.00000  Uiso   1.00
C62    C     0.27918   0.64716   0.95511   0.00000  Uiso   1.00
C63    C     0.36983   0.69348   0.96039   0.00000  Uiso   1.00
C64    C     0.12510   0.66990   0.79068   0.00000  Uiso   1.00
C65    C     0.07062   0.60601   0.71826   0.00000  Uiso   1.00
C66    C     0.06587   0.63351   0.61522   0.00000  Uiso   1.00
C67    C     0.11729   0.71228   0.97485   0.00000  Uiso   1.00
C68    C     0.05623   0.68402   0.05726   0.00000  Uiso   1.00
C69    C     0.04490   0.74720   0.10926   0.00000  Uiso   1.00
H70    H     0.26590   0.88551   0.83021   0.00000  Uiso   1.00
H71    H     0.41419   0.89517   0.87233   0.00000  Uiso   1.00
H72    H     0.20565   0.85402   0.63552   0.00000  Uiso   1.00
H73    H     0.19127   0.93202   0.97447   0.00000  Uiso   1.00
H74    H     0.55741   0.86695   0.93199   0.00000  Uiso   1.00
H75    H     0.11767   0.78019   0.43267   0.00000  Uiso   1.00
H76    H     0.08734   0.94468   0.14741   0.00000  Uiso   1.00
H77    H     0.10265   0.58568   0.93027   0.00000  Uiso   1.00
H78    H     0.24199   0.57888   0.97789   0.00000  Uiso   1.00
H79    H     0.03345   0.53774   0.74107   0.00000  Uiso   1.00
H80    H     0.01907   0.61574   0.08002   0.00000  Uiso   1.00
H81    H     0.41765   0.61024   0.01765   0.00000  Uiso   1.00
H82    H     0.97790   0.52349   0.51833   0.00000  Uiso   1.00
H83    H     0.94758   0.68797   0.23308   0.00000  Uiso   1.00
O84    O     0.58213   0.73953   0.00431   0.00000  Uiso   1.00
O85    O     0.00520   0.62571   0.34923   0.00000  Uiso   1.00
O86    O     0.96541   0.84151   0.28695   0.00000  Uiso   1.00
N87    N     0.50539   0.80747   0.94563   0.00000  Uiso   1.00
N88    N     0.09427   0.72636   0.47879   0.00000  Uiso   1.00
N89    N     0.06590   0.88013   0.14700   0.00000  Uiso   1.00
N90    N     0.43019   0.66934   0.99173   0.00000  Uiso   1.00
N91    N     0.01907   0.58823   0.52489   0.00000  Uiso   1.00
N92    N     0.99070   0.74200   0.19310   0.00000  Uiso   1.00
C93    C     0.18318   0.41168   0.18647   0.00000  Uiso   1.00
C94    C     0.21951   0.50594   0.22324   0.00000  Uiso   1.00
C95    C     0.17311   0.55015   0.22847   0.00000  Uiso   1.00
C96    C     0.21813   0.63608   0.26422   0.00000  Uiso   1.00
C97    C     0.26113   0.77634   0.31679   0.00000  Uiso   1.00
C98    C     0.24187   0.41500   0.09457   0.00000  Uiso   1.00
C99    C     0.21427   0.38273   0.99161   0.00000  Uiso   1.00
C100   C     0.27810   0.39210   0.91906   0.00000  Uiso   1.00
C101   C     0.35581   0.39112   0.77188   0.00000  Uiso   1.00
C102   C     0.19948   0.36481   0.27873   0.00000  Uiso   1.00
C103   C     0.13625   0.29033   0.33061   0.00000  Uiso   1.00
C104   C     0.16441   0.25743   0.41310   0.00000  Uiso   1.00
C105   C     0.17631   0.17853   0.55187   0.00000  Uiso   1.00
C106   C     0.34562   0.48568   0.24068   0.00000  Uiso   1.00
C107   C     0.30774   0.54613   0.25268   0.00000  Uiso   1.00
C108   C     0.35284   0.63202   0.28845   0.00000  Uiso   1.00
C109   C     0.30652   0.67634   0.29373   0.00000  Uiso   1.00
C110   C     0.33010   0.45519   0.12401   0.00000  Uiso   1.00
C111   C     0.39399   0.46461   0.05159   0.00000  Uiso   1.00
C112   C     0.36649   0.43237   0.94855   0.00000  Uiso   1.00
C113   C     0.28772   0.40501   0.30818   0.00000  Uiso   1.00
C114   C     0.31598   0.37221   0.39059   0.00000  Uiso   1.00
C115   C     0.25280   0.29770   0.44259   0.00000  Uiso   1.00
H116   H     0.11449   0.38039   0.16354   0.00000  Uiso   1.00
H117   H     0.10483   0.51902   0.20567   0.00000  Uiso   1.00
H118   H     0.14598   0.35163   0.96886   0.00000  Uiso   1.00
H119   H     0.06798   0.25925   0.30781   0.00000  Uiso   1.00
H120   H     0.13305   0.69046   0.26532   0.00000  Uiso   1.00
H121   H     0.21981   0.33747   0.76600   0.00000  Uiso   1.00
H122   H     0.05532   0.14266   0.48074   0.00000  Uiso   1.00
H123   H     0.41432   0.51697   0.26360   0.00000  Uiso   1.00
H124   H     0.42112   0.66310   0.31122   0.00000  Uiso   1.00
H125   H     0.46226   0.49571   0.07441   0.00000  Uiso   1.00
H126   H     0.38426   0.40333   0.41336   0.00000  Uiso   1.00
H127   H     0.38976   0.80740   0.35099   0.00000  Uiso   1.00
H128   H     0.47651   0.45441   0.85166   0.00000  Uiso   1.00
H129   H     0.31203   0.25961   0.56641   0.00000  Uiso   1.00
O130   O     0.26047   0.84261   0.33764   0.00000  Uiso   1.00
O131   O     0.37429   0.37949   0.68256   0.00000  Uiso   1.00
O132   O     0.15849   0.12391   0.62028   0.00000  Uiso   1.00
N133   N     0.19253   0.69792   0.27897   0.00000  Uiso   1.00
N134   N     0.27364   0.36791   0.81213   0.00000  Uiso   1.00
N135   N     0.11987   0.18577   0.48033   0.00000  Uiso   1.00
N136   N     0.33066   0.76085   0.32507   0.00000  Uiso   1.00
N137   N     0.41177   0.43084   0.85822   0.00000  Uiso   1.00
N138   N     0.25800   0.24870   0.52643   0.00000  Uiso   1.00
C139   C     0.41168   0.22850   0.01980   0.00000  Uiso   1.00
C140   C     0.50594   0.28643   0.05658   0.00000  Uiso   1.00
C141   C     0.55015   0.37703   0.06180   0.00000  Uiso   1.00
C142   C     0.63608   0.41795   0.09756   0.00000  Uiso   1.00
C143   C     0.77634   0.51521   0.15013   0.00000  Uiso   1.00
C144   C     0.41500   0.17313   0.92790   0.00000  Uiso   1.00
C145   C     0.38273   0.16847   0.82495   0.00000  Uiso   1.00
C146   C     0.39210   0.11400   0.75239   0.00000  Uiso   1.00
C147   C     0.39112   0.03532   0.60521   0.00000  Uiso   1.00
C148   C     0.36481   0.16533   0.11207   0.00000  Uiso   1.00
C149   C     0.29033   0.15408   0.16395   0.00000  Uiso   1.00
C150   C     0.25743   0.09302   0.24643   0.00000  Uiso   1.00
C151   C     0.17853   0.00222   0.38520   0.00000  Uiso   1.00
C152   C     0.48568   0.14006   0.07401   0.00000  Uiso   1.00
C153   C     0.54613   0.23839   0.08602   0.00000  Uiso   1.00
C154   C     0.63202   0.27918   0.12178   0.00000  Uiso   1.00
C155   C     0.67634   0.36983   0.12706   0.00000  Uiso   1.00
C156   C     0.45519   0.12510   0.95734   0.00000  Uiso   1.00
C157   C     0.46461   0.07062   0.88492   0.00000  Uiso   1.00
C158   C     0.43237   0.06587   0.78189   0.00000  Uiso   1.00
C159   C     0.40501   0.11729   0.14152   0.00000  Uiso   1.00
C160   C     0.37221   0.05623   0.22393   0.00000  Uiso   1.00
C161   C     0.29770   0.04490   0.27593   0.00000  Uiso   1.00
H162   H     0.38039   0.26590   0.99687   0.00000  Uiso   1.00
H163   H     0.51902   0.41419   0.03900   0.00000  Uiso   1.00
H164   H     0.35163   0.20565   0.80219   0.00000  Uiso   1.00
H165   H     0.25925   0.19127   0.14114   0.00000  Uiso   1.00
H166   H     0.69046   0.55741   0.09865   0.00000  Uiso   1.00
H167   H     0.33747   0.11767   0.59933   0.00000  Uiso   1.00
H168   H     0.14266   0.08734   0.31407   0.00000  Uiso   1.00
H169   H     0.51697   0.10265   0.09693   0.00000  Uiso   1.00
H170   H     0.66310   0.24199   0.14456   0.00000  Uiso   1.00
H171   H     0.49571   0.03345   0.90774   0.00000  Uiso   1.00
H172   H     0.40333   0.01907   0.24669   0.00000  Uiso   1.00
H173   H     0.80740   0.41765   0.18432   0.00000  Uiso   1.00
H174   H     0.45441   0.97790   0.68500   0.00000  Uiso   1.00
H175   H     0.25961   0.94758   0.39974   0.00000  Uiso   1.00
O176   O     0.84261   0.58213   0.17097   0.00000  Uiso   1.00
O177   O     0.37949   0.00520   0.51589   0.00000  Uiso   1.00
O178   O     0.12391   0.96541   0.45362   0.00000  Uiso   1.00
N179   N     0.69792   0.50539   0.11230   0.00000  Uiso   1.00
N180   N     0.36791   0.09427   0.64546   0.00000  Uiso   1.00
N181   N     0.18577   0.06590   0.31366   0.00000  Uiso   1.00
N182   N     0.76085   0.43019   0.15840   0.00000  Uiso   1.00
N183   N     0.43084   0.01907   0.69156   0.00000  Uiso   1.00
N184   N     0.24870   0.99070   0.35976   0.00000  Uiso   1.00
C185   C     0.77150   0.18318   0.35314   0.00000  Uiso   1.00
C186   C     0.71357   0.21951   0.38991   0.00000  Uiso   1.00
C187   C     0.62297   0.17311   0.39514   0.00000  Uiso   1.00
C188   C     0.58205   0.21813   0.43089   0.00000  Uiso   1.00
C189   C     0.48479   0.26113   0.48346   0.00000  Uiso   1.00
C190   C     0.82687   0.24187   0.26124   0.00000  Uiso   1.00
C191   C     0.83153   0.21427   0.15828   0.00000  Uiso   1.00
C192   C     0.88600   0.27810   0.08572   0.00000  Uiso   1.00
C193   C     0.96468   0.35581   0.93855   0.00000  Uiso   1.00
C194   C     0.83467   0.19948   0.44540   0.00000  Uiso   1.00
C195   C     0.84592   0.13625   0.49728   0.00000  Uiso   1.00
C196   C     0.90698   0.16441   0.57976   0.00000  Uiso   1.00
C197   C     0.99778   0.17631   0.71853   0.00000  Uiso   1.00
C198   C     0.85994   0.34562   0.40735   0.00000  Uiso   1.00
C199   C     0.76161   0.30774   0.41935   0.00000  Uiso   1.00
C200   C     0.72082   0.35284   0.45511   0.00000  Uiso   1.00
C201   C     0.63017   0.30652   0.46039   0.00000  Uiso   1.00
C202   C     0.87490   0.33010   0.29068   0.00000  Uiso   1.00
C203   C     0.92938   0.39399   0.21826   0.00000  Uiso   1.00
C204   C     0.93413   0.36649   0.11522   0.00000  Uiso   1.00
C205   C     0.88271   0.28772   0.47485   0.00000  Uiso   1.00
C206   C     0.94377   0.31598   0.55726   0.00000  Uiso   1.00
C207   C     0.95510   0.25280   0.60926   0.00000  Uiso   1.00
H208   H     0.73410   0.11449   0.33021   0.00000  Uiso   1.00
H209   H     0.58581   0.10483   0.37233   0.00000  Uiso   1.00
H210   H     0.79435   0.14598   0.13552   0.00000  Uiso   1.00
H211   H     0.80873   0.06798   0.47447   0.00000  Uiso   1.00
H212   H     0.44259   0.13305   0.43199   0.00000  Uiso   1.00
H213   H     0.88233   0.21981   0.93267   0.00000  Uiso   1.00
H214   H     0.91266   0.05532   0.64741   0.00000  Uiso   1.00
H215   H     0.89735   0.41432   0.43027   0.00000  Uiso   1.00
H216   H     0.75801   0.42112   0.47789   0.00000  Uiso   1.00
H217   H     0.96655   0.46226   0.24107   0.00000  Uiso   1.00
H218   H     0.98093   0.38426   0.58002   0.00000  Uiso   1.00
H219   H     0.58235   0.38976   0.51765   0.00000  Uiso   1.00
H220   H     0.02210   0.47651   0.01833   0.00000  Uiso   1.00
H221   H     0.05242   0.31203   0.73308   0.00000  Uiso   1.00
O222   O     0.41787   0.26047   0.50431   0.00000  Uiso   1.00
O223   O     0.99480   0.37429   0.84923   0.00000  Uiso   1.00
O224   O     0.03459   0.15849   0.78695   0.00000  Uiso   1.00
N225   N     0.49461   0.19253   0.44563   0.00000  Uiso   1.00
N226   N     0.90573   0.27364   0.97879   0.00000  Uiso   1.00
N227   N     0.93410   0.11987   0.64700   0.00000  Uiso   1.00
N228   N     0.56981   0.33066   0.49173   0.00000  Uiso   1.00
N229   N     0.98093   0.41177   0.02489   0.00000  Uiso   1.00
N230   N     0.00930   0.25800   0.69310   0.00000  Uiso   1.00
C231   C     0.81682   0.58832   0.68647   0.00000  Uiso   1.00
C232   C     0.78049   0.49406   0.72324   0.00000  Uiso   1.00
C233   C     0.82689   0.44985   0.72847   0.00000  Uiso   1.00
C234   C     0.78187   0.36392   0.76422   0.00000  Uiso   1.00
C235   C     0.73887   0.22366   0.81679   0.00000  Uiso   1.00
C236   C     0.75813   0.58500   0.59457   0.00000  Uiso   1.00
C237   C     0.78573   0.61727   0.49161   0.00000  Uiso   1.00
C238   C     0.72190   0.60790   0.41906   0.00000  Uiso   1.00
C239   C     0.64419   0.60888   0.27188   0.00000  Uiso   1.00
C240   C     0.80052   0.63519   0.77873   0.00000  Uiso   1.00
C241   C     0.86375   0.70967   0.83061   0.00000  Uiso   1.00
C242   C     0.83559   0.74257   0.91310   0.00000  Uiso   1.00
C243   C     0.82369   0.82147   0.05187   0.00000  Uiso   1.00
C244   C     0.65438   0.51432   0.74068   0.00000  Uiso   1.00
C245   C     0.69226   0.45387   0.75268   0.00000  Uiso   1.00
C246   C     0.64716   0.36798   0.78845   0.00000  Uiso   1.00
C247   C     0.69348   0.32366   0.79373   0.00000  Uiso   1.00
C248   C     0.66990   0.54481   0.62401   0.00000  Uiso   1.00
C249   C     0.60601   0.53539   0.55159   0.00000  Uiso   1.00
C250   C     0.63351   0.56763   0.44855   0.00000  Uiso   1.00
C251   C     0.71228   0.59499   0.80818   0.00000  Uiso   1.00
C252   C     0.68402   0.62779   0.89059   0.00000  Uiso   1.00
C253   C     0.74720   0.70230   0.94259   0.00000  Uiso   1.00
H254   H     0.88551   0.61961   0.66354   0.00000  Uiso   1.00
H255   H     0.89517   0.48098   0.70567   0.00000  Uiso   1.00
H256   H     0.85402   0.64837   0.46886   0.00000  Uiso   1.00
H257   H     0.93202   0.74075   0.80781   0.00000  Uiso   1.00
H258   H     0.86695   0.30954   0.76532   0.00000  Uiso   1.00
H259   H     0.78019   0.66253   0.26600   0.00000  Uiso   1.00
H260   H     0.94468   0.85734   0.98074   0.00000  Uiso   1.00
H261   H     0.58568   0.48303   0.76360   0.00000  Uiso   1.00
H262   H     0.57888   0.33690   0.81122   0.00000  Uiso   1.00
H263   H     0.53774   0.50429   0.57441   0.00000  Uiso   1.00
H264   H     0.61574   0.59667   0.91336   0.00000  Uiso   1.00
H265   H     0.61024   0.19260   0.85099   0.00000  Uiso   1.00
H266   H     0.52349   0.54559   0.35166   0.00000  Uiso   1.00
H267   H     0.68797   0.74039   0.06641   0.00000  Uiso   1.00
O268   O     0.73953   0.15739   0.83764   0.00000  Uiso   1.00
O269   O     0.62571   0.62051   0.18256   0.00000  Uiso   1.00
O270   O     0.84151   0.87609   0.12028   0.00000  Uiso   1.00
N271   N     0.80747   0.30208   0.77897   0.00000  Uiso   1.00
N272   N     0.72636   0.63209   0.31213   0.00000  Uiso   1.00
N273   N     0.88013   0.81423   0.98033   0.00000  Uiso   1.00
N274   N     0.66934   0.23915   0.82507   0.00000  Uiso   1.00
N275   N     0.58823   0.56916   0.35822   0.00000  Uiso   1.00
N276   N     0.74200   0.75130   0.02643   0.00000  Uiso   1.00
