data_job_05726
_audit_creation_date              2018-12-19
_audit_creation_method            'Materials Studio'
_symmetry_space_group_name_H-M    'P1'
_symmetry_Int_Tables_number       1
_symmetry_cell_setting            triclinic
loop_
_symmetry_equiv_pos_as_xyz
  x,y,z
_cell_length_a                    25.6872
_cell_length_b                    25.6872
_cell_length_c                    9.7387
_cell_angle_alpha                 90.0000
_cell_angle_beta                  90.0000
_cell_angle_gamma                 90.0000
loop_
_atom_site_label
_atom_site_type_symbol
_atom_site_fract_x
_atom_site_fract_y
_atom_site_fract_z
_atom_site_U_iso_or_equiv
_atom_site_adp_type
_atom_site_occupancy
C1     C     0.62376   0.34016   0.60926   0.00000  Uiso   1.00
C2     C     0.60849   0.37351   0.48614   0.00000  Uiso   1.00
C3     C     0.60813   0.42751   0.48238   0.00000  Uiso   1.00
C4     C     0.59292   0.45072   0.36003   0.00000  Uiso   1.00
C5     C     0.57136   0.50703   0.18628   0.00000  Uiso   1.00
C6     C     0.57731   0.30480   0.63773   0.00000  Uiso   1.00
C7     C     0.55074   0.30103   0.76142   0.00000  Uiso   1.00
C8     C     0.50929   0.26640   0.76668   0.00000  Uiso   1.00
C9     C     0.43935   0.21602   0.82830   0.00000  Uiso   1.00
C10    C     0.66741   0.30460   0.55961   0.00000  Uiso   1.00
C11    C     0.71659   0.30065   0.61764   0.00000  Uiso   1.00
C12    C     0.75100   0.26583   0.55715   0.00000  Uiso   1.00
C13    C     0.82095   0.21513   0.49748   0.00000  Uiso   1.00
C14    C     0.59739   0.28534   0.39867   0.00000  Uiso   1.00
C15    C     0.59416   0.34373   0.37176   0.00000  Uiso   1.00
C16    C     0.57895   0.36686   0.24939   0.00000  Uiso   1.00
C17    C     0.57857   0.42089   0.24544   0.00000  Uiso   1.00
C18    C     0.56298   0.27502   0.52335   0.00000  Uiso   1.00
C19    C     0.52157   0.24038   0.52843   0.00000  Uiso   1.00
C20    C     0.49494   0.23657   0.65210   0.00000  Uiso   1.00
C21    C     0.65309   0.27482   0.44522   0.00000  Uiso   1.00
C22    C     0.68742   0.24000   0.38464   0.00000  Uiso   1.00
C23    C     0.73665   0.23600   0.44256   0.00000  Uiso   1.00
H24    H     0.63491   0.36334   0.69832   0.00000  Uiso   1.00
H25    H     0.61921   0.45054   0.57092   0.00000  Uiso   1.00
H26    H     0.56184   0.32408   0.84992   0.00000  Uiso   1.00
H27    H     0.72766   0.32369   0.70615   0.00000  Uiso   1.00
H28    H     0.59547   0.53409   0.37925   0.00000  Uiso   1.00
H29    H     0.47451   0.26743   0.96756   0.00000  Uiso   1.00
H30    H     0.82419   0.26662   0.66440   0.00000  Uiso   1.00
H31    H     0.58624   0.26215   0.30962   0.00000  Uiso   1.00
H32    H     0.56787   0.34381   0.16089   0.00000  Uiso   1.00
H33    H     0.51050   0.21735   0.43990   0.00000  Uiso   1.00
H34    H     0.67632   0.21696   0.29613   0.00000  Uiso   1.00
H35    H     0.55380   0.44746   0.04646   0.00000  Uiso   1.00
H36    H     0.43284   0.18080   0.63477   0.00000  Uiso   1.00
H37    H     0.78251   0.17999   0.33161   0.00000  Uiso   1.00
O38    O     0.56342   0.54632   0.12205   0.00000  Uiso   1.00
O39    O     0.40473   0.19646   0.89389   0.00000  Uiso   1.00
O40    O     0.86349   0.19540   0.49615   0.00000  Uiso   1.00
N41    N     0.58820   0.50250   0.32133   0.00000  Uiso   1.00
N42    N     0.47510   0.25319   0.87136   0.00000  Uiso   1.00
N43    N     0.80201   0.25242   0.58795   0.00000  Uiso   1.00
N44    N     0.56577   0.45588   0.14226   0.00000  Uiso   1.00
N45    N     0.45268   0.20658   0.69228   0.00000  Uiso   1.00
N46    N     0.77959   0.20581   0.40888   0.00000  Uiso   1.00
C47    C     0.37624   0.65984   0.60926   0.00000  Uiso   1.00
C48    C     0.39151   0.62649   0.48614   0.00000  Uiso   1.00
C49    C     0.39187   0.57249   0.48238   0.00000  Uiso   1.00
C50    C     0.40708   0.54928   0.36003   0.00000  Uiso   1.00
C51    C     0.42864   0.49297   0.18628   0.00000  Uiso   1.00
C52    C     0.42269   0.69520   0.63773   0.00000  Uiso   1.00
C53    C     0.44926   0.69897   0.76142   0.00000  Uiso   1.00
C54    C     0.49071   0.73360   0.76668   0.00000  Uiso   1.00
C55    C     0.56065   0.78398   0.82830   0.00000  Uiso   1.00
C56    C     0.33259   0.69540   0.55961   0.00000  Uiso   1.00
C57    C     0.28341   0.69935   0.61764   0.00000  Uiso   1.00
C58    C     0.24900   0.73417   0.55715   0.00000  Uiso   1.00
C59    C     0.17905   0.78487   0.49748   0.00000  Uiso   1.00
C60    C     0.40261   0.71466   0.39867   0.00000  Uiso   1.00
C61    C     0.40584   0.65627   0.37176   0.00000  Uiso   1.00
C62    C     0.42105   0.63314   0.24939   0.00000  Uiso   1.00
C63    C     0.42143   0.57911   0.24544   0.00000  Uiso   1.00
C64    C     0.43702   0.72498   0.52335   0.00000  Uiso   1.00
C65    C     0.47843   0.75962   0.52843   0.00000  Uiso   1.00
C66    C     0.50506   0.76343   0.65210   0.00000  Uiso   1.00
C67    C     0.34691   0.72518   0.44522   0.00000  Uiso   1.00
C68    C     0.31258   0.76000   0.38464   0.00000  Uiso   1.00
C69    C     0.26335   0.76400   0.44256   0.00000  Uiso   1.00
H70    H     0.36509   0.63666   0.69832   0.00000  Uiso   1.00
H71    H     0.38079   0.54946   0.57092   0.00000  Uiso   1.00
H72    H     0.43816   0.67592   0.84992   0.00000  Uiso   1.00
H73    H     0.27234   0.67631   0.70615   0.00000  Uiso   1.00
H74    H     0.40453   0.46591   0.37925   0.00000  Uiso   1.00
H75    H     0.52549   0.73257   0.96756   0.00000  Uiso   1.00
H76    H     0.17581   0.73338   0.66440   0.00000  Uiso   1.00
H77    H     0.41376   0.73785   0.30962   0.00000  Uiso   1.00
H78    H     0.43213   0.65619   0.16089   0.00000  Uiso   1.00
H79    H     0.48950   0.78265   0.43990   0.00000  Uiso   1.00
H80    H     0.32368   0.78304   0.29613   0.00000  Uiso   1.00
H81    H     0.44620   0.55254   0.04646   0.00000  Uiso   1.00
H82    H     0.56716   0.81920   0.63477   0.00000  Uiso   1.00
H83    H     0.21749   0.82001   0.33161   0.00000  Uiso   1.00
O84    O     0.43658   0.45368   0.12205   0.00000  Uiso   1.00
O85    O     0.59527   0.80354   0.89389   0.00000  Uiso   1.00
O86    O     0.13651   0.80460   0.49615   0.00000  Uiso   1.00
N87    N     0.41180   0.49750   0.32133   0.00000  Uiso   1.00
N88    N     0.52490   0.74681   0.87136   0.00000  Uiso   1.00
N89    N     0.19799   0.74758   0.58795   0.00000  Uiso   1.00
N90    N     0.43423   0.54412   0.14226   0.00000  Uiso   1.00
N91    N     0.54732   0.79342   0.69228   0.00000  Uiso   1.00
N92    N     0.22041   0.79419   0.40888   0.00000  Uiso   1.00
C93    C     0.15984   0.12376   0.10926   0.00000  Uiso   1.00
C94    C     0.12649   0.10849   0.98614   0.00000  Uiso   1.00
C95    C     0.07249   0.10813   0.98238   0.00000  Uiso   1.00
C96    C     0.04928   0.09292   0.86003   0.00000  Uiso   1.00
C97    C     0.99297   0.07136   0.68628   0.00000  Uiso   1.00
C98    C     0.19520   0.07731   0.13773   0.00000  Uiso   1.00
C99    C     0.19897   0.05074   0.26142   0.00000  Uiso   1.00
C100   C     0.23360   0.00929   0.26668   0.00000  Uiso   1.00
C101   C     0.28398   0.93935   0.32830   0.00000  Uiso   1.00
C102   C     0.19540   0.16741   0.05961   0.00000  Uiso   1.00
C103   C     0.19935   0.21659   0.11764   0.00000  Uiso   1.00
C104   C     0.23417   0.25100   0.05715   0.00000  Uiso   1.00
C105   C     0.28487   0.32095   0.99748   0.00000  Uiso   1.00
C106   C     0.21466   0.09739   0.89867   0.00000  Uiso   1.00
C107   C     0.15627   0.09416   0.87176   0.00000  Uiso   1.00
C108   C     0.13314   0.07895   0.74939   0.00000  Uiso   1.00
C109   C     0.07911   0.07857   0.74544   0.00000  Uiso   1.00
C110   C     0.22498   0.06298   0.02335   0.00000  Uiso   1.00
C111   C     0.25962   0.02157   0.02843   0.00000  Uiso   1.00
C112   C     0.26343   0.99494   0.15210   0.00000  Uiso   1.00
C113   C     0.22518   0.15309   0.94522   0.00000  Uiso   1.00
C114   C     0.26000   0.18742   0.88464   0.00000  Uiso   1.00
C115   C     0.26400   0.23665   0.94256   0.00000  Uiso   1.00
H116   H     0.13666   0.13491   0.19832   0.00000  Uiso   1.00
H117   H     0.04946   0.11921   0.07092   0.00000  Uiso   1.00
H118   H     0.17592   0.06184   0.34992   0.00000  Uiso   1.00
H119   H     0.17631   0.22766   0.20615   0.00000  Uiso   1.00
H120   H     0.96591   0.09547   0.87925   0.00000  Uiso   1.00
H121   H     0.23257   0.97451   0.46756   0.00000  Uiso   1.00
H122   H     0.23338   0.32419   0.16440   0.00000  Uiso   1.00
H123   H     0.23785   0.08624   0.80962   0.00000  Uiso   1.00
H124   H     0.15619   0.06787   0.66089   0.00000  Uiso   1.00
H125   H     0.28265   0.01050   0.93990   0.00000  Uiso   1.00
H126   H     0.28304   0.17632   0.79613   0.00000  Uiso   1.00
H127   H     0.05254   0.05380   0.54646   0.00000  Uiso   1.00
H128   H     0.31920   0.93284   0.13477   0.00000  Uiso   1.00
H129   H     0.32001   0.28251   0.83161   0.00000  Uiso   1.00
O130   O     0.95368   0.06342   0.62205   0.00000  Uiso   1.00
O131   O     0.30354   0.90473   0.39389   0.00000  Uiso   1.00
O132   O     0.30460   0.36349   0.99615   0.00000  Uiso   1.00
N133   N     0.99750   0.08820   0.82133   0.00000  Uiso   1.00
N134   N     0.24681   0.97510   0.37136   0.00000  Uiso   1.00
N135   N     0.24758   0.30201   0.08795   0.00000  Uiso   1.00
N136   N     0.04412   0.06577   0.64226   0.00000  Uiso   1.00
N137   N     0.29342   0.95268   0.19228   0.00000  Uiso   1.00
N138   N     0.29419   0.27959   0.90888   0.00000  Uiso   1.00
C139   C     0.84016   0.87624   0.10926   0.00000  Uiso   1.00
C140   C     0.87351   0.89151   0.98614   0.00000  Uiso   1.00
C141   C     0.92751   0.89187   0.98238   0.00000  Uiso   1.00
C142   C     0.95072   0.90708   0.86003   0.00000  Uiso   1.00
C143   C     0.00703   0.92864   0.68628   0.00000  Uiso   1.00
C144   C     0.80480   0.92269   0.13773   0.00000  Uiso   1.00
C145   C     0.80103   0.94926   0.26142   0.00000  Uiso   1.00
C146   C     0.76640   0.99071   0.26668   0.00000  Uiso   1.00
C147   C     0.71602   0.06065   0.32830   0.00000  Uiso   1.00
C148   C     0.80460   0.83259   0.05961   0.00000  Uiso   1.00
C149   C     0.80065   0.78341   0.11764   0.00000  Uiso   1.00
C150   C     0.76583   0.74900   0.05715   0.00000  Uiso   1.00
C151   C     0.71513   0.67905   0.99748   0.00000  Uiso   1.00
C152   C     0.78534   0.90261   0.89867   0.00000  Uiso   1.00
C153   C     0.84373   0.90584   0.87176   0.00000  Uiso   1.00
C154   C     0.86686   0.92105   0.74939   0.00000  Uiso   1.00
C155   C     0.92089   0.92143   0.74544   0.00000  Uiso   1.00
C156   C     0.77502   0.93702   0.02335   0.00000  Uiso   1.00
C157   C     0.74038   0.97843   0.02843   0.00000  Uiso   1.00
C158   C     0.73657   0.00506   0.15210   0.00000  Uiso   1.00
C159   C     0.77482   0.84691   0.94522   0.00000  Uiso   1.00
C160   C     0.74000   0.81258   0.88464   0.00000  Uiso   1.00
C161   C     0.73600   0.76335   0.94256   0.00000  Uiso   1.00
H162   H     0.86334   0.86509   0.19832   0.00000  Uiso   1.00
H163   H     0.95054   0.88079   0.07092   0.00000  Uiso   1.00
H164   H     0.82408   0.93816   0.34992   0.00000  Uiso   1.00
H165   H     0.82369   0.77234   0.20615   0.00000  Uiso   1.00
H166   H     0.03409   0.90453   0.87925   0.00000  Uiso   1.00
H167   H     0.76743   0.02549   0.46756   0.00000  Uiso   1.00
H168   H     0.76662   0.67581   0.16440   0.00000  Uiso   1.00
H169   H     0.76215   0.91376   0.80962   0.00000  Uiso   1.00
H170   H     0.84381   0.93213   0.66089   0.00000  Uiso   1.00
H171   H     0.71735   0.98950   0.93990   0.00000  Uiso   1.00
H172   H     0.71696   0.82368   0.79613   0.00000  Uiso   1.00
H173   H     0.94746   0.94620   0.54646   0.00000  Uiso   1.00
H174   H     0.68080   0.06716   0.13477   0.00000  Uiso   1.00
H175   H     0.67999   0.71749   0.83161   0.00000  Uiso   1.00
O176   O     0.04632   0.93658   0.62205   0.00000  Uiso   1.00
O177   O     0.69646   0.09527   0.39389   0.00000  Uiso   1.00
O178   O     0.69540   0.63651   0.99615   0.00000  Uiso   1.00
N179   N     0.00250   0.91180   0.82133   0.00000  Uiso   1.00
N180   N     0.75319   0.02490   0.37136   0.00000  Uiso   1.00
N181   N     0.75242   0.69799   0.08795   0.00000  Uiso   1.00
N182   N     0.95588   0.93423   0.64226   0.00000  Uiso   1.00
N183   N     0.70658   0.04732   0.19228   0.00000  Uiso   1.00
N184   N     0.70581   0.72041   0.90888   0.00000  Uiso   1.00
C185   C     0.87624   0.15984   0.89074   0.00000  Uiso   1.00
C186   C     0.89151   0.12649   0.01386   0.00000  Uiso   1.00
C187   C     0.89187   0.07249   0.01762   0.00000  Uiso   1.00
C188   C     0.90708   0.04928   0.13997   0.00000  Uiso   1.00
C189   C     0.92864   0.99297   0.31372   0.00000  Uiso   1.00
C190   C     0.92269   0.19520   0.86227   0.00000  Uiso   1.00
C191   C     0.94926   0.19897   0.73858   0.00000  Uiso   1.00
C192   C     0.99071   0.23360   0.73332   0.00000  Uiso   1.00
C193   C     0.06065   0.28398   0.67170   0.00000  Uiso   1.00
C194   C     0.83259   0.19540   0.94039   0.00000  Uiso   1.00
C195   C     0.78341   0.19935   0.88236   0.00000  Uiso   1.00
C196   C     0.74900   0.23417   0.94285   0.00000  Uiso   1.00
C197   C     0.67905   0.28487   0.00252   0.00000  Uiso   1.00
C198   C     0.90261   0.21466   0.10133   0.00000  Uiso   1.00
C199   C     0.90584   0.15627   0.12824   0.00000  Uiso   1.00
C200   C     0.92105   0.13314   0.25061   0.00000  Uiso   1.00
C201   C     0.92143   0.07911   0.25456   0.00000  Uiso   1.00
C202   C     0.93702   0.22498   0.97665   0.00000  Uiso   1.00
C203   C     0.97843   0.25962   0.97157   0.00000  Uiso   1.00
C204   C     0.00506   0.26343   0.84790   0.00000  Uiso   1.00
C205   C     0.84691   0.22518   0.05478   0.00000  Uiso   1.00
C206   C     0.81258   0.26000   0.11536   0.00000  Uiso   1.00
C207   C     0.76335   0.26400   0.05744   0.00000  Uiso   1.00
H208   H     0.86509   0.13666   0.80168   0.00000  Uiso   1.00
H209   H     0.88079   0.04946   0.92908   0.00000  Uiso   1.00
H210   H     0.93816   0.17592   0.65008   0.00000  Uiso   1.00
H211   H     0.77234   0.17631   0.79385   0.00000  Uiso   1.00
H212   H     0.90453   0.96591   0.12075   0.00000  Uiso   1.00
H213   H     0.02549   0.23257   0.53244   0.00000  Uiso   1.00
H214   H     0.67581   0.23338   0.83560   0.00000  Uiso   1.00
H215   H     0.91376   0.23785   0.19038   0.00000  Uiso   1.00
H216   H     0.93213   0.15619   0.33911   0.00000  Uiso   1.00
H217   H     0.98950   0.28265   0.06010   0.00000  Uiso   1.00
H218   H     0.82368   0.28304   0.20387   0.00000  Uiso   1.00
H219   H     0.94620   0.05254   0.45354   0.00000  Uiso   1.00
H220   H     0.06716   0.31920   0.86523   0.00000  Uiso   1.00
H221   H     0.71749   0.32001   0.16839   0.00000  Uiso   1.00
O222   O     0.93658   0.95368   0.37795   0.00000  Uiso   1.00
O223   O     0.09527   0.30354   0.60611   0.00000  Uiso   1.00
O224   O     0.63651   0.30460   0.00385   0.00000  Uiso   1.00
N225   N     0.91180   0.99750   0.17867   0.00000  Uiso   1.00
N226   N     0.02490   0.24681   0.62864   0.00000  Uiso   1.00
N227   N     0.69799   0.24758   0.91205   0.00000  Uiso   1.00
N228   N     0.93423   0.04412   0.35774   0.00000  Uiso   1.00
N229   N     0.04732   0.29342   0.80772   0.00000  Uiso   1.00
N230   N     0.72041   0.29419   0.09112   0.00000  Uiso   1.00
C231   C     0.12376   0.84016   0.89074   0.00000  Uiso   1.00
C232   C     0.10849   0.87351   0.01386   0.00000  Uiso   1.00
C233   C     0.10813   0.92751   0.01762   0.00000  Uiso   1.00
C234   C     0.09292   0.95072   0.13997   0.00000  Uiso   1.00
C235   C     0.07136   0.00703   0.31372   0.00000  Uiso   1.00
C236   C     0.07731   0.80480   0.86227   0.00000  Uiso   1.00
C237   C     0.05074   0.80103   0.73858   0.00000  Uiso   1.00
C238   C     0.00929   0.76640   0.73332   0.00000  Uiso   1.00
C239   C     0.93935   0.71602   0.67170   0.00000  Uiso   1.00
C240   C     0.16741   0.80460   0.94039   0.00000  Uiso   1.00
C241   C     0.21659   0.80065   0.88236   0.00000  Uiso   1.00
C242   C     0.25100   0.76583   0.94285   0.00000  Uiso   1.00
C243   C     0.32095   0.71513   0.00252   0.00000  Uiso   1.00
C244   C     0.09739   0.78534   0.10133   0.00000  Uiso   1.00
C245   C     0.09416   0.84373   0.12824   0.00000  Uiso   1.00
C246   C     0.07895   0.86686   0.25061   0.00000  Uiso   1.00
C247   C     0.07857   0.92089   0.25456   0.00000  Uiso   1.00
C248   C     0.06298   0.77502   0.97665   0.00000  Uiso   1.00
C249   C     0.02157   0.74038   0.97157   0.00000  Uiso   1.00
C250   C     0.99494   0.73657   0.84790   0.00000  Uiso   1.00
C251   C     0.15309   0.77482   0.05478   0.00000  Uiso   1.00
C252   C     0.18742   0.74000   0.11536   0.00000  Uiso   1.00
C253   C     0.23665   0.73600   0.05744   0.00000  Uiso   1.00
H254   H     0.13491   0.86334   0.80168   0.00000  Uiso   1.00
H255   H     0.11921   0.95054   0.92908   0.00000  Uiso   1.00
H256   H     0.06184   0.82408   0.65008   0.00000  Uiso   1.00
H257   H     0.22766   0.82369   0.79385   0.00000  Uiso   1.00
H258   H     0.09547   0.03409   0.12075   0.00000  Uiso   1.00
H259   H     0.97451   0.76743   0.53244   0.00000  Uiso   1.00
H260   H     0.32419   0.76662   0.83560   0.00000  Uiso   1.00
H261   H     0.08624   0.76215   0.19038   0.00000  Uiso   1.00
H262   H     0.06787   0.84381   0.33911   0.00000  Uiso   1.00
H263   H     0.01050   0.71735   0.06010   0.00000  Uiso   1.00
H264   H     0.17632   0.71696   0.20387   0.00000  Uiso   1.00
H265   H     0.05380   0.94746   0.45354   0.00000  Uiso   1.00
H266   H     0.93284   0.68080   0.86523   0.00000  Uiso   1.00
H267   H     0.28251   0.67999   0.16839   0.00000  Uiso   1.00
O268   O     0.06342   0.04632   0.37795   0.00000  Uiso   1.00
O269   O     0.90473   0.69646   0.60611   0.00000  Uiso   1.00
O270   O     0.36349   0.69540   0.00385   0.00000  Uiso   1.00
N271   N     0.08820   0.00250   0.17867   0.00000  Uiso   1.00
N272   N     0.97510   0.75319   0.62864   0.00000  Uiso   1.00
N273   N     0.30201   0.75242   0.91205   0.00000  Uiso   1.00
N274   N     0.06577   0.95588   0.35774   0.00000  Uiso   1.00
N275   N     0.95268   0.70658   0.80772   0.00000  Uiso   1.00
N276   N     0.27959   0.70581   0.09112   0.00000  Uiso   1.00
C277   C     0.34016   0.37624   0.39074   0.00000  Uiso   1.00
C278   C     0.37351   0.39151   0.51386   0.00000  Uiso   1.00
C279   C     0.42751   0.39187   0.51762   0.00000  Uiso   1.00
C280   C     0.45072   0.40708   0.63997   0.00000  Uiso   1.00
C281   C     0.50703   0.42864   0.81372   0.00000  Uiso   1.00
C282   C     0.30480   0.42269   0.36227   0.00000  Uiso   1.00
C283   C     0.30103   0.44926   0.23858   0.00000  Uiso   1.00
C284   C     0.26640   0.49071   0.23332   0.00000  Uiso   1.00
C285   C     0.21602   0.56065   0.17170   0.00000  Uiso   1.00
C286   C     0.30460   0.33259   0.44039   0.00000  Uiso   1.00
C287   C     0.30065   0.28341   0.38236   0.00000  Uiso   1.00
C288   C     0.26583   0.24900   0.44285   0.00000  Uiso   1.00
C289   C     0.21513   0.17905   0.50252   0.00000  Uiso   1.00
C290   C     0.28534   0.40261   0.60133   0.00000  Uiso   1.00
C291   C     0.34373   0.40584   0.62824   0.00000  Uiso   1.00
C292   C     0.36686   0.42105   0.75061   0.00000  Uiso   1.00
C293   C     0.42089   0.42143   0.75456   0.00000  Uiso   1.00
C294   C     0.27502   0.43702   0.47665   0.00000  Uiso   1.00
C295   C     0.24038   0.47843   0.47157   0.00000  Uiso   1.00
C296   C     0.23657   0.50506   0.34790   0.00000  Uiso   1.00
C297   C     0.27482   0.34691   0.55478   0.00000  Uiso   1.00
C298   C     0.24000   0.31258   0.61536   0.00000  Uiso   1.00
C299   C     0.23600   0.26335   0.55744   0.00000  Uiso   1.00
H300   H     0.36334   0.36509   0.30168   0.00000  Uiso   1.00
H301   H     0.45054   0.38079   0.42908   0.00000  Uiso   1.00
H302   H     0.32408   0.43816   0.15008   0.00000  Uiso   1.00
H303   H     0.32369   0.27234   0.29385   0.00000  Uiso   1.00
H304   H     0.53409   0.40453   0.62075   0.00000  Uiso   1.00
H305   H     0.26743   0.52549   0.03244   0.00000  Uiso   1.00
H306   H     0.26662   0.17581   0.33560   0.00000  Uiso   1.00
H307   H     0.26215   0.41376   0.69038   0.00000  Uiso   1.00
H308   H     0.34381   0.43213   0.83911   0.00000  Uiso   1.00
H309   H     0.21735   0.48950   0.56010   0.00000  Uiso   1.00
H310   H     0.21696   0.32368   0.70387   0.00000  Uiso   1.00
H311   H     0.44746   0.44620   0.95354   0.00000  Uiso   1.00
H312   H     0.18080   0.56716   0.36523   0.00000  Uiso   1.00
H313   H     0.17999   0.21749   0.66839   0.00000  Uiso   1.00
O314   O     0.54632   0.43658   0.87795   0.00000  Uiso   1.00
O315   O     0.19646   0.59527   0.10611   0.00000  Uiso   1.00
O316   O     0.19540   0.13651   0.50385   0.00000  Uiso   1.00
N317   N     0.50250   0.41180   0.67867   0.00000  Uiso   1.00
N318   N     0.25319   0.52490   0.12864   0.00000  Uiso   1.00
N319   N     0.25242   0.19799   0.41205   0.00000  Uiso   1.00
N320   N     0.45588   0.43423   0.85774   0.00000  Uiso   1.00
N321   N     0.20658   0.54732   0.30772   0.00000  Uiso   1.00
N322   N     0.20581   0.22041   0.59112   0.00000  Uiso   1.00
C323   C     0.65984   0.62376   0.39074   0.00000  Uiso   1.00
C324   C     0.62649   0.60849   0.51386   0.00000  Uiso   1.00
C325   C     0.57249   0.60813   0.51762   0.00000  Uiso   1.00
C326   C     0.54928   0.59292   0.63997   0.00000  Uiso   1.00
C327   C     0.49297   0.57136   0.81372   0.00000  Uiso   1.00
C328   C     0.69520   0.57731   0.36227   0.00000  Uiso   1.00
C329   C     0.69897   0.55074   0.23858   0.00000  Uiso   1.00
C330   C     0.73360   0.50929   0.23332   0.00000  Uiso   1.00
C331   C     0.78398   0.43935   0.17170   0.00000  Uiso   1.00
C332   C     0.69540   0.66741   0.44039   0.00000  Uiso   1.00
C333   C     0.69935   0.71659   0.38236   0.00000  Uiso   1.00
C334   C     0.73417   0.75100   0.44285   0.00000  Uiso   1.00
C335   C     0.78487   0.82095   0.50252   0.00000  Uiso   1.00
C336   C     0.71466   0.59739   0.60133   0.00000  Uiso   1.00
C337   C     0.65627   0.59416   0.62824   0.00000  Uiso   1.00
C338   C     0.63314   0.57895   0.75061   0.00000  Uiso   1.00
C339   C     0.57911   0.57857   0.75456   0.00000  Uiso   1.00
C340   C     0.72498   0.56298   0.47665   0.00000  Uiso   1.00
C341   C     0.75962   0.52157   0.47157   0.00000  Uiso   1.00
C342   C     0.76343   0.49494   0.34790   0.00000  Uiso   1.00
C343   C     0.72518   0.65309   0.55478   0.00000  Uiso   1.00
C344   C     0.76000   0.68742   0.61536   0.00000  Uiso   1.00
C345   C     0.76400   0.73665   0.55744   0.00000  Uiso   1.00
H346   H     0.63666   0.63491   0.30168   0.00000  Uiso   1.00
H347   H     0.54946   0.61921   0.42908   0.00000  Uiso   1.00
H348   H     0.67592   0.56184   0.15008   0.00000  Uiso   1.00
H349   H     0.67631   0.72766   0.29385   0.00000  Uiso   1.00
H350   H     0.46591   0.59547   0.62075   0.00000  Uiso   1.00
H351   H     0.73257   0.47451   0.03244   0.00000  Uiso   1.00
H352   H     0.73338   0.82419   0.33560   0.00000  Uiso   1.00
H353   H     0.73785   0.58624   0.69038   0.00000  Uiso   1.00
H354   H     0.65619   0.56787   0.83911   0.00000  Uiso   1.00
H355   H     0.78265   0.51050   0.56010   0.00000  Uiso   1.00
H356   H     0.78304   0.67632   0.70387   0.00000  Uiso   1.00
H357   H     0.55254   0.55380   0.95354   0.00000  Uiso   1.00
H358   H     0.81920   0.43284   0.36523   0.00000  Uiso   1.00
H359   H     0.82001   0.78251   0.66839   0.00000  Uiso   1.00
O360   O     0.45368   0.56342   0.87795   0.00000  Uiso   1.00
O361   O     0.80354   0.40473   0.10611   0.00000  Uiso   1.00
O362   O     0.80460   0.86349   0.50385   0.00000  Uiso   1.00
N363   N     0.49750   0.58820   0.67867   0.00000  Uiso   1.00
N364   N     0.74681   0.47510   0.12864   0.00000  Uiso   1.00
N365   N     0.74758   0.80201   0.41205   0.00000  Uiso   1.00
N366   N     0.54412   0.56577   0.85774   0.00000  Uiso   1.00
N367   N     0.79342   0.45268   0.30772   0.00000  Uiso   1.00
N368   N     0.79419   0.77959   0.59112   0.00000  Uiso   1.00
