data_job_05593
_audit_creation_date              2018-12-19
_audit_creation_method            'Materials Studio'
_symmetry_space_group_name_H-M    'P1'
_symmetry_Int_Tables_number       1
_symmetry_cell_setting            triclinic
loop_
_symmetry_equiv_pos_as_xyz
  x,y,z
_cell_length_a                    14.9086
_cell_length_b                    9.8561
_cell_length_c                    23.9131
_cell_angle_alpha                 90.0000
_cell_angle_beta                  134.1590
_cell_angle_gamma                 90.0000
loop_
_atom_site_label
_atom_site_type_symbol
_atom_site_fract_x
_atom_site_fract_y
_atom_site_fract_z
_atom_site_U_iso_or_equiv
_atom_site_adp_type
_atom_site_occupancy
C1     C     0.79215   0.98005   0.22937   0.00000  Uiso   1.00
C2     C     0.88987   0.06941   0.30009   0.00000  Uiso   1.00
C3     C     0.00920   0.09553   0.33183   0.00000  Uiso   1.00
C4     C     0.08451   0.17993   0.39657   0.00000  Uiso   1.00
C5     C     0.24276   0.31008   0.50157   0.00000  Uiso   1.00
C6     C     0.75602   0.87259   0.25662   0.00000  Uiso   1.00
C7     C     0.76280   0.73324   0.25180   0.00000  Uiso   1.00
C8     C     0.72542   0.65195   0.27994   0.00000  Uiso   1.00
C9     C     0.67578   0.47654   0.31740   0.00000  Uiso   1.00
C10    C     0.67680   0.06901   0.17152   0.00000  Uiso   1.00
C11    C     0.61692   0.09478   0.09514   0.00000  Uiso   1.00
C12    C     0.51282   0.17884   0.05162   0.00000  Uiso   1.00
C13    C     0.34017   0.30840   0.95695   0.00000  Uiso   1.00
C14    C     0.71371   0.08347   0.28791   0.00000  Uiso   1.00
C15    C     0.84726   0.12558   0.33189   0.00000  Uiso   1.00
C16    C     0.92242   0.20996   0.39660   0.00000  Uiso   1.00
C17    C     0.04183   0.23621   0.42843   0.00000  Uiso   1.00
C18    C     0.71342   0.92876   0.28842   0.00000  Uiso   1.00
C19    C     0.67602   0.84766   0.31657   0.00000  Uiso   1.00
C20    C     0.68274   0.70823   0.31180   0.00000  Uiso   1.00
C21    C     0.63419   0.12519   0.20332   0.00000  Uiso   1.00
C22    C     0.53015   0.20921   0.15991   0.00000  Uiso   1.00
C23    C     0.47014   0.23512   0.08348   0.00000  Uiso   1.00
H24    H     0.82531   0.93630   0.20461   0.00000  Uiso   1.00
H25    H     0.04214   0.05203   0.30721   0.00000  Uiso   1.00
H26    H     0.79576   0.68979   0.22718   0.00000  Uiso   1.00
H27    H     0.64992   0.05129   0.07055   0.00000  Uiso   1.00
H28    H     0.26375   0.20507   0.43499   0.00000  Uiso   1.00
H29    H     0.74422   0.44128   0.26623   0.00000  Uiso   1.00
H30    H     0.43668   0.20355   0.93594   0.00000  Uiso   1.00
H31    H     0.68054   0.12720   0.31267   0.00000  Uiso   1.00
H32    H     0.88942   0.25342   0.42120   0.00000  Uiso   1.00
H33    H     0.64305   0.89117   0.34117   0.00000  Uiso   1.00
H34    H     0.49721   0.25267   0.18454   0.00000  Uiso   1.00
H35    H     0.13981   0.36852   0.52751   0.00000  Uiso   1.00
H36    H     0.62026   0.60472   0.35875   0.00000  Uiso   1.00
H37    H     0.31273   0.36700   0.02846   0.00000  Uiso   1.00
O38    O     0.34182   0.36634   0.55071   0.00000  Uiso   1.00
O39    O     0.66018   0.36427   0.32929   0.00000  Uiso   1.00
O40    O     0.25671   0.36436   0.89595   0.00000  Uiso   1.00
N41    N     0.20591   0.22624   0.44186   0.00000  Uiso   1.00
N42    N     0.72019   0.51213   0.28409   0.00000  Uiso   1.00
N43    N     0.43265   0.22477   0.97529   0.00000  Uiso   1.00
N44    N     0.13921   0.31419   0.49165   0.00000  Uiso   1.00
N45    N     0.65350   0.60009   0.33388   0.00000  Uiso   1.00
N46    N     0.36596   0.31272   0.02507   0.00000  Uiso   1.00
C47    C     0.20785   0.98005   0.27063   0.00000  Uiso   1.00
C48    C     0.11013   0.06941   0.19991   0.00000  Uiso   1.00
C49    C     0.99080   0.09553   0.16817   0.00000  Uiso   1.00
C50    C     0.91549   0.17993   0.10343   0.00000  Uiso   1.00
C51    C     0.75724   0.31008   0.99843   0.00000  Uiso   1.00
C52    C     0.24398   0.87259   0.24338   0.00000  Uiso   1.00
C53    C     0.23720   0.73324   0.24820   0.00000  Uiso   1.00
C54    C     0.27458   0.65195   0.22006   0.00000  Uiso   1.00
C55    C     0.32422   0.47654   0.18260   0.00000  Uiso   1.00
C56    C     0.32320   0.06901   0.32848   0.00000  Uiso   1.00
C57    C     0.38308   0.09478   0.40486   0.00000  Uiso   1.00
C58    C     0.48718   0.17884   0.44838   0.00000  Uiso   1.00
C59    C     0.65983   0.30840   0.54305   0.00000  Uiso   1.00
C60    C     0.28629   0.08347   0.21209   0.00000  Uiso   1.00
C61    C     0.15274   0.12558   0.16811   0.00000  Uiso   1.00
C62    C     0.07758   0.20996   0.10340   0.00000  Uiso   1.00
C63    C     0.95817   0.23621   0.07157   0.00000  Uiso   1.00
C64    C     0.28658   0.92876   0.21158   0.00000  Uiso   1.00
C65    C     0.32398   0.84766   0.18343   0.00000  Uiso   1.00
C66    C     0.31726   0.70823   0.18820   0.00000  Uiso   1.00
C67    C     0.36581   0.12519   0.29668   0.00000  Uiso   1.00
C68    C     0.46985   0.20921   0.34009   0.00000  Uiso   1.00
C69    C     0.52986   0.23512   0.41652   0.00000  Uiso   1.00
H70    H     0.17469   0.93630   0.29539   0.00000  Uiso   1.00
H71    H     0.95786   0.05203   0.19279   0.00000  Uiso   1.00
H72    H     0.20424   0.68979   0.27282   0.00000  Uiso   1.00
H73    H     0.35008   0.05129   0.42945   0.00000  Uiso   1.00
H74    H     0.73625   0.20507   0.06501   0.00000  Uiso   1.00
H75    H     0.25578   0.44128   0.23377   0.00000  Uiso   1.00
H76    H     0.56332   0.20355   0.56406   0.00000  Uiso   1.00
H77    H     0.31946   0.12720   0.18733   0.00000  Uiso   1.00
H78    H     0.11058   0.25342   0.07880   0.00000  Uiso   1.00
H79    H     0.35695   0.89117   0.15883   0.00000  Uiso   1.00
H80    H     0.50279   0.25267   0.31546   0.00000  Uiso   1.00
H81    H     0.86019   0.36852   0.97249   0.00000  Uiso   1.00
H82    H     0.37974   0.60472   0.14125   0.00000  Uiso   1.00
H83    H     0.68727   0.36700   0.47154   0.00000  Uiso   1.00
O84    O     0.65818   0.36634   0.94929   0.00000  Uiso   1.00
O85    O     0.33982   0.36427   0.17071   0.00000  Uiso   1.00
O86    O     0.74329   0.36436   0.60405   0.00000  Uiso   1.00
N87    N     0.79409   0.22624   0.05814   0.00000  Uiso   1.00
N88    N     0.27981   0.51213   0.21591   0.00000  Uiso   1.00
N89    N     0.56735   0.22477   0.52471   0.00000  Uiso   1.00
N90    N     0.86079   0.31419   0.00835   0.00000  Uiso   1.00
N91    N     0.34650   0.60009   0.16612   0.00000  Uiso   1.00
N92    N     0.63404   0.31272   0.47493   0.00000  Uiso   1.00
C93    C     0.20785   0.01995   0.77063   0.00000  Uiso   1.00
C94    C     0.11013   0.93059   0.69991   0.00000  Uiso   1.00
C95    C     0.99080   0.90447   0.66817   0.00000  Uiso   1.00
C96    C     0.91549   0.82007   0.60343   0.00000  Uiso   1.00
C97    C     0.75724   0.68992   0.49843   0.00000  Uiso   1.00
C98    C     0.24398   0.12741   0.74338   0.00000  Uiso   1.00
C99    C     0.23720   0.26676   0.74820   0.00000  Uiso   1.00
C100   C     0.27458   0.34805   0.72006   0.00000  Uiso   1.00
C101   C     0.32422   0.52346   0.68260   0.00000  Uiso   1.00
C102   C     0.32320   0.93099   0.82848   0.00000  Uiso   1.00
C103   C     0.38308   0.90522   0.90486   0.00000  Uiso   1.00
C104   C     0.48718   0.82116   0.94838   0.00000  Uiso   1.00
C105   C     0.65983   0.69160   0.04305   0.00000  Uiso   1.00
C106   C     0.28629   0.91653   0.71209   0.00000  Uiso   1.00
C107   C     0.15274   0.87442   0.66811   0.00000  Uiso   1.00
C108   C     0.07758   0.79004   0.60340   0.00000  Uiso   1.00
C109   C     0.95817   0.76379   0.57157   0.00000  Uiso   1.00
C110   C     0.28658   0.07124   0.71158   0.00000  Uiso   1.00
C111   C     0.32398   0.15234   0.68343   0.00000  Uiso   1.00
C112   C     0.31726   0.29177   0.68820   0.00000  Uiso   1.00
C113   C     0.36581   0.87481   0.79668   0.00000  Uiso   1.00
C114   C     0.46985   0.79079   0.84009   0.00000  Uiso   1.00
C115   C     0.52986   0.76488   0.91652   0.00000  Uiso   1.00
H116   H     0.17469   0.06370   0.79539   0.00000  Uiso   1.00
H117   H     0.95786   0.94797   0.69279   0.00000  Uiso   1.00
H118   H     0.20424   0.31021   0.77282   0.00000  Uiso   1.00
H119   H     0.35008   0.94871   0.92945   0.00000  Uiso   1.00
H120   H     0.73625   0.79493   0.56501   0.00000  Uiso   1.00
H121   H     0.25578   0.55872   0.73377   0.00000  Uiso   1.00
H122   H     0.56332   0.79645   0.06406   0.00000  Uiso   1.00
H123   H     0.31946   0.87280   0.68733   0.00000  Uiso   1.00
H124   H     0.11058   0.74658   0.57880   0.00000  Uiso   1.00
H125   H     0.35695   0.10883   0.65883   0.00000  Uiso   1.00
H126   H     0.50279   0.74733   0.81546   0.00000  Uiso   1.00
H127   H     0.86019   0.63148   0.47249   0.00000  Uiso   1.00
H128   H     0.37974   0.39528   0.64125   0.00000  Uiso   1.00
H129   H     0.68727   0.63300   0.97154   0.00000  Uiso   1.00
O130   O     0.65818   0.63366   0.44929   0.00000  Uiso   1.00
O131   O     0.33982   0.63573   0.67071   0.00000  Uiso   1.00
O132   O     0.74329   0.63564   0.10405   0.00000  Uiso   1.00
N133   N     0.79409   0.77376   0.55814   0.00000  Uiso   1.00
N134   N     0.27981   0.48787   0.71591   0.00000  Uiso   1.00
N135   N     0.56735   0.77523   0.02471   0.00000  Uiso   1.00
N136   N     0.86079   0.68581   0.50835   0.00000  Uiso   1.00
N137   N     0.34650   0.39991   0.66612   0.00000  Uiso   1.00
N138   N     0.63404   0.68728   0.97493   0.00000  Uiso   1.00
C139   C     0.79215   0.01995   0.72937   0.00000  Uiso   1.00
C140   C     0.88987   0.93059   0.80009   0.00000  Uiso   1.00
C141   C     0.00920   0.90447   0.83183   0.00000  Uiso   1.00
C142   C     0.08451   0.82007   0.89657   0.00000  Uiso   1.00
C143   C     0.24276   0.68992   0.00157   0.00000  Uiso   1.00
C144   C     0.75602   0.12741   0.75662   0.00000  Uiso   1.00
C145   C     0.76280   0.26676   0.75180   0.00000  Uiso   1.00
C146   C     0.72542   0.34805   0.77994   0.00000  Uiso   1.00
C147   C     0.67578   0.52346   0.81740   0.00000  Uiso   1.00
C148   C     0.67680   0.93099   0.67152   0.00000  Uiso   1.00
C149   C     0.61692   0.90522   0.59514   0.00000  Uiso   1.00
C150   C     0.51282   0.82116   0.55162   0.00000  Uiso   1.00
C151   C     0.34017   0.69160   0.45695   0.00000  Uiso   1.00
C152   C     0.71371   0.91653   0.78791   0.00000  Uiso   1.00
C153   C     0.84726   0.87442   0.83189   0.00000  Uiso   1.00
C154   C     0.92242   0.79004   0.89660   0.00000  Uiso   1.00
C155   C     0.04183   0.76379   0.92843   0.00000  Uiso   1.00
C156   C     0.71342   0.07124   0.78842   0.00000  Uiso   1.00
C157   C     0.67602   0.15234   0.81657   0.00000  Uiso   1.00
C158   C     0.68274   0.29177   0.81180   0.00000  Uiso   1.00
C159   C     0.63419   0.87481   0.70332   0.00000  Uiso   1.00
C160   C     0.53015   0.79079   0.65991   0.00000  Uiso   1.00
C161   C     0.47014   0.76488   0.58348   0.00000  Uiso   1.00
H162   H     0.82531   0.06370   0.70461   0.00000  Uiso   1.00
H163   H     0.04214   0.94797   0.80721   0.00000  Uiso   1.00
H164   H     0.79576   0.31021   0.72718   0.00000  Uiso   1.00
H165   H     0.64992   0.94871   0.57055   0.00000  Uiso   1.00
H166   H     0.26375   0.79493   0.93499   0.00000  Uiso   1.00
H167   H     0.74422   0.55872   0.76623   0.00000  Uiso   1.00
H168   H     0.43668   0.79645   0.43594   0.00000  Uiso   1.00
H169   H     0.68054   0.87280   0.81267   0.00000  Uiso   1.00
H170   H     0.88942   0.74658   0.92120   0.00000  Uiso   1.00
H171   H     0.64305   0.10883   0.84117   0.00000  Uiso   1.00
H172   H     0.49721   0.74733   0.68454   0.00000  Uiso   1.00
H173   H     0.13981   0.63148   0.02751   0.00000  Uiso   1.00
H174   H     0.62026   0.39528   0.85875   0.00000  Uiso   1.00
H175   H     0.31273   0.63300   0.52846   0.00000  Uiso   1.00
O176   O     0.34182   0.63366   0.05071   0.00000  Uiso   1.00
O177   O     0.66018   0.63573   0.82929   0.00000  Uiso   1.00
O178   O     0.25671   0.63564   0.39595   0.00000  Uiso   1.00
N179   N     0.20591   0.77376   0.94186   0.00000  Uiso   1.00
N180   N     0.72019   0.48787   0.78409   0.00000  Uiso   1.00
N181   N     0.43265   0.77523   0.47529   0.00000  Uiso   1.00
N182   N     0.13921   0.68581   0.99165   0.00000  Uiso   1.00
N183   N     0.65350   0.39991   0.83388   0.00000  Uiso   1.00
N184   N     0.36596   0.68728   0.52507   0.00000  Uiso   1.00
