data_job_06005
_audit_creation_date              2018-12-19
_audit_creation_method            'Materials Studio'
_symmetry_space_group_name_H-M    'P1'
_symmetry_Int_Tables_number       1
_symmetry_cell_setting            triclinic
loop_
_symmetry_equiv_pos_as_xyz
  x,y,z
_cell_length_a                    7.8053
_cell_length_b                    23.0722
_cell_length_c                    23.0992
_cell_angle_alpha                 61.0800
_cell_angle_beta                  84.4777
_cell_angle_gamma                 95.5134
loop_
_atom_site_label
_atom_site_type_symbol
_atom_site_fract_x
_atom_site_fract_y
_atom_site_fract_z
_atom_site_U_iso_or_equiv
_atom_site_adp_type
_atom_site_occupancy
C1     C     0.06087   0.19133   0.61426   0.00000  Uiso   1.00
C2     C     0.03891   0.19191   0.68029   0.00000  Uiso   1.00
C3     C     0.88242   0.17563   0.72294   0.00000  Uiso   1.00
C4     C     0.88981   0.17926   0.78093   0.00000  Uiso   1.00
C5     C     0.83162   0.17726   0.88120   0.00000  Uiso   1.00
C6     C     0.15096   0.26163   0.56087   0.00000  Uiso   1.00
C7     C     0.08869   0.30396   0.50311   0.00000  Uiso   1.00
C8     C     0.19042   0.36629   0.46057   0.00000  Uiso   1.00
C9     C     0.30626   0.47252   0.37541   0.00000  Uiso   1.00
C10    C     0.19241   0.14474   0.62023   0.00000  Uiso   1.00
C11    C     0.16503   0.08879   0.61236   0.00000  Uiso   1.00
C12    C     0.30168   0.05272   0.61978   0.00000  Uiso   1.00
C13    C     0.48188   0.97745   0.62679   0.00000  Uiso   1.00
C14    C     0.35226   0.22675   0.64142   0.00000  Uiso   1.00
C15    C     0.19718   0.21114   0.69504   0.00000  Uiso   1.00
C16    C     0.20481   0.21480   0.75298   0.00000  Uiso   1.00
C17    C     0.04836   0.19853   0.79571   0.00000  Uiso   1.00
C18    C     0.30923   0.28087   0.57562   0.00000  Uiso   1.00
C19    C     0.41108   0.34315   0.53315   0.00000  Uiso   1.00
C20    C     0.34897   0.38556   0.47535   0.00000  Uiso   1.00
C21    C     0.35069   0.16397   0.63498   0.00000  Uiso   1.00
C22    C     0.48741   0.12797   0.64241   0.00000  Uiso   1.00
C23    C     0.46024   0.07199   0.63456   0.00000  Uiso   1.00
H24    H     0.93765   0.17636   0.60277   0.00000  Uiso   1.00
H25    H     0.75996   0.16075   0.71150   0.00000  Uiso   1.00
H26    H     0.96621   0.28906   0.49171   0.00000  Uiso   1.00
H27    H     0.04253   0.07392   0.60095   0.00000  Uiso   1.00
H28    H     0.63275   0.15194   0.83854   0.00000  Uiso   1.00
H29    H     0.06767   0.42250   0.37508   0.00000  Uiso   1.00
H30    H     0.22861   0.96884   0.60542   0.00000  Uiso   1.00
H31    H     0.47549   0.24172   0.65290   0.00000  Uiso   1.00
H32    H     0.32731   0.22969   0.76438   0.00000  Uiso   1.00
H33    H     0.53356   0.35801   0.54458   0.00000  Uiso   1.00
H34    H     0.60988   0.14287   0.65382   0.00000  Uiso   1.00
H35    H     0.09323   0.20790   0.88146   0.00000  Uiso   1.00
H36    H     0.52815   0.47846   0.41799   0.00000  Uiso   1.00
H37    H     0.68909   0.02480   0.64834   0.00000  Uiso   1.00
O38    O     0.75581   0.17085   0.93242   0.00000  Uiso   1.00
O39    O     0.32641   0.52580   0.32437   0.00000  Uiso   1.00
O40    O     0.53755   0.93061   0.62658   0.00000  Uiso   1.00
N41    N     0.76147   0.16675   0.83335   0.00000  Uiso   1.00
N42    N     0.16807   0.41971   0.40004   0.00000  Uiso   1.00
N43    N     0.31855   0.99558   0.61538   0.00000  Uiso   1.00
N44    N     0.00925   0.19686   0.85644   0.00000  Uiso   1.00
N45    N     0.41585   0.44982   0.42313   0.00000  Uiso   1.00
N46    N     0.56633   0.02569   0.63848   0.00000  Uiso   1.00
C47    C     0.86628   0.19562   0.18866   0.00000  Uiso   1.00
C48    C     0.84393   0.12907   0.18898   0.00000  Uiso   1.00
C49    C     0.70293   0.10331   0.17133   0.00000  Uiso   1.00
C50    C     0.70701   0.04162   0.17497   0.00000  Uiso   1.00
C51    C     0.65094   0.94353   0.17238   0.00000  Uiso   1.00
C52    C     0.89201   0.17869   0.25942   0.00000  Uiso   1.00
C53    C     0.79146   0.19465   0.30099   0.00000  Uiso   1.00
C54    C     0.83604   0.17473   0.36393   0.00000  Uiso   1.00
C55    C     0.85471   0.15372   0.47067   0.00000  Uiso   1.00
C56    C     0.03967   0.23540   0.14354   0.00000  Uiso   1.00
C57    C     0.06329   0.29908   0.08767   0.00000  Uiso   1.00
C58    C     0.23219   0.32692   0.05304   0.00000  Uiso   1.00
C59    C     0.48012   0.39397   0.97985   0.00000  Uiso   1.00
C60    C     0.12424   0.13186   0.22653   0.00000  Uiso   1.00
C61    C     0.98404   0.09443   0.20956   0.00000  Uiso   1.00
C62    C     0.98834   0.03276   0.21322   0.00000  Uiso   1.00
C63    C     0.84737   0.00692   0.19558   0.00000  Uiso   1.00
C64    C     0.03212   0.14405   0.27999   0.00000  Uiso   1.00
C65    C     0.07687   0.12411   0.34288   0.00000  Uiso   1.00
C66    C     0.97640   0.14004   0.38453   0.00000  Uiso   1.00
C67    C     0.17979   0.20077   0.16410   0.00000  Uiso   1.00
C68    C     0.34869   0.22852   0.12956   0.00000  Uiso   1.00
C69    C     0.37256   0.29222   0.07365   0.00000  Uiso   1.00
H70    H     0.75720   0.22258   0.17265   0.00000  Uiso   1.00
H71    H     0.59452   0.13013   0.15542   0.00000  Uiso   1.00
H72    H     0.68305   0.22146   0.28505   0.00000  Uiso   1.00
H73    H     0.95483   0.32586   0.07176   0.00000  Uiso   1.00
H74    H     0.47592   0.01234   0.14540   0.00000  Uiso   1.00
H75    H     0.66263   0.20494   0.41874   0.00000  Uiso   1.00
H76    H     0.23574   0.42509   0.96898   0.00000  Uiso   1.00
H77    H     0.23333   0.10489   0.24255   0.00000  Uiso   1.00
H78    H     0.09678   0.00597   0.22914   0.00000  Uiso   1.00
H79    H     0.18531   0.09731   0.35878   0.00000  Uiso   1.00
H80    H     0.45709   0.20171   0.14549   0.00000  Uiso   1.00
H81    H     0.88357   0.91157   0.20525   0.00000  Uiso   1.00
H82    H     0.07028   0.10418   0.47858   0.00000  Uiso   1.00
H83    H     0.64339   0.32432   0.02882   0.00000  Uiso   1.00
O84    O     0.58130   0.89899   0.16527   0.00000  Uiso   1.00
O85    O     0.82628   0.15170   0.52387   0.00000  Uiso   1.00
O86    O     0.57817   0.44052   0.93379   0.00000  Uiso   1.00
N87    N     0.59062   0.00220   0.16131   0.00000  Uiso   1.00
N88    N     0.76516   0.18227   0.41687   0.00000  Uiso   1.00
N89    N     0.30097   0.38809   0.99639   0.00000  Uiso   1.00
N90    N     0.80997   0.94798   0.19352   0.00000  Uiso   1.00
N91    N     0.98452   0.12804   0.44907   0.00000  Uiso   1.00
N92    N     0.52033   0.33387   0.02859   0.00000  Uiso   1.00
C93    C     0.67468   0.61717   0.19298   0.00000  Uiso   1.00
C94    C     0.71297   0.68318   0.12660   0.00000  Uiso   1.00
C95    C     0.59599   0.72713   0.09971   0.00000  Uiso   1.00
C96    C     0.65618   0.78486   0.03840   0.00000  Uiso   1.00
C97    C     0.68958   0.88532   0.94036   0.00000  Uiso   1.00
C98    C     0.71575   0.56309   0.17633   0.00000  Uiso   1.00
C99    C     0.60111   0.50606   0.19125   0.00000  Uiso   1.00
C100   C     0.66365   0.46269   0.17181   0.00000  Uiso   1.00
C101   C     0.70141   0.37668   0.15102   0.00000  Uiso   1.00
C102   C     0.81113   0.62194   0.23417   0.00000  Uiso   1.00
C103   C     0.77669   0.61439   0.29773   0.00000  Uiso   1.00
C104   C     0.91954   0.62056   0.32699   0.00000  Uiso   1.00
C105   C     0.10538   0.62593   0.39599   0.00000  Uiso   1.00
C106   C     0.98959   0.64153   0.13192   0.00000  Uiso   1.00
C107   C     0.88402   0.69641   0.09344   0.00000  Uiso   1.00
C108   C     0.94440   0.75408   0.03216   0.00000  Uiso   1.00
C109   C     0.82753   0.79811   0.00518   0.00000  Uiso   1.00
C110   C     0.88679   0.57631   0.14317   0.00000  Uiso   1.00
C111   C     0.94952   0.53301   0.12370   0.00000  Uiso   1.00
C112   C     0.83501   0.47594   0.13859   0.00000  Uiso   1.00
C113   C     0.98217   0.63518   0.20100   0.00000  Uiso   1.00
C114   C     0.12510   0.64135   0.23017   0.00000  Uiso   1.00
C115   C     0.09089   0.63381   0.29376   0.00000  Uiso   1.00
H116   H     0.54152   0.60687   0.21880   0.00000  Uiso   1.00
H117   H     0.46363   0.71687   0.12539   0.00000  Uiso   1.00
H118   H     0.46876   0.49584   0.21692   0.00000  Uiso   1.00
H119   H     0.64431   0.60416   0.32338   0.00000  Uiso   1.00
H120   H     0.45269   0.84465   0.00718   0.00000  Uiso   1.00
H121   H     0.46353   0.37858   0.20021   0.00000  Uiso   1.00
H122   H     0.83371   0.60698   0.42470   0.00000  Uiso   1.00
H123   H     0.12276   0.65183   0.10610   0.00000  Uiso   1.00
H124   H     0.07677   0.76430   0.00650   0.00000  Uiso   1.00
H125   H     0.08189   0.54326   0.09804   0.00000  Uiso   1.00
H126   H     0.25744   0.65158   0.20449   0.00000  Uiso   1.00
H127   H     0.95033   0.88315   0.91069   0.00000  Uiso   1.00
H128   H     0.96117   0.41707   0.10373   0.00000  Uiso   1.00
H129   H     0.33135   0.64548   0.32820   0.00000  Uiso   1.00
O130   O     0.66075   0.93707   0.89544   0.00000  Uiso   1.00
O131   O     0.67497   0.32558   0.14870   0.00000  Uiso   1.00
O132   O     0.16064   0.62526   0.44321   0.00000  Uiso   1.00
N133   N     0.57613   0.83829   0.99815   0.00000  Uiso   1.00
N134   N     0.58625   0.40253   0.17861   0.00000  Uiso   1.00
N135   N     0.93234   0.61606   0.38849   0.00000  Uiso   1.00
N136   N     0.84391   0.85900   0.94623   0.00000  Uiso   1.00
N137   N     0.85403   0.42325   0.12669   0.00000  Uiso   1.00
N138   N     0.20012   0.63677   0.33657   0.00000  Uiso   1.00
C139   C     0.93913   0.80867   0.38574   0.00000  Uiso   1.00
C140   C     0.96109   0.80809   0.31971   0.00000  Uiso   1.00
C141   C     0.11758   0.82438   0.27706   0.00000  Uiso   1.00
C142   C     0.11019   0.82074   0.21907   0.00000  Uiso   1.00
C143   C     0.16838   0.82274   0.11880   0.00000  Uiso   1.00
C144   C     0.84904   0.73837   0.43913   0.00000  Uiso   1.00
C145   C     0.91131   0.69604   0.49689   0.00000  Uiso   1.00
C146   C     0.80958   0.63371   0.53943   0.00000  Uiso   1.00
C147   C     0.69374   0.52748   0.62459   0.00000  Uiso   1.00
C148   C     0.80759   0.85526   0.37977   0.00000  Uiso   1.00
C149   C     0.83497   0.91121   0.38764   0.00000  Uiso   1.00
C150   C     0.69832   0.94728   0.38022   0.00000  Uiso   1.00
C151   C     0.51812   0.02255   0.37321   0.00000  Uiso   1.00
C152   C     0.64774   0.77325   0.35858   0.00000  Uiso   1.00
C153   C     0.80282   0.78886   0.30496   0.00000  Uiso   1.00
C154   C     0.79519   0.78520   0.24702   0.00000  Uiso   1.00
C155   C     0.95164   0.80147   0.20429   0.00000  Uiso   1.00
C156   C     0.69077   0.71913   0.42438   0.00000  Uiso   1.00
C157   C     0.58892   0.65685   0.46685   0.00000  Uiso   1.00
C158   C     0.65103   0.61444   0.52465   0.00000  Uiso   1.00
C159   C     0.64931   0.83603   0.36502   0.00000  Uiso   1.00
C160   C     0.51259   0.87203   0.35759   0.00000  Uiso   1.00
C161   C     0.53976   0.92802   0.36544   0.00000  Uiso   1.00
H162   H     0.06235   0.82364   0.39723   0.00000  Uiso   1.00
H163   H     0.24004   0.83925   0.28850   0.00000  Uiso   1.00
H164   H     0.03379   0.71094   0.50829   0.00000  Uiso   1.00
H165   H     0.95747   0.92608   0.39905   0.00000  Uiso   1.00
H166   H     0.36725   0.84806   0.16146   0.00000  Uiso   1.00
H167   H     0.93233   0.57751   0.62492   0.00000  Uiso   1.00
H168   H     0.77139   0.03116   0.39458   0.00000  Uiso   1.00
H169   H     0.52451   0.75828   0.34710   0.00000  Uiso   1.00
H170   H     0.67269   0.77031   0.23562   0.00000  Uiso   1.00
H171   H     0.46645   0.64199   0.45542   0.00000  Uiso   1.00
H172   H     0.39012   0.85713   0.34618   0.00000  Uiso   1.00
H173   H     0.90677   0.79210   0.11854   0.00000  Uiso   1.00
H174   H     0.47185   0.52154   0.58201   0.00000  Uiso   1.00
H175   H     0.31091   0.97520   0.35166   0.00000  Uiso   1.00
O176   O     0.24419   0.82915   0.06758   0.00000  Uiso   1.00
O177   O     0.67359   0.47420   0.67563   0.00000  Uiso   1.00
O178   O     0.46245   0.06939   0.37342   0.00000  Uiso   1.00
N179   N     0.23853   0.83325   0.16665   0.00000  Uiso   1.00
N180   N     0.83193   0.58030   0.59996   0.00000  Uiso   1.00
N181   N     0.68145   0.00442   0.38462   0.00000  Uiso   1.00
N182   N     0.99075   0.80314   0.14356   0.00000  Uiso   1.00
N183   N     0.58415   0.55018   0.57687   0.00000  Uiso   1.00
N184   N     0.43367   0.97431   0.36152   0.00000  Uiso   1.00
C185   C     0.13372   0.80438   0.81134   0.00000  Uiso   1.00
C186   C     0.15607   0.87093   0.81102   0.00000  Uiso   1.00
C187   C     0.29707   0.89669   0.82867   0.00000  Uiso   1.00
C188   C     0.29299   0.95838   0.82503   0.00000  Uiso   1.00
C189   C     0.34906   0.05647   0.82762   0.00000  Uiso   1.00
C190   C     0.10799   0.82132   0.74058   0.00000  Uiso   1.00
C191   C     0.20854   0.80535   0.69901   0.00000  Uiso   1.00
C192   C     0.16396   0.82527   0.63607   0.00000  Uiso   1.00
C193   C     0.14529   0.84628   0.52933   0.00000  Uiso   1.00
C194   C     0.96033   0.76460   0.85646   0.00000  Uiso   1.00
C195   C     0.93671   0.70093   0.91233   0.00000  Uiso   1.00
C196   C     0.76781   0.67308   0.94696   0.00000  Uiso   1.00
C197   C     0.51988   0.60603   0.02015   0.00000  Uiso   1.00
C198   C     0.87576   0.86814   0.77347   0.00000  Uiso   1.00
C199   C     0.01596   0.90557   0.79044   0.00000  Uiso   1.00
C200   C     0.01166   0.96724   0.78678   0.00000  Uiso   1.00
C201   C     0.15263   0.99308   0.80442   0.00000  Uiso   1.00
C202   C     0.96788   0.85595   0.72000   0.00000  Uiso   1.00
C203   C     0.92313   0.87589   0.65712   0.00000  Uiso   1.00
C204   C     0.02360   0.85996   0.61547   0.00000  Uiso   1.00
C205   C     0.82021   0.79923   0.83590   0.00000  Uiso   1.00
C206   C     0.65131   0.77148   0.87044   0.00000  Uiso   1.00
C207   C     0.62744   0.70778   0.92635   0.00000  Uiso   1.00
H208   H     0.24280   0.77742   0.82735   0.00000  Uiso   1.00
H209   H     0.40548   0.86987   0.84458   0.00000  Uiso   1.00
H210   H     0.31695   0.77854   0.71495   0.00000  Uiso   1.00
H211   H     0.04517   0.67414   0.92824   0.00000  Uiso   1.00
H212   H     0.52408   0.98767   0.85459   0.00000  Uiso   1.00
H213   H     0.33737   0.79506   0.58126   0.00000  Uiso   1.00
H214   H     0.76426   0.57491   0.03102   0.00000  Uiso   1.00
H215   H     0.76667   0.89511   0.75745   0.00000  Uiso   1.00
H216   H     0.90322   0.99403   0.77086   0.00000  Uiso   1.00
H217   H     0.81469   0.90269   0.64122   0.00000  Uiso   1.00
H218   H     0.54291   0.79829   0.85451   0.00000  Uiso   1.00
H219   H     0.11643   0.08843   0.79475   0.00000  Uiso   1.00
H220   H     0.92972   0.89582   0.52142   0.00000  Uiso   1.00
H221   H     0.35661   0.67568   0.97118   0.00000  Uiso   1.00
O222   O     0.41870   0.10101   0.83473   0.00000  Uiso   1.00
O223   O     0.17372   0.84830   0.47613   0.00000  Uiso   1.00
O224   O     0.42183   0.55948   0.06621   0.00000  Uiso   1.00
N225   N     0.40938   0.99780   0.83869   0.00000  Uiso   1.00
N226   N     0.23484   0.81773   0.58313   0.00000  Uiso   1.00
N227   N     0.69903   0.61191   0.00361   0.00000  Uiso   1.00
N228   N     0.19003   0.05202   0.80648   0.00000  Uiso   1.00
N229   N     0.01548   0.87196   0.55093   0.00000  Uiso   1.00
N230   N     0.47967   0.66613   0.97141   0.00000  Uiso   1.00
C231   C     0.32532   0.38283   0.80702   0.00000  Uiso   1.00
C232   C     0.28703   0.31682   0.87340   0.00000  Uiso   1.00
C233   C     0.40401   0.27287   0.90029   0.00000  Uiso   1.00
C234   C     0.34382   0.21514   0.96160   0.00000  Uiso   1.00
C235   C     0.31042   0.11468   0.05964   0.00000  Uiso   1.00
C236   C     0.28425   0.43691   0.82367   0.00000  Uiso   1.00
C237   C     0.39889   0.49394   0.80875   0.00000  Uiso   1.00
C238   C     0.33635   0.53731   0.82819   0.00000  Uiso   1.00
C239   C     0.29859   0.62332   0.84898   0.00000  Uiso   1.00
C240   C     0.18887   0.37806   0.76583   0.00000  Uiso   1.00
C241   C     0.22331   0.38561   0.70227   0.00000  Uiso   1.00
C242   C     0.08046   0.37944   0.67301   0.00000  Uiso   1.00
C243   C     0.89462   0.37407   0.60401   0.00000  Uiso   1.00
C244   C     0.01041   0.35847   0.86808   0.00000  Uiso   1.00
C245   C     0.11598   0.30359   0.90656   0.00000  Uiso   1.00
C246   C     0.05560   0.24592   0.96784   0.00000  Uiso   1.00
C247   C     0.17247   0.20189   0.99482   0.00000  Uiso   1.00
C248   C     0.11321   0.42369   0.85683   0.00000  Uiso   1.00
C249   C     0.05048   0.46699   0.87630   0.00000  Uiso   1.00
C250   C     0.16499   0.52406   0.86141   0.00000  Uiso   1.00
C251   C     0.01783   0.36482   0.79900   0.00000  Uiso   1.00
C252   C     0.87490   0.35865   0.76983   0.00000  Uiso   1.00
C253   C     0.90911   0.36619   0.70624   0.00000  Uiso   1.00
H254   H     0.45848   0.39313   0.78120   0.00000  Uiso   1.00
H255   H     0.53637   0.28313   0.87461   0.00000  Uiso   1.00
H256   H     0.53124   0.50416   0.78308   0.00000  Uiso   1.00
H257   H     0.35569   0.39584   0.67662   0.00000  Uiso   1.00
H258   H     0.54731   0.15535   0.99282   0.00000  Uiso   1.00
H259   H     0.53648   0.62142   0.79979   0.00000  Uiso   1.00
H260   H     0.16629   0.39302   0.57530   0.00000  Uiso   1.00
H261   H     0.87724   0.34817   0.89390   0.00000  Uiso   1.00
H262   H     0.92323   0.23570   0.99350   0.00000  Uiso   1.00
H263   H     0.91811   0.45674   0.90196   0.00000  Uiso   1.00
H264   H     0.74256   0.34842   0.79551   0.00000  Uiso   1.00
H265   H     0.04967   0.11685   0.08931   0.00000  Uiso   1.00
H266   H     0.03883   0.58293   0.89627   0.00000  Uiso   1.00
H267   H     0.66865   0.35452   0.67180   0.00000  Uiso   1.00
O268   O     0.33925   0.06293   0.10456   0.00000  Uiso   1.00
O269   O     0.32503   0.67442   0.85130   0.00000  Uiso   1.00
O270   O     0.83936   0.37475   0.55679   0.00000  Uiso   1.00
N271   N     0.42387   0.16172   0.00185   0.00000  Uiso   1.00
N272   N     0.41375   0.59747   0.82139   0.00000  Uiso   1.00
N273   N     0.06766   0.38394   0.61151   0.00000  Uiso   1.00
N274   N     0.15609   0.14100   0.05377   0.00000  Uiso   1.00
N275   N     0.14597   0.57675   0.87331   0.00000  Uiso   1.00
N276   N     0.79988   0.36323   0.66343   0.00000  Uiso   1.00
