data_job_06638
_audit_creation_date              2018-12-19
_audit_creation_method            'Materials Studio'
_symmetry_space_group_name_H-M    'P1'
_symmetry_Int_Tables_number       1
_symmetry_cell_setting            triclinic
loop_
_symmetry_equiv_pos_as_xyz
  x,y,z
_cell_length_a                    22.9882
_cell_length_b                    16.9125
_cell_length_c                    23.0807
_cell_angle_alpha                 80.8528
_cell_angle_beta                  74.3265
_cell_angle_gamma                 84.2622
loop_
_atom_site_label
_atom_site_type_symbol
_atom_site_fract_x
_atom_site_fract_y
_atom_site_fract_z
_atom_site_U_iso_or_equiv
_atom_site_adp_type
_atom_site_occupancy
C1     C     0.25769   0.94449   0.42641   0.00000  Uiso   1.00
C2     C     0.27103   0.86539   0.46389   0.00000  Uiso   1.00
C3     C     0.28708   0.85730   0.51844   0.00000  Uiso   1.00
C4     C     0.29743   0.77977   0.54567   0.00000  Uiso   1.00
C5     C     0.31902   0.66715   0.60788   0.00000  Uiso   1.00
C6     C     0.30075   0.94322   0.36336   0.00000  Uiso   1.00
C7     C     0.34178   0.00057   0.33338   0.00000  Uiso   1.00
C8     C     0.37714   0.98855   0.27598   0.00000  Uiso   1.00
C9     C     0.44484   0.99678   0.18209   0.00000  Uiso   1.00
C10    C     0.19431   0.94034   0.41864   0.00000  Uiso   1.00
C11    C     0.14584   0.99529   0.43513   0.00000  Uiso   1.00
C12    C     0.09158   0.98086   0.42426   0.00000  Uiso   1.00
C13    C     0.99401   0.98462   0.41620   0.00000  Uiso   1.00
C14    C     0.24751   0.82117   0.37778   0.00000  Uiso   1.00
C15    C     0.26551   0.79841   0.43748   0.00000  Uiso   1.00
C16    C     0.27583   0.72087   0.46464   0.00000  Uiso   1.00
C17    C     0.29189   0.71267   0.51922   0.00000  Uiso   1.00
C18    C     0.29523   0.87624   0.33695   0.00000  Uiso   1.00
C19    C     0.33053   0.86413   0.27958   0.00000  Uiso   1.00
C20    C     0.37160   0.92145   0.24952   0.00000  Uiso   1.00
C21    C     0.18878   0.87336   0.39223   0.00000  Uiso   1.00
C22    C     0.13458   0.85885   0.38133   0.00000  Uiso   1.00
C23    C     0.08604   0.91375   0.39780   0.00000  Uiso   1.00
H24    H     0.26199   0.99664   0.44697   0.00000  Uiso   1.00
H25    H     0.29136   0.90916   0.53886   0.00000  Uiso   1.00
H26    H     0.34604   0.05240   0.35383   0.00000  Uiso   1.00
H27    H     0.15013   0.04711   0.45556   0.00000  Uiso   1.00
H28    H     0.32151   0.78263   0.62908   0.00000  Uiso   1.00
H29    H     0.43679   0.08468   0.23892   0.00000  Uiso   1.00
H30    H     0.02368   0.07354   0.45345   0.00000  Uiso   1.00
H31    H     0.24321   0.76902   0.35721   0.00000  Uiso   1.00
H32    H     0.27155   0.66905   0.44419   0.00000  Uiso   1.00
H33    H     0.32624   0.81229   0.25915   0.00000  Uiso   1.00
H34    H     0.13033   0.80701   0.36089   0.00000  Uiso   1.00
H35    H     0.30543   0.58775   0.55224   0.00000  Uiso   1.00
H36    H     0.42072   0.88980   0.16208   0.00000  Uiso   1.00
H37    H     0.00760   0.87866   0.37661   0.00000  Uiso   1.00
O38    O     0.33247   0.62353   0.64948   0.00000  Uiso   1.00
O39    O     0.48371   0.01982   0.13760   0.00000  Uiso   1.00
O40    O     0.94172   0.00520   0.41906   0.00000  Uiso   1.00
N41    N     0.31382   0.75048   0.59907   0.00000  Uiso   1.00
N42    N     0.42162   0.03288   0.23429   0.00000  Uiso   1.00
N43    N     0.03539   0.02247   0.43485   0.00000  Uiso   1.00
N44    N     0.30517   0.64562   0.55772   0.00000  Uiso   1.00
N45    N     0.41297   0.92801   0.19295   0.00000  Uiso   1.00
N46    N     0.02674   0.91761   0.39350   0.00000  Uiso   1.00
C47    C     0.42217   0.22865   0.89209   0.00000  Uiso   1.00
C48    C     0.44518   0.21580   0.82561   0.00000  Uiso   1.00
C49    C     0.49964   0.24009   0.78649   0.00000  Uiso   1.00
C50    C     0.51242   0.22271   0.72738   0.00000  Uiso   1.00
C51    C     0.55426   0.20891   0.62708   0.00000  Uiso   1.00
C52    C     0.36044   0.27376   0.89814   0.00000  Uiso   1.00
C53    C     0.34366   0.34678   0.92000   0.00000  Uiso   1.00
C54    C     0.28511   0.37819   0.92195   0.00000  Uiso   1.00
C55    C     0.19538   0.45435   0.93429   0.00000  Uiso   1.00
C56    C     0.41006   0.14564   0.92825   0.00000  Uiso   1.00
C57    C     0.43499   0.11093   0.97544   0.00000  Uiso   1.00
C58    C     0.41821   0.03446   0.00275   0.00000  Uiso   1.00
C59    C     0.40553   0.91169   0.06184   0.00000  Uiso   1.00
C60    C     0.34801   0.15458   0.85669   0.00000  Uiso   1.00
C61    C     0.40489   0.17557   0.80639   0.00000  Uiso   1.00
C62    C     0.41760   0.15814   0.74733   0.00000  Uiso   1.00
C63    C     0.47207   0.18240   0.70812   0.00000  Uiso   1.00
C64    C     0.32016   0.23354   0.87891   0.00000  Uiso   1.00
C65    C     0.26162   0.26483   0.88084   0.00000  Uiso   1.00
C66    C     0.24476   0.33788   0.90269   0.00000  Uiso   1.00
C67    C     0.36979   0.10540   0.90902   0.00000  Uiso   1.00
C68    C     0.35295   0.02898   0.93627   0.00000  Uiso   1.00
C69    C     0.37786   0.99416   0.98349   0.00000  Uiso   1.00
H70    H     0.45352   0.25998   0.90706   0.00000  Uiso   1.00
H71    H     0.53080   0.27123   0.80139   0.00000  Uiso   1.00
H72    H     0.37484   0.37790   0.93488   0.00000  Uiso   1.00
H73    H     0.46616   0.14208   0.99030   0.00000  Uiso   1.00
H74    H     0.59870   0.26599   0.67574   0.00000  Uiso   1.00
H75    H     0.26985   0.49090   0.95724   0.00000  Uiso   1.00
H76    H     0.46241   0.99363   0.07412   0.00000  Uiso   1.00
H77    H     0.31665   0.12326   0.84172   0.00000  Uiso   1.00
H78    H     0.38642   0.12701   0.73246   0.00000  Uiso   1.00
H79    H     0.23046   0.23368   0.86596   0.00000  Uiso   1.00
H80    H     0.32178   0.99786   0.92138   0.00000  Uiso   1.00
H81    H     0.48152   0.14894   0.61980   0.00000  Uiso   1.00
H82    H     0.15267   0.37384   0.90130   0.00000  Uiso   1.00
H83    H     0.34523   0.87658   0.01818   0.00000  Uiso   1.00
O84    O     0.58846   0.21242   0.57707   0.00000  Uiso   1.00
O85    O     0.15702   0.50748   0.94640   0.00000  Uiso   1.00
O86    O     0.40967   0.85508   0.09974   0.00000  Uiso   1.00
N87    N     0.56155   0.23791   0.67757   0.00000  Uiso   1.00
N88    N     0.25410   0.44819   0.94075   0.00000  Uiso   1.00
N89    N     0.43412   0.98330   0.05003   0.00000  Uiso   1.00
N90    N     0.49850   0.17493   0.64747   0.00000  Uiso   1.00
N91    N     0.19104   0.38521   0.91065   0.00000  Uiso   1.00
N92    N     0.37106   0.92031   0.01993   0.00000  Uiso   1.00
C93    C     0.94376   0.45367   0.21729   0.00000  Uiso   1.00
C94    C     0.87645   0.47864   0.22903   0.00000  Uiso   1.00
C95    C     0.85047   0.55460   0.23898   0.00000  Uiso   1.00
C96    C     0.78806   0.56531   0.24886   0.00000  Uiso   1.00
C97    C     0.68888   0.61366   0.26714   0.00000  Uiso   1.00
C98    C     0.94924   0.38275   0.26577   0.00000  Uiso   1.00
C99    C     0.98447   0.37809   0.30660   0.00000  Uiso   1.00
C100   C     0.98333   0.30808   0.34740   0.00000  Uiso   1.00
C101   C     0.99719   0.20754   0.42267   0.00000  Uiso   1.00
C102   C     0.96130   0.42009   0.15698   0.00000  Uiso   1.00
C103   C     0.00668   0.44680   0.10634   0.00000  Uiso   1.00
C104   C     0.01572   0.40821   0.05555   0.00000  Uiso   1.00
C105   C     0.04830   0.36564   0.96191   0.00000  Uiso   1.00
C106   C     0.87912   0.33763   0.21714   0.00000  Uiso   1.00
C107   C     0.84134   0.41561   0.22895   0.00000  Uiso   1.00
C108   C     0.77895   0.42621   0.23882   0.00000  Uiso   1.00
C109   C     0.75288   0.50217   0.24878   0.00000  Uiso   1.00
C110   C     0.91413   0.31973   0.26569   0.00000  Uiso   1.00
C111   C     0.91294   0.24971   0.30643   0.00000  Uiso   1.00
C112   C     0.94816   0.24494   0.34732   0.00000  Uiso   1.00
C113   C     0.92619   0.35706   0.15690   0.00000  Uiso   1.00
C114   C     0.93516   0.31842   0.10618   0.00000  Uiso   1.00
C115   C     0.98054   0.34506   0.05547   0.00000  Uiso   1.00
H116   H     0.97110   0.50273   0.21735   0.00000  Uiso   1.00
H117   H     0.87766   0.60335   0.23904   0.00000  Uiso   1.00
H118   H     0.01164   0.42687   0.30664   0.00000  Uiso   1.00
H119   H     0.03384   0.49557   0.10642   0.00000  Uiso   1.00
H120   H     0.75857   0.68711   0.26308   0.00000  Uiso   1.00
H121   H     0.04109   0.31497   0.40560   0.00000  Uiso   1.00
H122   H     0.08793   0.45984   0.98338   0.00000  Uiso   1.00
H123   H     0.85178   0.28856   0.21708   0.00000  Uiso   1.00
H124   H     0.75179   0.37743   0.23876   0.00000  Uiso   1.00
H125   H     0.88577   0.20094   0.30636   0.00000  Uiso   1.00
H126   H     0.90798   0.26964   0.10613   0.00000  Uiso   1.00
H127   H     0.65641   0.50374   0.26285   0.00000  Uiso   1.00
H128   H     0.93894   0.13160   0.40537   0.00000  Uiso   1.00
H129   H     0.98577   0.27647   0.98315   0.00000  Uiso   1.00
O130   O     0.64387   0.65774   0.27725   0.00000  Uiso   1.00
O131   O     0.01453   0.16951   0.46422   0.00000  Uiso   1.00
O132   O     0.07597   0.35957   0.91029   0.00000  Uiso   1.00
N133   N     0.74825   0.63176   0.26004   0.00000  Uiso   1.00
N134   N     0.01239   0.28384   0.39330   0.00000  Uiso   1.00
N135   N     0.05618   0.41926   0.99856   0.00000  Uiso   1.00
N136   N     0.69328   0.53309   0.25991   0.00000  Uiso   1.00
N137   N     0.95741   0.18517   0.39317   0.00000  Uiso   1.00
N138   N     0.00121   0.32059   0.99844   0.00000  Uiso   1.00
C139   C     0.73790   0.94187   0.39999   0.00000  Uiso   1.00
C140   C     0.74557   0.95990   0.33156   0.00000  Uiso   1.00
C141   C     0.75878   0.03343   0.29611   0.00000  Uiso   1.00
C142   C     0.76398   0.03767   0.23437   0.00000  Uiso   1.00
C143   C     0.77709   0.07585   0.13197   0.00000  Uiso   1.00
C144   C     0.78308   0.87184   0.40960   0.00000  Uiso   1.00
C145   C     0.82782   0.87133   0.43977   0.00000  Uiso   1.00
C146   C     0.86460   0.80144   0.44372   0.00000  Uiso   1.00
C147   C     0.93592   0.70288   0.46252   0.00000  Uiso   1.00
C148   C     0.67529   0.90941   0.42686   0.00000  Uiso   1.00
C149   C     0.62940   0.94046   0.47155   0.00000  Uiso   1.00
C150   C     0.57542   0.90218   0.49004   0.00000  Uiso   1.00
C151   C     0.47937   0.86195   0.53562   0.00000  Uiso   1.00
C152   C     0.72364   0.81865   0.35338   0.00000  Uiso   1.00
C153   C     0.73782   0.89297   0.30625   0.00000  Uiso   1.00
C154   C     0.74300   0.89711   0.24454   0.00000  Uiso   1.00
C155   C     0.75621   0.97063   0.20900   0.00000  Uiso   1.00
C156   C     0.77534   0.80492   0.38429   0.00000  Uiso   1.00
C157   C     0.81204   0.73500   0.38820   0.00000  Uiso   1.00
C158   C     0.85684   0.73439   0.41836   0.00000  Uiso   1.00
C159   C     0.66754   0.84248   0.40154   0.00000  Uiso   1.00
C160   C     0.61362   0.80414   0.41997   0.00000  Uiso   1.00
C161   C     0.56766   0.83513   0.46468   0.00000  Uiso   1.00
H162   H     0.74393   0.99397   0.41970   0.00000  Uiso   1.00
H163   H     0.76478   0.08521   0.31572   0.00000  Uiso   1.00
H164   H     0.83380   0.92313   0.45936   0.00000  Uiso   1.00
H165   H     0.63541   0.99225   0.49113   0.00000  Uiso   1.00
H166   H     0.78449   0.15685   0.18927   0.00000  Uiso   1.00
H167   H     0.93003   0.81508   0.49216   0.00000  Uiso   1.00
H168   H     0.51167   0.96084   0.55915   0.00000  Uiso   1.00
H169   H     0.71761   0.76654   0.33367   0.00000  Uiso   1.00
H170   H     0.73700   0.84530   0.22496   0.00000  Uiso   1.00
H171   H     0.80603   0.68322   0.36860   0.00000  Uiso   1.00
H172   H     0.60764   0.75235   0.40037   0.00000  Uiso   1.00
H173   H     0.76195   0.96213   0.11561   0.00000  Uiso   1.00
H174   H     0.90749   0.62036   0.41850   0.00000  Uiso   1.00
H175   H     0.48913   0.76613   0.48549   0.00000  Uiso   1.00
O176   O     0.78647   0.11540   0.08248   0.00000  Uiso   1.00
O177   O     0.97741   0.66701   0.47987   0.00000  Uiso   1.00
O178   O     0.42854   0.85825   0.56775   0.00000  Uiso   1.00
N179   N     0.77651   0.10021   0.18685   0.00000  Uiso   1.00
N180   N     0.91259   0.78069   0.47003   0.00000  Uiso   1.00
N181   N     0.52147   0.91695   0.53267   0.00000  Uiso   1.00
N182   N     0.76438   0.99544   0.14722   0.00000  Uiso   1.00
N183   N     0.90046   0.67591   0.43039   0.00000  Uiso   1.00
N184   N     0.50934   0.81218   0.49303   0.00000  Uiso   1.00
C185   C     0.92985   0.39423   0.73130   0.00000  Uiso   1.00
C186   C     0.95114   0.30608   0.74199   0.00000  Uiso   1.00
C187   C     0.00649   0.27730   0.75274   0.00000  Uiso   1.00
C188   C     0.01739   0.19459   0.76143   0.00000  Uiso   1.00
C189   C     0.05697   0.06562   0.77837   0.00000  Uiso   1.00
C190   C     0.87014   0.40436   0.77909   0.00000  Uiso   1.00
C191   C     0.85738   0.45822   0.82103   0.00000  Uiso   1.00
C192   C     0.80009   0.45824   0.86094   0.00000  Uiso   1.00
C193   C     0.71390   0.48190   0.93545   0.00000  Uiso   1.00
C194   C     0.91409   0.40666   0.67028   0.00000  Uiso   1.00
C195   C     0.93827   0.46248   0.62073   0.00000  Uiso   1.00
C196   C     0.91796   0.46446   0.56904   0.00000  Uiso   1.00
C197   C     0.90000   0.49169   0.47460   0.00000  Uiso   1.00
C198   C     0.85078   0.29852   0.72760   0.00000  Uiso   1.00
C199   C     0.90819   0.25410   0.73999   0.00000  Uiso   1.00
C200   C     0.91901   0.17141   0.74865   0.00000  Uiso   1.00
C201   C     0.97436   0.14251   0.75942   0.00000  Uiso   1.00
C202   C     0.82719   0.35238   0.77708   0.00000  Uiso   1.00
C203   C     0.76990   0.35233   0.81694   0.00000  Uiso   1.00
C204   C     0.75706   0.40617   0.85893   0.00000  Uiso   1.00
C205   C     0.87114   0.35468   0.66827   0.00000  Uiso   1.00
C206   C     0.85078   0.35658   0.61664   0.00000  Uiso   1.00
C207   C     0.87493   0.41238   0.56703   0.00000  Uiso   1.00
H208   H     0.96329   0.43470   0.73286   0.00000  Uiso   1.00
H209   H     0.03972   0.31755   0.75430   0.00000  Uiso   1.00
H210   H     0.89063   0.49844   0.82257   0.00000  Uiso   1.00
H211   H     0.97150   0.50269   0.62230   0.00000  Uiso   1.00
H212   H     0.10550   0.16473   0.77720   0.00000  Uiso   1.00
H213   H     0.79114   0.54618   0.92113   0.00000  Uiso   1.00
H214   H     0.96167   0.55515   0.49884   0.00000  Uiso   1.00
H215   H     0.81734   0.25805   0.72604   0.00000  Uiso   1.00
H216   H     0.88576   0.13119   0.74710   0.00000  Uiso   1.00
H217   H     0.73667   0.31209   0.81537   0.00000  Uiso   1.00
H218   H     0.81755   0.31634   0.61511   0.00000  Uiso   1.00
H219   H     0.98054   0.01348   0.77136   0.00000  Uiso   1.00
H220   H     0.66618   0.39493   0.91529   0.00000  Uiso   1.00
H221   H     0.83672   0.40390   0.49300   0.00000  Uiso   1.00
O222   O     0.09066   0.00884   0.78828   0.00000  Uiso   1.00
O223   O     0.67822   0.50930   0.97710   0.00000  Uiso   1.00
O224   O     0.90196   0.52106   0.42307   0.00000  Uiso   1.00
N225   N     0.06671   0.14654   0.77293   0.00000  Uiso   1.00
N226   N     0.77280   0.50317   0.90750   0.00000  Uiso   1.00
N227   N     0.93222   0.51157   0.51270   0.00000  Uiso   1.00
N228   N     0.99947   0.06515   0.76978   0.00000  Uiso   1.00
N229   N     0.70556   0.42178   0.90436   0.00000  Uiso   1.00
N230   N     0.86499   0.43018   0.50955   0.00000  Uiso   1.00
C231   C     0.39803   0.73227   0.91193   0.00000  Uiso   1.00
C232   C     0.33131   0.71464   0.93520   0.00000  Uiso   1.00
C233   C     0.29234   0.73525   0.98871   0.00000  Uiso   1.00
C234   C     0.23296   0.71379   0.00194   0.00000  Uiso   1.00
C235   C     0.13233   0.69263   0.04397   0.00000  Uiso   1.00
C236   C     0.40539   0.77943   0.84858   0.00000  Uiso   1.00
C237   C     0.42873   0.85451   0.82926   0.00000  Uiso   1.00
C238   C     0.43172   0.88758   0.76956   0.00000  Uiso   1.00
C239   C     0.44616   0.96698   0.67710   0.00000  Uiso   1.00
C240   C     0.43259   0.65149   0.90290   0.00000  Uiso   1.00
C241   C     0.47881   0.61900   0.92923   0.00000  Uiso   1.00
C242   C     0.50470   0.54435   0.91524   0.00000  Uiso   1.00
C243   C     0.56137   0.42511   0.90712   0.00000  Uiso   1.00
C244   C     0.36185   0.65748   0.84026   0.00000  Uiso   1.00
C245   C     0.31165   0.67402   0.89627   0.00000  Uiso   1.00
C246   C     0.25231   0.65251   0.90942   0.00000  Uiso   1.00
C247   C     0.21327   0.67308   0.96294   0.00000  Uiso   1.00
C248   C     0.38574   0.73881   0.80965   0.00000  Uiso   1.00
C249   C     0.38870   0.77177   0.74996   0.00000  Uiso   1.00
C250   C     0.41203   0.84688   0.73056   0.00000  Uiso   1.00
C251   C     0.41294   0.61086   0.86397   0.00000  Uiso   1.00
C252   C     0.43877   0.53625   0.84993   0.00000  Uiso   1.00
C253   C     0.48501   0.50366   0.87624   0.00000  Uiso   1.00
H254   H     0.41333   0.76390   0.94224   0.00000  Uiso   1.00
H255   H     0.30757   0.76670   0.01883   0.00000  Uiso   1.00
H256   H     0.44394   0.88593   0.85939   0.00000  Uiso   1.00
H257   H     0.49400   0.65046   0.95935   0.00000  Uiso   1.00
H258   H     0.18164   0.75192   0.08656   0.00000  Uiso   1.00
H259   H     0.46921   0.00332   0.75038   0.00000  Uiso   1.00
H260   H     0.57478   0.50677   0.96116   0.00000  Uiso   1.00
H261   H     0.34654   0.62585   0.80995   0.00000  Uiso   1.00
H262   H     0.23711   0.62107   0.87928   0.00000  Uiso   1.00
H263   H     0.37349   0.74031   0.71985   0.00000  Uiso   1.00
H264   H     0.42355   0.50483   0.81981   0.00000  Uiso   1.00
H265   H     0.12445   0.63372   0.97330   0.00000  Uiso   1.00
H266   H     0.41202   0.88512   0.63712   0.00000  Uiso   1.00
H267   H     0.51759   0.38857   0.84790   0.00000  Uiso   1.00
O268   O     0.08226   0.69219   0.07791   0.00000  Uiso   1.00
O269   O     0.45955   0.02201   0.63686   0.00000  Uiso   1.00
O270   O     0.59805   0.37055   0.91340   0.00000  Uiso   1.00
N271   N     0.18320   0.72474   0.05039   0.00000  Uiso   1.00
N272   N     0.45205   0.95979   0.73609   0.00000  Uiso   1.00
N273   N     0.55076   0.49557   0.93314   0.00000  Uiso   1.00
N274   N     0.15243   0.66114   0.98945   0.00000  Uiso   1.00
N275   N     0.42128   0.89619   0.67515   0.00000  Uiso   1.00
N276   N     0.51999   0.43197   0.87220   0.00000  Uiso   1.00
C277   C     0.74231   0.05551   0.57359   0.00000  Uiso   1.00
C278   C     0.72897   0.13461   0.53611   0.00000  Uiso   1.00
C279   C     0.71292   0.14270   0.48156   0.00000  Uiso   1.00
C280   C     0.70257   0.22023   0.45433   0.00000  Uiso   1.00
C281   C     0.68098   0.33285   0.39212   0.00000  Uiso   1.00
C282   C     0.69925   0.05678   0.63664   0.00000  Uiso   1.00
C283   C     0.65822   0.99943   0.66662   0.00000  Uiso   1.00
C284   C     0.62286   0.01145   0.72402   0.00000  Uiso   1.00
C285   C     0.55516   0.00322   0.81791   0.00000  Uiso   1.00
C286   C     0.80569   0.05966   0.58136   0.00000  Uiso   1.00
C287   C     0.85416   0.00471   0.56487   0.00000  Uiso   1.00
C288   C     0.90842   0.01914   0.57574   0.00000  Uiso   1.00
C289   C     0.00599   0.01538   0.58380   0.00000  Uiso   1.00
C290   C     0.75249   0.17883   0.62222   0.00000  Uiso   1.00
C291   C     0.73449   0.20159   0.56252   0.00000  Uiso   1.00
C292   C     0.72417   0.27913   0.53536   0.00000  Uiso   1.00
C293   C     0.70811   0.28733   0.48078   0.00000  Uiso   1.00
C294   C     0.70477   0.12376   0.66305   0.00000  Uiso   1.00
C295   C     0.66947   0.13587   0.72042   0.00000  Uiso   1.00
C296   C     0.62840   0.07855   0.75048   0.00000  Uiso   1.00
C297   C     0.81122   0.12664   0.60777   0.00000  Uiso   1.00
C298   C     0.86542   0.14115   0.61867   0.00000  Uiso   1.00
C299   C     0.91396   0.08625   0.60220   0.00000  Uiso   1.00
H300   H     0.73801   0.00336   0.55303   0.00000  Uiso   1.00
H301   H     0.70864   0.09084   0.46114   0.00000  Uiso   1.00
H302   H     0.65396   0.94760   0.64617   0.00000  Uiso   1.00
H303   H     0.84987   0.95289   0.54444   0.00000  Uiso   1.00
H304   H     0.67849   0.21737   0.37092   0.00000  Uiso   1.00
H305   H     0.56321   0.91532   0.76108   0.00000  Uiso   1.00
H306   H     0.97632   0.92646   0.54655   0.00000  Uiso   1.00
H307   H     0.75679   0.23098   0.64279   0.00000  Uiso   1.00
H308   H     0.72845   0.33095   0.55581   0.00000  Uiso   1.00
H309   H     0.67376   0.18771   0.74085   0.00000  Uiso   1.00
H310   H     0.86967   0.19299   0.63911   0.00000  Uiso   1.00
H311   H     0.69457   0.41225   0.44776   0.00000  Uiso   1.00
H312   H     0.57928   0.11020   0.83792   0.00000  Uiso   1.00
H313   H     0.99240   0.12134   0.62339   0.00000  Uiso   1.00
O314   O     0.66753   0.37647   0.35052   0.00000  Uiso   1.00
O315   O     0.51629   0.98018   0.86240   0.00000  Uiso   1.00
O316   O     0.05828   0.99480   0.58094   0.00000  Uiso   1.00
N317   N     0.68618   0.24952   0.40093   0.00000  Uiso   1.00
N318   N     0.57838   0.96712   0.76571   0.00000  Uiso   1.00
N319   N     0.96461   0.97753   0.56515   0.00000  Uiso   1.00
N320   N     0.69483   0.35438   0.44228   0.00000  Uiso   1.00
N321   N     0.58703   0.07199   0.80705   0.00000  Uiso   1.00
N322   N     0.97326   0.08239   0.60650   0.00000  Uiso   1.00
C323   C     0.57783   0.77135   0.10791   0.00000  Uiso   1.00
C324   C     0.55482   0.78420   0.17439   0.00000  Uiso   1.00
C325   C     0.50036   0.75991   0.21351   0.00000  Uiso   1.00
C326   C     0.48758   0.77729   0.27262   0.00000  Uiso   1.00
C327   C     0.44574   0.79109   0.37292   0.00000  Uiso   1.00
C328   C     0.63956   0.72624   0.10186   0.00000  Uiso   1.00
C329   C     0.65634   0.65322   0.08000   0.00000  Uiso   1.00
C330   C     0.71489   0.62181   0.07805   0.00000  Uiso   1.00
C331   C     0.80462   0.54565   0.06571   0.00000  Uiso   1.00
C332   C     0.58994   0.85436   0.07175   0.00000  Uiso   1.00
C333   C     0.56501   0.88907   0.02456   0.00000  Uiso   1.00
C334   C     0.58179   0.96554   0.99725   0.00000  Uiso   1.00
C335   C     0.59447   0.08831   0.93816   0.00000  Uiso   1.00
C336   C     0.65199   0.84542   0.14331   0.00000  Uiso   1.00
C337   C     0.59511   0.82443   0.19361   0.00000  Uiso   1.00
C338   C     0.58240   0.84186   0.25267   0.00000  Uiso   1.00
C339   C     0.52793   0.81760   0.29188   0.00000  Uiso   1.00
C340   C     0.67984   0.76646   0.12109   0.00000  Uiso   1.00
C341   C     0.73838   0.73517   0.11916   0.00000  Uiso   1.00
C342   C     0.75524   0.66212   0.09731   0.00000  Uiso   1.00
C343   C     0.63021   0.89460   0.09098   0.00000  Uiso   1.00
C344   C     0.64705   0.97102   0.06373   0.00000  Uiso   1.00
C345   C     0.62214   0.00584   0.01651   0.00000  Uiso   1.00
H346   H     0.54648   0.74002   0.09294   0.00000  Uiso   1.00
H347   H     0.46920   0.72877   0.19861   0.00000  Uiso   1.00
H348   H     0.62516   0.62210   0.06512   0.00000  Uiso   1.00
H349   H     0.53384   0.85792   0.00970   0.00000  Uiso   1.00
H350   H     0.40130   0.73401   0.32426   0.00000  Uiso   1.00
H351   H     0.73015   0.50910   0.04276   0.00000  Uiso   1.00
H352   H     0.53759   0.00637   0.92588   0.00000  Uiso   1.00
H353   H     0.68335   0.87674   0.15828   0.00000  Uiso   1.00
H354   H     0.61358   0.87299   0.26754   0.00000  Uiso   1.00
H355   H     0.76954   0.76632   0.13404   0.00000  Uiso   1.00
H356   H     0.67822   0.00214   0.07862   0.00000  Uiso   1.00
H357   H     0.51848   0.85106   0.38020   0.00000  Uiso   1.00
H358   H     0.84733   0.62616   0.09870   0.00000  Uiso   1.00
H359   H     0.65477   0.12342   0.98182   0.00000  Uiso   1.00
O360   O     0.41154   0.78758   0.42293   0.00000  Uiso   1.00
O361   O     0.84298   0.49252   0.05360   0.00000  Uiso   1.00
O362   O     0.59033   0.14492   0.90026   0.00000  Uiso   1.00
N363   N     0.43845   0.76209   0.32243   0.00000  Uiso   1.00
N364   N     0.74590   0.55181   0.05925   0.00000  Uiso   1.00
N365   N     0.56588   0.01670   0.94997   0.00000  Uiso   1.00
N366   N     0.50150   0.82507   0.35253   0.00000  Uiso   1.00
N367   N     0.80896   0.61479   0.08935   0.00000  Uiso   1.00
N368   N     0.62894   0.07969   0.98007   0.00000  Uiso   1.00
C369   C     0.05624   0.54633   0.78271   0.00000  Uiso   1.00
C370   C     0.12355   0.52136   0.77097   0.00000  Uiso   1.00
C371   C     0.14953   0.44540   0.76102   0.00000  Uiso   1.00
C372   C     0.21194   0.43469   0.75114   0.00000  Uiso   1.00
C373   C     0.31112   0.38634   0.73286   0.00000  Uiso   1.00
C374   C     0.05076   0.61725   0.73423   0.00000  Uiso   1.00
C375   C     0.01553   0.62191   0.69340   0.00000  Uiso   1.00
C376   C     0.01667   0.69192   0.65260   0.00000  Uiso   1.00
C377   C     0.00281   0.79246   0.57733   0.00000  Uiso   1.00
C378   C     0.03870   0.57991   0.84302   0.00000  Uiso   1.00
C379   C     0.99332   0.55320   0.89366   0.00000  Uiso   1.00
C380   C     0.98428   0.59179   0.94445   0.00000  Uiso   1.00
C381   C     0.95170   0.63436   0.03809   0.00000  Uiso   1.00
C382   C     0.12088   0.66237   0.78286   0.00000  Uiso   1.00
C383   C     0.15866   0.58439   0.77105   0.00000  Uiso   1.00
C384   C     0.22105   0.57379   0.76118   0.00000  Uiso   1.00
C385   C     0.24712   0.49783   0.75122   0.00000  Uiso   1.00
C386   C     0.08587   0.68027   0.73431   0.00000  Uiso   1.00
C387   C     0.08706   0.75029   0.69357   0.00000  Uiso   1.00
C388   C     0.05184   0.75506   0.65268   0.00000  Uiso   1.00
C389   C     0.07381   0.64294   0.84310   0.00000  Uiso   1.00
C390   C     0.06484   0.68158   0.89382   0.00000  Uiso   1.00
C391   C     0.01946   0.65494   0.94453   0.00000  Uiso   1.00
H392   H     0.02890   0.49727   0.78265   0.00000  Uiso   1.00
H393   H     0.12234   0.39665   0.76096   0.00000  Uiso   1.00
H394   H     0.98836   0.57313   0.69336   0.00000  Uiso   1.00
H395   H     0.96616   0.50443   0.89358   0.00000  Uiso   1.00
H396   H     0.24143   0.31289   0.73692   0.00000  Uiso   1.00
H397   H     0.95891   0.68503   0.59440   0.00000  Uiso   1.00
H398   H     0.91207   0.54016   0.01662   0.00000  Uiso   1.00
H399   H     0.14822   0.71144   0.78292   0.00000  Uiso   1.00
H400   H     0.24821   0.62257   0.76124   0.00000  Uiso   1.00
H401   H     0.11423   0.79906   0.69364   0.00000  Uiso   1.00
H402   H     0.09202   0.73036   0.89387   0.00000  Uiso   1.00
H403   H     0.34359   0.49626   0.73715   0.00000  Uiso   1.00
H404   H     0.06106   0.86840   0.59463   0.00000  Uiso   1.00
H405   H     0.01423   0.72353   0.01685   0.00000  Uiso   1.00
O406   O     0.35613   0.34226   0.72275   0.00000  Uiso   1.00
O407   O     0.98547   0.83049   0.53578   0.00000  Uiso   1.00
O408   O     0.92403   0.64043   0.08971   0.00000  Uiso   1.00
N409   N     0.25175   0.36824   0.73996   0.00000  Uiso   1.00
N410   N     0.98761   0.71616   0.60670   0.00000  Uiso   1.00
N411   N     0.94382   0.58074   0.00144   0.00000  Uiso   1.00
N412   N     0.30672   0.46691   0.74009   0.00000  Uiso   1.00
N413   N     0.04259   0.81483   0.60683   0.00000  Uiso   1.00
N414   N     0.99879   0.67941   0.00156   0.00000  Uiso   1.00
C415   C     0.26210   0.05813   0.60001   0.00000  Uiso   1.00
C416   C     0.25443   0.04010   0.66844   0.00000  Uiso   1.00
C417   C     0.24122   0.96657   0.70389   0.00000  Uiso   1.00
C418   C     0.23602   0.96233   0.76563   0.00000  Uiso   1.00
C419   C     0.22291   0.92415   0.86803   0.00000  Uiso   1.00
C420   C     0.21692   0.12816   0.59040   0.00000  Uiso   1.00
C421   C     0.17218   0.12867   0.56023   0.00000  Uiso   1.00
C422   C     0.13540   0.19856   0.55628   0.00000  Uiso   1.00
C423   C     0.06408   0.29712   0.53748   0.00000  Uiso   1.00
C424   C     0.32471   0.09059   0.57314   0.00000  Uiso   1.00
C425   C     0.37060   0.05954   0.52845   0.00000  Uiso   1.00
C426   C     0.42458   0.09782   0.50996   0.00000  Uiso   1.00
C427   C     0.52063   0.13805   0.46438   0.00000  Uiso   1.00
C428   C     0.27636   0.18135   0.64662   0.00000  Uiso   1.00
C429   C     0.26218   0.10703   0.69375   0.00000  Uiso   1.00
C430   C     0.25700   0.10289   0.75546   0.00000  Uiso   1.00
C431   C     0.24379   0.02937   0.79100   0.00000  Uiso   1.00
C432   C     0.22466   0.19508   0.61571   0.00000  Uiso   1.00
C433   C     0.18796   0.26500   0.61180   0.00000  Uiso   1.00
C434   C     0.14316   0.26561   0.58164   0.00000  Uiso   1.00
C435   C     0.33246   0.15752   0.59846   0.00000  Uiso   1.00
C436   C     0.38638   0.19586   0.58003   0.00000  Uiso   1.00
C437   C     0.43234   0.16487   0.53532   0.00000  Uiso   1.00
H438   H     0.25607   0.00603   0.58030   0.00000  Uiso   1.00
H439   H     0.23522   0.91479   0.68428   0.00000  Uiso   1.00
H440   H     0.16620   0.07687   0.54064   0.00000  Uiso   1.00
H441   H     0.36459   0.00775   0.50887   0.00000  Uiso   1.00
H442   H     0.21551   0.84315   0.81073   0.00000  Uiso   1.00
H443   H     0.06997   0.18492   0.50784   0.00000  Uiso   1.00
H444   H     0.48833   0.03916   0.44085   0.00000  Uiso   1.00
H445   H     0.28239   0.23346   0.66633   0.00000  Uiso   1.00
H446   H     0.26300   0.15470   0.77504   0.00000  Uiso   1.00
H447   H     0.19397   0.31678   0.63140   0.00000  Uiso   1.00
H448   H     0.39236   0.24765   0.59963   0.00000  Uiso   1.00
H449   H     0.23805   0.03787   0.88439   0.00000  Uiso   1.00
H450   H     0.09251   0.37964   0.58150   0.00000  Uiso   1.00
H451   H     0.51087   0.23387   0.51451   0.00000  Uiso   1.00
O452   O     0.21353   0.88460   0.91752   0.00000  Uiso   1.00
O453   O     0.02259   0.33299   0.52013   0.00000  Uiso   1.00
O454   O     0.57146   0.14175   0.43225   0.00000  Uiso   1.00
N455   N     0.22349   0.89979   0.81315   0.00000  Uiso   1.00
N456   N     0.08741   0.21931   0.52997   0.00000  Uiso   1.00
N457   N     0.47853   0.08305   0.46733   0.00000  Uiso   1.00
N458   N     0.23562   0.00456   0.85278   0.00000  Uiso   1.00
N459   N     0.09954   0.32409   0.56961   0.00000  Uiso   1.00
N460   N     0.49066   0.18782   0.50697   0.00000  Uiso   1.00
C461   C     0.07015   0.60577   0.26870   0.00000  Uiso   1.00
C462   C     0.04886   0.69392   0.25801   0.00000  Uiso   1.00
C463   C     0.99351   0.72270   0.24726   0.00000  Uiso   1.00
C464   C     0.98261   0.80541   0.23857   0.00000  Uiso   1.00
C465   C     0.94303   0.93438   0.22163   0.00000  Uiso   1.00
C466   C     0.12986   0.59564   0.22091   0.00000  Uiso   1.00
C467   C     0.14262   0.54178   0.17897   0.00000  Uiso   1.00
C468   C     0.19991   0.54176   0.13906   0.00000  Uiso   1.00
C469   C     0.28610   0.51810   0.06455   0.00000  Uiso   1.00
C470   C     0.08591   0.59334   0.32972   0.00000  Uiso   1.00
C471   C     0.06173   0.53752   0.37927   0.00000  Uiso   1.00
C472   C     0.08204   0.53554   0.43096   0.00000  Uiso   1.00
C473   C     0.10000   0.50831   0.52540   0.00000  Uiso   1.00
C474   C     0.14922   0.70148   0.27240   0.00000  Uiso   1.00
C475   C     0.09181   0.74590   0.26001   0.00000  Uiso   1.00
C476   C     0.08099   0.82859   0.25135   0.00000  Uiso   1.00
C477   C     0.02564   0.85749   0.24058   0.00000  Uiso   1.00
C478   C     0.17281   0.64762   0.22292   0.00000  Uiso   1.00
C479   C     0.23010   0.64767   0.18306   0.00000  Uiso   1.00
C480   C     0.24294   0.59383   0.14107   0.00000  Uiso   1.00
C481   C     0.12886   0.64532   0.33173   0.00000  Uiso   1.00
C482   C     0.14922   0.64342   0.38336   0.00000  Uiso   1.00
C483   C     0.12507   0.58762   0.43297   0.00000  Uiso   1.00
H484   H     0.03671   0.56530   0.26714   0.00000  Uiso   1.00
H485   H     0.96028   0.68245   0.24570   0.00000  Uiso   1.00
H486   H     0.10937   0.50156   0.17743   0.00000  Uiso   1.00
H487   H     0.02850   0.49731   0.37770   0.00000  Uiso   1.00
H488   H     0.89450   0.83527   0.22280   0.00000  Uiso   1.00
H489   H     0.20886   0.45382   0.07887   0.00000  Uiso   1.00
H490   H     0.03833   0.44485   0.50116   0.00000  Uiso   1.00
H491   H     0.18266   0.74195   0.27396   0.00000  Uiso   1.00
H492   H     0.11424   0.86881   0.25290   0.00000  Uiso   1.00
H493   H     0.26333   0.68791   0.18463   0.00000  Uiso   1.00
H494   H     0.18245   0.68366   0.38489   0.00000  Uiso   1.00
H495   H     0.01946   0.98652   0.22864   0.00000  Uiso   1.00
H496   H     0.33382   0.60507   0.08471   0.00000  Uiso   1.00
H497   H     0.16328   0.59610   0.50700   0.00000  Uiso   1.00
O498   O     0.90934   0.99116   0.21172   0.00000  Uiso   1.00
O499   O     0.32178   0.49070   0.02290   0.00000  Uiso   1.00
O500   O     0.09804   0.47894   0.57693   0.00000  Uiso   1.00
N501   N     0.93329   0.85346   0.22707   0.00000  Uiso   1.00
N502   N     0.22720   0.49683   0.09250   0.00000  Uiso   1.00
N503   N     0.06778   0.48843   0.48730   0.00000  Uiso   1.00
N504   N     0.00053   0.93485   0.23022   0.00000  Uiso   1.00
N505   N     0.29444   0.57822   0.09564   0.00000  Uiso   1.00
N506   N     0.13501   0.56982   0.49045   0.00000  Uiso   1.00
C507   C     0.60197   0.26773   0.08807   0.00000  Uiso   1.00
C508   C     0.66869   0.28536   0.06480   0.00000  Uiso   1.00
C509   C     0.70766   0.26475   0.01129   0.00000  Uiso   1.00
C510   C     0.76704   0.28621   0.99806   0.00000  Uiso   1.00
C511   C     0.86767   0.30737   0.95603   0.00000  Uiso   1.00
C512   C     0.59461   0.22057   0.15142   0.00000  Uiso   1.00
C513   C     0.57127   0.14549   0.17074   0.00000  Uiso   1.00
C514   C     0.56828   0.11242   0.23044   0.00000  Uiso   1.00
C515   C     0.55384   0.03302   0.32290   0.00000  Uiso   1.00
C516   C     0.56741   0.34851   0.09710   0.00000  Uiso   1.00
C517   C     0.52119   0.38100   0.07077   0.00000  Uiso   1.00
C518   C     0.49530   0.45565   0.08476   0.00000  Uiso   1.00
C519   C     0.43863   0.57489   0.09288   0.00000  Uiso   1.00
C520   C     0.63815   0.34252   0.15974   0.00000  Uiso   1.00
C521   C     0.68835   0.32598   0.10373   0.00000  Uiso   1.00
C522   C     0.74769   0.34749   0.09058   0.00000  Uiso   1.00
C523   C     0.78673   0.32692   0.03706   0.00000  Uiso   1.00
C524   C     0.61426   0.26119   0.19035   0.00000  Uiso   1.00
C525   C     0.61130   0.22823   0.25004   0.00000  Uiso   1.00
C526   C     0.58797   0.15312   0.26944   0.00000  Uiso   1.00
C527   C     0.58706   0.38914   0.13603   0.00000  Uiso   1.00
C528   C     0.56123   0.46375   0.15007   0.00000  Uiso   1.00
C529   C     0.51499   0.49634   0.12376   0.00000  Uiso   1.00
H530   H     0.58667   0.23610   0.05776   0.00000  Uiso   1.00
H531   H     0.69243   0.23330   0.98117   0.00000  Uiso   1.00
H532   H     0.55606   0.11407   0.14061   0.00000  Uiso   1.00
H533   H     0.50600   0.34954   0.04065   0.00000  Uiso   1.00
H534   H     0.81836   0.24808   0.91344   0.00000  Uiso   1.00
H535   H     0.53079   0.99668   0.24962   0.00000  Uiso   1.00
H536   H     0.42522   0.49323   0.03884   0.00000  Uiso   1.00
H537   H     0.65346   0.37415   0.19005   0.00000  Uiso   1.00
H538   H     0.76289   0.37893   0.12072   0.00000  Uiso   1.00
H539   H     0.62651   0.25969   0.28015   0.00000  Uiso   1.00
H540   H     0.57645   0.49517   0.18019   0.00000  Uiso   1.00
H541   H     0.87555   0.36628   0.02670   0.00000  Uiso   1.00
H542   H     0.58798   0.11488   0.36288   0.00000  Uiso   1.00
H543   H     0.48241   0.61143   0.15210   0.00000  Uiso   1.00
O544   O     0.91774   0.30781   0.92209   0.00000  Uiso   1.00
O545   O     0.54045   0.97799   0.36314   0.00000  Uiso   1.00
O546   O     0.40195   0.62945   0.08660   0.00000  Uiso   1.00
N547   N     0.81680   0.27526   0.94961   0.00000  Uiso   1.00
N548   N     0.54795   0.04021   0.26391   0.00000  Uiso   1.00
N549   N     0.44924   0.50443   0.06686   0.00000  Uiso   1.00
N550   N     0.84757   0.33886   0.01055   0.00000  Uiso   1.00
N551   N     0.57872   0.10381   0.32485   0.00000  Uiso   1.00
N552   N     0.48001   0.56803   0.12780   0.00000  Uiso   1.00
