data_job_03354
_audit_creation_date              2018-12-19
_audit_creation_method            'Materials Studio'
_symmetry_space_group_name_H-M    'P1'
_symmetry_Int_Tables_number       1
_symmetry_cell_setting            triclinic
loop_
_symmetry_equiv_pos_as_xyz
  x,y,z
_cell_length_a                    9.7104
_cell_length_b                    17.5019
_cell_length_c                    16.4986
_cell_angle_alpha                 90.0000
_cell_angle_beta                  104.9480
_cell_angle_gamma                 90.0000
loop_
_atom_site_label
_atom_site_type_symbol
_atom_site_fract_x
_atom_site_fract_y
_atom_site_fract_z
_atom_site_U_iso_or_equiv
_atom_site_adp_type
_atom_site_occupancy
C1     C     0.00560   0.59897   0.29959   0.00000  Uiso   1.00
C2     C     0.95346   0.51751   0.30569   0.00000  Uiso   1.00
C3     C     0.84086   0.49628   0.33827   0.00000  Uiso   1.00
C4     C     0.80987   0.41884   0.33827   0.00000  Uiso   1.00
C5     C     0.71696   0.30059   0.35257   0.00000  Uiso   1.00
C6     C     0.16324   0.59916   0.34604   0.00000  Uiso   1.00
C7     C     0.22702   0.64659   0.41255   0.00000  Uiso   1.00
C8     C     0.37263   0.63789   0.44652   0.00000  Uiso   1.00
C9     C     0.60542   0.64645   0.52343   0.00000  Uiso   1.00
C10    C     0.99962   0.61186   0.20734   0.00000  Uiso   1.00
C11    C     0.92585   0.66998   0.15722   0.00000  Uiso   1.00
C12    C     0.93374   0.67198   0.07441   0.00000  Uiso   1.00
C13    C     0.91248   0.70025   0.93595   0.00000  Uiso   1.00
C14    C     0.15081   0.49918   0.24165   0.00000  Uiso   1.00
C15    C     0.03234   0.46331   0.27422   0.00000  Uiso   1.00
C16    C     0.00151   0.38588   0.27416   0.00000  Uiso   1.00
C17    C     0.88888   0.36454   0.30674   0.00000  Uiso   1.00
C18    C     0.24212   0.54496   0.31457   0.00000  Uiso   1.00
C19    C     0.38767   0.53619   0.34844   0.00000  Uiso   1.00
C20    C     0.45165   0.58359   0.41499   0.00000  Uiso   1.00
C21    C     0.07849   0.55766   0.17586   0.00000  Uiso   1.00
C22    C     0.08650   0.55957   0.09311   0.00000  Uiso   1.00
C23    C     0.01275   0.61768   0.04288   0.00000  Uiso   1.00
H24    H     0.94421   0.64117   0.32410   0.00000  Uiso   1.00
H25    H     0.77985   0.53824   0.36263   0.00000  Uiso   1.00
H26    H     0.16595   0.68853   0.43689   0.00000  Uiso   1.00
H27    H     0.86483   0.71191   0.18160   0.00000  Uiso   1.00
H28    H     0.63245   0.40023   0.39150   0.00000  Uiso   1.00
H29    H     0.44658   0.71714   0.54806   0.00000  Uiso   1.00
H30    H     0.81160   0.76644   0.00973   0.00000  Uiso   1.00
H31    H     0.21222   0.45699   0.21714   0.00000  Uiso   1.00
H32    H     0.06257   0.34395   0.24980   0.00000  Uiso   1.00
H33    H     0.44867   0.49424   0.32407   0.00000  Uiso   1.00
H34    H     0.14755   0.51762   0.06878   0.00000  Uiso   1.00
H35    H     0.86192   0.24253   0.29993   0.00000  Uiso   1.00
H36    H     0.67605   0.55945   0.45649   0.00000  Uiso   1.00
H37    H     0.04107   0.60875   0.91816   0.00000  Uiso   1.00
O38    O     0.64394   0.25034   0.36916   0.00000  Uiso   1.00
O39    O     0.71204   0.66614   0.57455   0.00000  Uiso   1.00
O40    O     0.87896   0.73081   0.86827   0.00000  Uiso   1.00
N41    N     0.70698   0.37863   0.36545   0.00000  Uiso   1.00
N42    N     0.46813   0.67492   0.51184   0.00000  Uiso   1.00
N43    N     0.87451   0.72102   0.00855   0.00000  Uiso   1.00
N44    N     0.83045   0.29377   0.31618   0.00000  Uiso   1.00
N45    N     0.59161   0.59006   0.46256   0.00000  Uiso   1.00
N46    N     0.99799   0.63617   0.95927   0.00000  Uiso   1.00
C47    C     0.99440   0.09897   0.20041   0.00000  Uiso   1.00
C48    C     0.04654   0.01751   0.19431   0.00000  Uiso   1.00
C49    C     0.15914   0.99628   0.16173   0.00000  Uiso   1.00
C50    C     0.19013   0.91884   0.16173   0.00000  Uiso   1.00
C51    C     0.28304   0.80059   0.14743   0.00000  Uiso   1.00
C52    C     0.83676   0.09916   0.15396   0.00000  Uiso   1.00
C53    C     0.77298   0.14659   0.08745   0.00000  Uiso   1.00
C54    C     0.62737   0.13789   0.05348   0.00000  Uiso   1.00
C55    C     0.39458   0.14645   0.97657   0.00000  Uiso   1.00
C56    C     0.00038   0.11186   0.29266   0.00000  Uiso   1.00
C57    C     0.07415   0.16998   0.34278   0.00000  Uiso   1.00
C58    C     0.06626   0.17198   0.42559   0.00000  Uiso   1.00
C59    C     0.08752   0.20025   0.56405   0.00000  Uiso   1.00
C60    C     0.84919   0.99918   0.25835   0.00000  Uiso   1.00
C61    C     0.96766   0.96331   0.22578   0.00000  Uiso   1.00
C62    C     0.99849   0.88588   0.22584   0.00000  Uiso   1.00
C63    C     0.11112   0.86454   0.19326   0.00000  Uiso   1.00
C64    C     0.75788   0.04496   0.18543   0.00000  Uiso   1.00
C65    C     0.61233   0.03619   0.15156   0.00000  Uiso   1.00
C66    C     0.54835   0.08359   0.08501   0.00000  Uiso   1.00
C67    C     0.92151   0.05766   0.32414   0.00000  Uiso   1.00
C68    C     0.91350   0.05957   0.40689   0.00000  Uiso   1.00
C69    C     0.98725   0.11768   0.45712   0.00000  Uiso   1.00
H70    H     0.05579   0.14117   0.17590   0.00000  Uiso   1.00
H71    H     0.22015   0.03824   0.13737   0.00000  Uiso   1.00
H72    H     0.83405   0.18853   0.06311   0.00000  Uiso   1.00
H73    H     0.13517   0.21191   0.31840   0.00000  Uiso   1.00
H74    H     0.36755   0.90023   0.10850   0.00000  Uiso   1.00
H75    H     0.55342   0.21714   0.95194   0.00000  Uiso   1.00
H76    H     0.18840   0.26644   0.49027   0.00000  Uiso   1.00
H77    H     0.78778   0.95699   0.28286   0.00000  Uiso   1.00
H78    H     0.93743   0.84395   0.25020   0.00000  Uiso   1.00
H79    H     0.55133   0.99424   0.17593   0.00000  Uiso   1.00
H80    H     0.85245   0.01762   0.43122   0.00000  Uiso   1.00
H81    H     0.13808   0.74253   0.20007   0.00000  Uiso   1.00
H82    H     0.32395   0.05945   0.04351   0.00000  Uiso   1.00
H83    H     0.95893   0.10875   0.58184   0.00000  Uiso   1.00
O84    O     0.35606   0.75034   0.13084   0.00000  Uiso   1.00
O85    O     0.28796   0.16614   0.92545   0.00000  Uiso   1.00
O86    O     0.12104   0.23081   0.63173   0.00000  Uiso   1.00
N87    N     0.29302   0.87863   0.13455   0.00000  Uiso   1.00
N88    N     0.53187   0.17492   0.98816   0.00000  Uiso   1.00
N89    N     0.12549   0.22102   0.49145   0.00000  Uiso   1.00
N90    N     0.16955   0.79377   0.18382   0.00000  Uiso   1.00
N91    N     0.40839   0.09006   0.03744   0.00000  Uiso   1.00
N92    N     0.00201   0.13617   0.54073   0.00000  Uiso   1.00
C93    C     0.99440   0.40103   0.70041   0.00000  Uiso   1.00
C94    C     0.04654   0.48249   0.69431   0.00000  Uiso   1.00
C95    C     0.15914   0.50372   0.66173   0.00000  Uiso   1.00
C96    C     0.19013   0.58116   0.66173   0.00000  Uiso   1.00
C97    C     0.28304   0.69941   0.64743   0.00000  Uiso   1.00
C98    C     0.83676   0.40084   0.65396   0.00000  Uiso   1.00
C99    C     0.77298   0.35341   0.58745   0.00000  Uiso   1.00
C100   C     0.62737   0.36211   0.55348   0.00000  Uiso   1.00
C101   C     0.39458   0.35355   0.47657   0.00000  Uiso   1.00
C102   C     0.00038   0.38814   0.79266   0.00000  Uiso   1.00
C103   C     0.07415   0.33002   0.84278   0.00000  Uiso   1.00
C104   C     0.06626   0.32802   0.92559   0.00000  Uiso   1.00
C105   C     0.08752   0.29975   0.06405   0.00000  Uiso   1.00
C106   C     0.84919   0.50082   0.75835   0.00000  Uiso   1.00
C107   C     0.96766   0.53669   0.72578   0.00000  Uiso   1.00
C108   C     0.99849   0.61412   0.72584   0.00000  Uiso   1.00
C109   C     0.11112   0.63546   0.69326   0.00000  Uiso   1.00
C110   C     0.75788   0.45504   0.68543   0.00000  Uiso   1.00
C111   C     0.61233   0.46381   0.65156   0.00000  Uiso   1.00
C112   C     0.54835   0.41641   0.58501   0.00000  Uiso   1.00
C113   C     0.92151   0.44234   0.82414   0.00000  Uiso   1.00
C114   C     0.91350   0.44043   0.90689   0.00000  Uiso   1.00
C115   C     0.98725   0.38232   0.95712   0.00000  Uiso   1.00
H116   H     0.05579   0.35883   0.67590   0.00000  Uiso   1.00
H117   H     0.22015   0.46176   0.63737   0.00000  Uiso   1.00
H118   H     0.83405   0.31147   0.56311   0.00000  Uiso   1.00
H119   H     0.13517   0.28809   0.81840   0.00000  Uiso   1.00
H120   H     0.36755   0.59977   0.60850   0.00000  Uiso   1.00
H121   H     0.55342   0.28286   0.45194   0.00000  Uiso   1.00
H122   H     0.18840   0.23356   0.99027   0.00000  Uiso   1.00
H123   H     0.78778   0.54301   0.78286   0.00000  Uiso   1.00
H124   H     0.93743   0.65605   0.75020   0.00000  Uiso   1.00
H125   H     0.55133   0.50576   0.67593   0.00000  Uiso   1.00
H126   H     0.85245   0.48238   0.93122   0.00000  Uiso   1.00
H127   H     0.13808   0.75747   0.70007   0.00000  Uiso   1.00
H128   H     0.32395   0.44055   0.54351   0.00000  Uiso   1.00
H129   H     0.95893   0.39125   0.08184   0.00000  Uiso   1.00
O130   O     0.35606   0.74966   0.63084   0.00000  Uiso   1.00
O131   O     0.28796   0.33386   0.42545   0.00000  Uiso   1.00
O132   O     0.12104   0.26919   0.13173   0.00000  Uiso   1.00
N133   N     0.29302   0.62137   0.63455   0.00000  Uiso   1.00
N134   N     0.53187   0.32508   0.48816   0.00000  Uiso   1.00
N135   N     0.12549   0.27898   0.99145   0.00000  Uiso   1.00
N136   N     0.16955   0.70623   0.68382   0.00000  Uiso   1.00
N137   N     0.40839   0.40994   0.53744   0.00000  Uiso   1.00
N138   N     0.00201   0.36383   0.04073   0.00000  Uiso   1.00
C139   C     0.00560   0.90103   0.79959   0.00000  Uiso   1.00
C140   C     0.95346   0.98249   0.80569   0.00000  Uiso   1.00
C141   C     0.84086   0.00372   0.83827   0.00000  Uiso   1.00
C142   C     0.80987   0.08116   0.83827   0.00000  Uiso   1.00
C143   C     0.71696   0.19941   0.85257   0.00000  Uiso   1.00
C144   C     0.16324   0.90084   0.84604   0.00000  Uiso   1.00
C145   C     0.22702   0.85341   0.91255   0.00000  Uiso   1.00
C146   C     0.37263   0.86211   0.94652   0.00000  Uiso   1.00
C147   C     0.60542   0.85355   0.02343   0.00000  Uiso   1.00
C148   C     0.99962   0.88814   0.70734   0.00000  Uiso   1.00
C149   C     0.92585   0.83002   0.65722   0.00000  Uiso   1.00
C150   C     0.93374   0.82802   0.57441   0.00000  Uiso   1.00
C151   C     0.91248   0.79975   0.43595   0.00000  Uiso   1.00
C152   C     0.15081   0.00082   0.74165   0.00000  Uiso   1.00
C153   C     0.03234   0.03669   0.77422   0.00000  Uiso   1.00
C154   C     0.00151   0.11412   0.77416   0.00000  Uiso   1.00
C155   C     0.88888   0.13546   0.80674   0.00000  Uiso   1.00
C156   C     0.24212   0.95504   0.81457   0.00000  Uiso   1.00
C157   C     0.38767   0.96381   0.84844   0.00000  Uiso   1.00
C158   C     0.45165   0.91641   0.91499   0.00000  Uiso   1.00
C159   C     0.07849   0.94234   0.67586   0.00000  Uiso   1.00
C160   C     0.08650   0.94043   0.59311   0.00000  Uiso   1.00
C161   C     0.01275   0.88232   0.54288   0.00000  Uiso   1.00
H162   H     0.94421   0.85883   0.82410   0.00000  Uiso   1.00
H163   H     0.77985   0.96176   0.86263   0.00000  Uiso   1.00
H164   H     0.16595   0.81147   0.93689   0.00000  Uiso   1.00
H165   H     0.86483   0.78809   0.68160   0.00000  Uiso   1.00
H166   H     0.63245   0.09977   0.89150   0.00000  Uiso   1.00
H167   H     0.44658   0.78286   0.04806   0.00000  Uiso   1.00
H168   H     0.81160   0.73356   0.50973   0.00000  Uiso   1.00
H169   H     0.21222   0.04301   0.71714   0.00000  Uiso   1.00
H170   H     0.06257   0.15605   0.74980   0.00000  Uiso   1.00
H171   H     0.44867   0.00576   0.82407   0.00000  Uiso   1.00
H172   H     0.14755   0.98238   0.56878   0.00000  Uiso   1.00
H173   H     0.86192   0.25747   0.79993   0.00000  Uiso   1.00
H174   H     0.67605   0.94055   0.95649   0.00000  Uiso   1.00
H175   H     0.04107   0.89125   0.41816   0.00000  Uiso   1.00
O176   O     0.64394   0.24966   0.86916   0.00000  Uiso   1.00
O177   O     0.71204   0.83386   0.07455   0.00000  Uiso   1.00
O178   O     0.87896   0.76919   0.36827   0.00000  Uiso   1.00
N179   N     0.70698   0.12137   0.86545   0.00000  Uiso   1.00
N180   N     0.46813   0.82508   0.01184   0.00000  Uiso   1.00
N181   N     0.87451   0.77898   0.50855   0.00000  Uiso   1.00
N182   N     0.83045   0.20623   0.81618   0.00000  Uiso   1.00
N183   N     0.59161   0.90994   0.96256   0.00000  Uiso   1.00
N184   N     0.99799   0.86383   0.45927   0.00000  Uiso   1.00
