data_job_02230
_audit_creation_date              2018-12-19
_audit_creation_method            'Materials Studio'
_symmetry_space_group_name_H-M    'P1'
_symmetry_Int_Tables_number       1
_symmetry_cell_setting            triclinic
loop_
_symmetry_equiv_pos_as_xyz
  x,y,z
_cell_length_a                    11.0883
_cell_length_b                    11.0883
_cell_length_c                    37.0980
_cell_angle_alpha                 90.0000
_cell_angle_beta                  90.0000
_cell_angle_gamma                 90.0000
loop_
_atom_site_label
_atom_site_type_symbol
_atom_site_fract_x
_atom_site_fract_y
_atom_site_fract_z
_atom_site_U_iso_or_equiv
_atom_site_adp_type
_atom_site_occupancy
C1     C     0.43181   0.88462   0.06613   0.00000  Uiso   1.00
C2     C     0.53772   0.93651   0.08727   0.00000  Uiso   1.00
C3     C     0.58258   0.89162   0.11951   0.00000  Uiso   1.00
C4     C     0.68001   0.95192   0.13461   0.00000  Uiso   1.00
C5     C     0.83672   0.01710   0.16997   0.00000  Uiso   1.00
C6     C     0.34182   0.98758   0.06175   0.00000  Uiso   1.00
C7     C     0.22198   0.98561   0.07252   0.00000  Uiso   1.00
C8     C     0.15451   0.08890   0.06612   0.00000  Uiso   1.00
C9     C     0.00706   0.23332   0.06183   0.00000  Uiso   1.00
C10    C     0.47978   0.85785   0.02845   0.00000  Uiso   1.00
C11    C     0.47590   0.74682   0.01122   0.00000  Uiso   1.00
C12    C     0.52455   0.74089   0.97678   0.00000  Uiso   1.00
C13    C     0.59131   0.68389   0.92079   0.00000  Uiso   1.00
C14    C     0.52506   0.07153   0.03560   0.00000  Uiso   1.00
C15    C     0.58836   0.03804   0.07069   0.00000  Uiso   1.00
C16    C     0.68576   0.09842   0.08573   0.00000  Uiso   1.00
C17    C     0.73076   0.05362   0.11799   0.00000  Uiso   1.00
C18    C     0.39247   0.08910   0.04516   0.00000  Uiso   1.00
C19    C     0.32516   0.19241   0.03874   0.00000  Uiso   1.00
C20    C     0.20525   0.19060   0.04951   0.00000  Uiso   1.00
C21    C     0.53043   0.95937   0.01186   0.00000  Uiso   1.00
C22    C     0.57909   0.95362   0.97744   0.00000  Uiso   1.00
C23    C     0.57529   0.84260   0.96016   0.00000  Uiso   1.00
H24    H     0.39237   0.80558   0.07904   0.00000  Uiso   1.00
H25    H     0.54335   0.81306   0.13234   0.00000  Uiso   1.00
H26    H     0.18281   0.90703   0.08535   0.00000  Uiso   1.00
H27    H     0.43670   0.66828   0.02406   0.00000  Uiso   1.00
H28    H     0.73305   0.86615   0.18413   0.00000  Uiso   1.00
H29    H     0.97282   0.06428   0.08504   0.00000  Uiso   1.00
H30    H     0.50819   0.56082   0.95579   0.00000  Uiso   1.00
H31    H     0.56449   0.15057   0.02268   0.00000  Uiso   1.00
H32    H     0.72493   0.17698   0.07289   0.00000  Uiso   1.00
H33    H     0.36438   0.27095   0.02590   0.00000  Uiso   1.00
H34    H     0.61828   0.03220   0.96461   0.00000  Uiso   1.00
H35    H     0.88043   0.16153   0.13588   0.00000  Uiso   1.00
H36    H     0.12018   0.35965   0.03679   0.00000  Uiso   1.00
H37    H     0.65557   0.85619   0.90754   0.00000  Uiso   1.00
O38    O     0.90915   0.02501   0.19406   0.00000  Uiso   1.00
O39    O     0.91174   0.28494   0.06405   0.00000  Uiso   1.00
O40    O     0.61415   0.62441   0.89448   0.00000  Uiso   1.00
N41    N     0.74574   0.93203   0.16588   0.00000  Uiso   1.00
N42    N     0.03496   0.11728   0.07324   0.00000  Uiso   1.00
N43    N     0.53547   0.64659   0.95240   0.00000  Uiso   1.00
N44    N     0.82504   0.09097   0.13992   0.00000  Uiso   1.00
N45    N     0.11426   0.27621   0.04728   0.00000  Uiso   1.00
N46    N     0.61477   0.80552   0.92644   0.00000  Uiso   1.00
C47    C     0.56819   0.11538   0.56613   0.00000  Uiso   1.00
C48    C     0.46228   0.06349   0.58727   0.00000  Uiso   1.00
C49    C     0.41742   0.10838   0.61951   0.00000  Uiso   1.00
C50    C     0.31999   0.04808   0.63461   0.00000  Uiso   1.00
C51    C     0.16328   0.98290   0.66997   0.00000  Uiso   1.00
C52    C     0.65818   0.01242   0.56175   0.00000  Uiso   1.00
C53    C     0.77802   0.01439   0.57252   0.00000  Uiso   1.00
C54    C     0.84549   0.91110   0.56612   0.00000  Uiso   1.00
C55    C     0.99294   0.76668   0.56183   0.00000  Uiso   1.00
C56    C     0.52022   0.14215   0.52845   0.00000  Uiso   1.00
C57    C     0.52410   0.25318   0.51122   0.00000  Uiso   1.00
C58    C     0.47545   0.25911   0.47678   0.00000  Uiso   1.00
C59    C     0.40869   0.31611   0.42079   0.00000  Uiso   1.00
C60    C     0.47494   0.92847   0.53560   0.00000  Uiso   1.00
C61    C     0.41164   0.96196   0.57069   0.00000  Uiso   1.00
C62    C     0.31424   0.90158   0.58573   0.00000  Uiso   1.00
C63    C     0.26924   0.94638   0.61799   0.00000  Uiso   1.00
C64    C     0.60753   0.91090   0.54516   0.00000  Uiso   1.00
C65    C     0.67484   0.80759   0.53874   0.00000  Uiso   1.00
C66    C     0.79475   0.80940   0.54951   0.00000  Uiso   1.00
C67    C     0.46957   0.04063   0.51186   0.00000  Uiso   1.00
C68    C     0.42091   0.04638   0.47744   0.00000  Uiso   1.00
C69    C     0.42471   0.15740   0.46016   0.00000  Uiso   1.00
H70    H     0.60763   0.19442   0.57904   0.00000  Uiso   1.00
H71    H     0.45665   0.18694   0.63234   0.00000  Uiso   1.00
H72    H     0.81719   0.09297   0.58535   0.00000  Uiso   1.00
H73    H     0.56330   0.33172   0.52406   0.00000  Uiso   1.00
H74    H     0.26695   0.13385   0.68413   0.00000  Uiso   1.00
H75    H     0.02718   0.93572   0.58504   0.00000  Uiso   1.00
H76    H     0.49181   0.43918   0.45579   0.00000  Uiso   1.00
H77    H     0.43551   0.84943   0.52268   0.00000  Uiso   1.00
H78    H     0.27507   0.82302   0.57289   0.00000  Uiso   1.00
H79    H     0.63562   0.72905   0.52590   0.00000  Uiso   1.00
H80    H     0.38172   0.96780   0.46461   0.00000  Uiso   1.00
H81    H     0.11957   0.83847   0.63588   0.00000  Uiso   1.00
H82    H     0.87982   0.64035   0.53679   0.00000  Uiso   1.00
H83    H     0.34443   0.14381   0.40754   0.00000  Uiso   1.00
O84    O     0.09085   0.97499   0.69406   0.00000  Uiso   1.00
O85    O     0.08826   0.71506   0.56405   0.00000  Uiso   1.00
O86    O     0.38585   0.37559   0.39448   0.00000  Uiso   1.00
N87    N     0.25426   0.06797   0.66588   0.00000  Uiso   1.00
N88    N     0.96504   0.88272   0.57324   0.00000  Uiso   1.00
N89    N     0.46453   0.35341   0.45240   0.00000  Uiso   1.00
N90    N     0.17496   0.90903   0.63992   0.00000  Uiso   1.00
N91    N     0.88574   0.72379   0.54728   0.00000  Uiso   1.00
N92    N     0.38523   0.19448   0.42644   0.00000  Uiso   1.00
C93    C     0.61538   0.93181   0.81613   0.00000  Uiso   1.00
C94    C     0.56349   0.03772   0.83727   0.00000  Uiso   1.00
C95    C     0.60838   0.08258   0.86951   0.00000  Uiso   1.00
C96    C     0.54808   0.18001   0.88461   0.00000  Uiso   1.00
C97    C     0.48290   0.33672   0.91997   0.00000  Uiso   1.00
C98    C     0.51242   0.84182   0.81175   0.00000  Uiso   1.00
C99    C     0.51439   0.72198   0.82252   0.00000  Uiso   1.00
C100   C     0.41110   0.65451   0.81612   0.00000  Uiso   1.00
C101   C     0.26668   0.50706   0.81183   0.00000  Uiso   1.00
C102   C     0.64215   0.97978   0.77845   0.00000  Uiso   1.00
C103   C     0.75318   0.97590   0.76122   0.00000  Uiso   1.00
C104   C     0.75911   0.02455   0.72678   0.00000  Uiso   1.00
C105   C     0.81611   0.09131   0.67079   0.00000  Uiso   1.00
C106   C     0.42847   0.02506   0.78560   0.00000  Uiso   1.00
C107   C     0.46196   0.08836   0.82069   0.00000  Uiso   1.00
C108   C     0.40158   0.18576   0.83573   0.00000  Uiso   1.00
C109   C     0.44638   0.23076   0.86799   0.00000  Uiso   1.00
C110   C     0.41090   0.89247   0.79516   0.00000  Uiso   1.00
C111   C     0.30759   0.82516   0.78874   0.00000  Uiso   1.00
C112   C     0.30940   0.70525   0.79951   0.00000  Uiso   1.00
C113   C     0.54063   0.03043   0.76186   0.00000  Uiso   1.00
C114   C     0.54638   0.07909   0.72744   0.00000  Uiso   1.00
C115   C     0.65740   0.07529   0.71016   0.00000  Uiso   1.00
H116   H     0.69442   0.89237   0.82904   0.00000  Uiso   1.00
H117   H     0.68694   0.04335   0.88234   0.00000  Uiso   1.00
H118   H     0.59297   0.68281   0.83535   0.00000  Uiso   1.00
H119   H     0.83172   0.93670   0.77406   0.00000  Uiso   1.00
H120   H     0.63385   0.23305   0.93413   0.00000  Uiso   1.00
H121   H     0.43572   0.47282   0.83504   0.00000  Uiso   1.00
H122   H     0.93918   0.00819   0.70579   0.00000  Uiso   1.00
H123   H     0.34943   0.06449   0.77268   0.00000  Uiso   1.00
H124   H     0.32302   0.22493   0.82289   0.00000  Uiso   1.00
H125   H     0.22905   0.86438   0.77590   0.00000  Uiso   1.00
H126   H     0.46780   0.11828   0.71461   0.00000  Uiso   1.00
H127   H     0.33847   0.38043   0.88588   0.00000  Uiso   1.00
H128   H     0.14035   0.62018   0.78679   0.00000  Uiso   1.00
H129   H     0.64381   0.15557   0.65754   0.00000  Uiso   1.00
O130   O     0.47499   0.40915   0.94406   0.00000  Uiso   1.00
O131   O     0.21506   0.41174   0.81405   0.00000  Uiso   1.00
O132   O     0.87559   0.11415   0.64448   0.00000  Uiso   1.00
N133   N     0.56797   0.24574   0.91588   0.00000  Uiso   1.00
N134   N     0.38272   0.53496   0.82324   0.00000  Uiso   1.00
N135   N     0.85341   0.03547   0.70240   0.00000  Uiso   1.00
N136   N     0.40903   0.32504   0.88992   0.00000  Uiso   1.00
N137   N     0.22379   0.61426   0.79728   0.00000  Uiso   1.00
N138   N     0.69448   0.11477   0.67644   0.00000  Uiso   1.00
C139   C     0.38462   0.06819   0.31613   0.00000  Uiso   1.00
C140   C     0.43651   0.96228   0.33727   0.00000  Uiso   1.00
C141   C     0.39162   0.91742   0.36951   0.00000  Uiso   1.00
C142   C     0.45192   0.81999   0.38461   0.00000  Uiso   1.00
C143   C     0.51710   0.66328   0.41997   0.00000  Uiso   1.00
C144   C     0.48758   0.15818   0.31175   0.00000  Uiso   1.00
C145   C     0.48561   0.27802   0.32252   0.00000  Uiso   1.00
C146   C     0.58890   0.34549   0.31612   0.00000  Uiso   1.00
C147   C     0.73332   0.49294   0.31183   0.00000  Uiso   1.00
C148   C     0.35785   0.02022   0.27845   0.00000  Uiso   1.00
C149   C     0.24682   0.02410   0.26122   0.00000  Uiso   1.00
C150   C     0.24089   0.97545   0.22678   0.00000  Uiso   1.00
C151   C     0.18389   0.90869   0.17079   0.00000  Uiso   1.00
C152   C     0.57153   0.97494   0.28560   0.00000  Uiso   1.00
C153   C     0.53804   0.91164   0.32069   0.00000  Uiso   1.00
C154   C     0.59842   0.81424   0.33573   0.00000  Uiso   1.00
C155   C     0.55362   0.76924   0.36799   0.00000  Uiso   1.00
C156   C     0.58910   0.10753   0.29516   0.00000  Uiso   1.00
C157   C     0.69241   0.17484   0.28874   0.00000  Uiso   1.00
C158   C     0.69060   0.29475   0.29951   0.00000  Uiso   1.00
C159   C     0.45937   0.96957   0.26186   0.00000  Uiso   1.00
C160   C     0.45362   0.92091   0.22744   0.00000  Uiso   1.00
C161   C     0.34260   0.92471   0.21016   0.00000  Uiso   1.00
H162   H     0.30558   0.10763   0.32904   0.00000  Uiso   1.00
H163   H     0.31306   0.95665   0.38234   0.00000  Uiso   1.00
H164   H     0.40703   0.31719   0.33535   0.00000  Uiso   1.00
H165   H     0.16828   0.06330   0.27406   0.00000  Uiso   1.00
H166   H     0.36615   0.76695   0.43413   0.00000  Uiso   1.00
H167   H     0.56428   0.52718   0.33504   0.00000  Uiso   1.00
H168   H     0.06082   0.99181   0.20579   0.00000  Uiso   1.00
H169   H     0.65057   0.93551   0.27268   0.00000  Uiso   1.00
H170   H     0.67698   0.77507   0.32289   0.00000  Uiso   1.00
H171   H     0.77095   0.13562   0.27590   0.00000  Uiso   1.00
H172   H     0.53220   0.88172   0.21461   0.00000  Uiso   1.00
H173   H     0.66153   0.61957   0.38588   0.00000  Uiso   1.00
H174   H     0.85965   0.37982   0.28679   0.00000  Uiso   1.00
H175   H     0.35619   0.84443   0.15754   0.00000  Uiso   1.00
O176   O     0.52501   0.59085   0.44406   0.00000  Uiso   1.00
O177   O     0.78494   0.58826   0.31405   0.00000  Uiso   1.00
O178   O     0.12441   0.88585   0.14448   0.00000  Uiso   1.00
N179   N     0.43203   0.75426   0.41588   0.00000  Uiso   1.00
N180   N     0.61728   0.46504   0.32324   0.00000  Uiso   1.00
N181   N     0.14659   0.96453   0.20240   0.00000  Uiso   1.00
N182   N     0.59097   0.67496   0.38992   0.00000  Uiso   1.00
N183   N     0.77621   0.38574   0.29728   0.00000  Uiso   1.00
N184   N     0.30552   0.88523   0.17644   0.00000  Uiso   1.00
C185   C     0.06819   0.38462   0.68387   0.00000  Uiso   1.00
C186   C     0.96228   0.43651   0.66273   0.00000  Uiso   1.00
C187   C     0.91742   0.39162   0.63049   0.00000  Uiso   1.00
C188   C     0.81999   0.45192   0.61539   0.00000  Uiso   1.00
C189   C     0.66328   0.51710   0.58003   0.00000  Uiso   1.00
C190   C     0.15818   0.48758   0.68825   0.00000  Uiso   1.00
C191   C     0.27802   0.48561   0.67748   0.00000  Uiso   1.00
C192   C     0.34549   0.58890   0.68388   0.00000  Uiso   1.00
C193   C     0.49294   0.73332   0.68817   0.00000  Uiso   1.00
C194   C     0.02022   0.35785   0.72155   0.00000  Uiso   1.00
C195   C     0.02410   0.24682   0.73878   0.00000  Uiso   1.00
C196   C     0.97545   0.24089   0.77322   0.00000  Uiso   1.00
C197   C     0.90869   0.18389   0.82921   0.00000  Uiso   1.00
C198   C     0.97494   0.57153   0.71440   0.00000  Uiso   1.00
C199   C     0.91164   0.53804   0.67931   0.00000  Uiso   1.00
C200   C     0.81424   0.59842   0.66427   0.00000  Uiso   1.00
C201   C     0.76924   0.55362   0.63201   0.00000  Uiso   1.00
C202   C     0.10753   0.58910   0.70484   0.00000  Uiso   1.00
C203   C     0.17484   0.69241   0.71126   0.00000  Uiso   1.00
C204   C     0.29475   0.69060   0.70049   0.00000  Uiso   1.00
C205   C     0.96957   0.45937   0.73814   0.00000  Uiso   1.00
C206   C     0.92091   0.45362   0.77256   0.00000  Uiso   1.00
C207   C     0.92471   0.34260   0.78984   0.00000  Uiso   1.00
H208   H     0.10763   0.30558   0.67096   0.00000  Uiso   1.00
H209   H     0.95665   0.31306   0.61766   0.00000  Uiso   1.00
H210   H     0.31719   0.40703   0.66465   0.00000  Uiso   1.00
H211   H     0.06330   0.16828   0.72594   0.00000  Uiso   1.00
H212   H     0.76695   0.36615   0.56587   0.00000  Uiso   1.00
H213   H     0.52718   0.56428   0.66496   0.00000  Uiso   1.00
H214   H     0.99181   0.06082   0.79421   0.00000  Uiso   1.00
H215   H     0.93551   0.65057   0.72732   0.00000  Uiso   1.00
H216   H     0.77507   0.67698   0.67711   0.00000  Uiso   1.00
H217   H     0.13562   0.77095   0.72410   0.00000  Uiso   1.00
H218   H     0.88172   0.53220   0.78539   0.00000  Uiso   1.00
H219   H     0.61957   0.66153   0.61412   0.00000  Uiso   1.00
H220   H     0.37982   0.85965   0.71321   0.00000  Uiso   1.00
H221   H     0.84443   0.35619   0.84246   0.00000  Uiso   1.00
O222   O     0.59085   0.52501   0.55594   0.00000  Uiso   1.00
O223   O     0.58826   0.78494   0.68595   0.00000  Uiso   1.00
O224   O     0.88585   0.12441   0.85552   0.00000  Uiso   1.00
N225   N     0.75426   0.43203   0.58412   0.00000  Uiso   1.00
N226   N     0.46504   0.61728   0.67676   0.00000  Uiso   1.00
N227   N     0.96453   0.14659   0.79760   0.00000  Uiso   1.00
N228   N     0.67496   0.59097   0.61008   0.00000  Uiso   1.00
N229   N     0.38574   0.77621   0.70272   0.00000  Uiso   1.00
N230   N     0.88523   0.30552   0.82356   0.00000  Uiso   1.00
C231   C     0.93181   0.61538   0.18387   0.00000  Uiso   1.00
C232   C     0.03772   0.56349   0.16273   0.00000  Uiso   1.00
C233   C     0.08258   0.60838   0.13049   0.00000  Uiso   1.00
C234   C     0.18001   0.54808   0.11539   0.00000  Uiso   1.00
C235   C     0.33672   0.48290   0.08003   0.00000  Uiso   1.00
C236   C     0.84182   0.51242   0.18825   0.00000  Uiso   1.00
C237   C     0.72198   0.51439   0.17748   0.00000  Uiso   1.00
C238   C     0.65451   0.41110   0.18388   0.00000  Uiso   1.00
C239   C     0.50706   0.26668   0.18817   0.00000  Uiso   1.00
C240   C     0.97978   0.64215   0.22155   0.00000  Uiso   1.00
C241   C     0.97590   0.75318   0.23878   0.00000  Uiso   1.00
C242   C     0.02455   0.75911   0.27322   0.00000  Uiso   1.00
C243   C     0.09131   0.81611   0.32921   0.00000  Uiso   1.00
C244   C     0.02506   0.42847   0.21440   0.00000  Uiso   1.00
C245   C     0.08836   0.46196   0.17931   0.00000  Uiso   1.00
C246   C     0.18576   0.40158   0.16427   0.00000  Uiso   1.00
C247   C     0.23076   0.44638   0.13201   0.00000  Uiso   1.00
C248   C     0.89247   0.41090   0.20484   0.00000  Uiso   1.00
C249   C     0.82516   0.30759   0.21126   0.00000  Uiso   1.00
C250   C     0.70525   0.30940   0.20049   0.00000  Uiso   1.00
C251   C     0.03043   0.54063   0.23814   0.00000  Uiso   1.00
C252   C     0.07909   0.54638   0.27256   0.00000  Uiso   1.00
C253   C     0.07529   0.65740   0.28984   0.00000  Uiso   1.00
H254   H     0.89237   0.69442   0.17096   0.00000  Uiso   1.00
H255   H     0.04335   0.68694   0.11766   0.00000  Uiso   1.00
H256   H     0.68281   0.59297   0.16465   0.00000  Uiso   1.00
H257   H     0.93670   0.83172   0.22594   0.00000  Uiso   1.00
H258   H     0.23305   0.63385   0.06587   0.00000  Uiso   1.00
H259   H     0.47282   0.43572   0.16496   0.00000  Uiso   1.00
H260   H     0.00819   0.93918   0.29421   0.00000  Uiso   1.00
H261   H     0.06449   0.34943   0.22732   0.00000  Uiso   1.00
H262   H     0.22493   0.32302   0.17711   0.00000  Uiso   1.00
H263   H     0.86438   0.22905   0.22410   0.00000  Uiso   1.00
H264   H     0.11828   0.46780   0.28539   0.00000  Uiso   1.00
H265   H     0.38043   0.33847   0.11412   0.00000  Uiso   1.00
H266   H     0.62018   0.14035   0.21321   0.00000  Uiso   1.00
H267   H     0.15557   0.64381   0.34246   0.00000  Uiso   1.00
O268   O     0.40915   0.47499   0.05594   0.00000  Uiso   1.00
O269   O     0.41174   0.21506   0.18595   0.00000  Uiso   1.00
O270   O     0.11415   0.87559   0.35552   0.00000  Uiso   1.00
N271   N     0.24574   0.56797   0.08412   0.00000  Uiso   1.00
N272   N     0.53496   0.38272   0.17676   0.00000  Uiso   1.00
N273   N     0.03547   0.85341   0.29760   0.00000  Uiso   1.00
N274   N     0.32504   0.40903   0.11008   0.00000  Uiso   1.00
N275   N     0.61426   0.22379   0.20272   0.00000  Uiso   1.00
N276   N     0.11477   0.69448   0.32356   0.00000  Uiso   1.00
C277   C     0.88462   0.43181   0.93387   0.00000  Uiso   1.00
C278   C     0.93651   0.53772   0.91273   0.00000  Uiso   1.00
C279   C     0.89162   0.58258   0.88049   0.00000  Uiso   1.00
C280   C     0.95192   0.68001   0.86539   0.00000  Uiso   1.00
C281   C     0.01710   0.83672   0.83003   0.00000  Uiso   1.00
C282   C     0.98758   0.34182   0.93825   0.00000  Uiso   1.00
C283   C     0.98561   0.22198   0.92748   0.00000  Uiso   1.00
C284   C     0.08890   0.15451   0.93388   0.00000  Uiso   1.00
C285   C     0.23332   0.00706   0.93817   0.00000  Uiso   1.00
C286   C     0.85785   0.47978   0.97155   0.00000  Uiso   1.00
C287   C     0.74682   0.47590   0.98878   0.00000  Uiso   1.00
C288   C     0.74089   0.52455   0.02322   0.00000  Uiso   1.00
C289   C     0.68389   0.59131   0.07921   0.00000  Uiso   1.00
C290   C     0.07153   0.52506   0.96440   0.00000  Uiso   1.00
C291   C     0.03804   0.58836   0.92931   0.00000  Uiso   1.00
C292   C     0.09842   0.68576   0.91427   0.00000  Uiso   1.00
C293   C     0.05362   0.73076   0.88201   0.00000  Uiso   1.00
C294   C     0.08910   0.39247   0.95484   0.00000  Uiso   1.00
C295   C     0.19241   0.32516   0.96126   0.00000  Uiso   1.00
C296   C     0.19060   0.20525   0.95049   0.00000  Uiso   1.00
C297   C     0.95937   0.53043   0.98814   0.00000  Uiso   1.00
C298   C     0.95362   0.57909   0.02256   0.00000  Uiso   1.00
C299   C     0.84260   0.57529   0.03984   0.00000  Uiso   1.00
H300   H     0.80558   0.39237   0.92096   0.00000  Uiso   1.00
H301   H     0.81306   0.54335   0.86766   0.00000  Uiso   1.00
H302   H     0.90703   0.18281   0.91465   0.00000  Uiso   1.00
H303   H     0.66828   0.43670   0.97594   0.00000  Uiso   1.00
H304   H     0.86615   0.73305   0.81587   0.00000  Uiso   1.00
H305   H     0.06428   0.97282   0.91496   0.00000  Uiso   1.00
H306   H     0.56082   0.50819   0.04421   0.00000  Uiso   1.00
H307   H     0.15057   0.56449   0.97732   0.00000  Uiso   1.00
H308   H     0.17698   0.72493   0.92711   0.00000  Uiso   1.00
H309   H     0.27095   0.36438   0.97410   0.00000  Uiso   1.00
H310   H     0.03220   0.61828   0.03539   0.00000  Uiso   1.00
H311   H     0.16153   0.88043   0.86412   0.00000  Uiso   1.00
H312   H     0.35965   0.12018   0.96321   0.00000  Uiso   1.00
H313   H     0.85619   0.65557   0.09246   0.00000  Uiso   1.00
O314   O     0.02501   0.90915   0.80594   0.00000  Uiso   1.00
O315   O     0.28494   0.91174   0.93595   0.00000  Uiso   1.00
O316   O     0.62441   0.61415   0.10552   0.00000  Uiso   1.00
N317   N     0.93203   0.74574   0.83412   0.00000  Uiso   1.00
N318   N     0.11728   0.03496   0.92676   0.00000  Uiso   1.00
N319   N     0.64659   0.53547   0.04760   0.00000  Uiso   1.00
N320   N     0.09097   0.82504   0.86008   0.00000  Uiso   1.00
N321   N     0.27621   0.11426   0.95272   0.00000  Uiso   1.00
N322   N     0.80552   0.61477   0.07356   0.00000  Uiso   1.00
C323   C     0.11538   0.56819   0.43387   0.00000  Uiso   1.00
C324   C     0.06349   0.46228   0.41273   0.00000  Uiso   1.00
C325   C     0.10838   0.41742   0.38049   0.00000  Uiso   1.00
C326   C     0.04808   0.31999   0.36539   0.00000  Uiso   1.00
C327   C     0.98290   0.16328   0.33003   0.00000  Uiso   1.00
C328   C     0.01242   0.65818   0.43825   0.00000  Uiso   1.00
C329   C     0.01439   0.77802   0.42748   0.00000  Uiso   1.00
C330   C     0.91110   0.84549   0.43388   0.00000  Uiso   1.00
C331   C     0.76668   0.99294   0.43817   0.00000  Uiso   1.00
C332   C     0.14215   0.52022   0.47155   0.00000  Uiso   1.00
C333   C     0.25318   0.52410   0.48878   0.00000  Uiso   1.00
C334   C     0.25911   0.47545   0.52322   0.00000  Uiso   1.00
C335   C     0.31611   0.40869   0.57921   0.00000  Uiso   1.00
C336   C     0.92847   0.47494   0.46440   0.00000  Uiso   1.00
C337   C     0.96196   0.41164   0.42931   0.00000  Uiso   1.00
C338   C     0.90158   0.31424   0.41427   0.00000  Uiso   1.00
C339   C     0.94638   0.26924   0.38201   0.00000  Uiso   1.00
C340   C     0.91090   0.60753   0.45484   0.00000  Uiso   1.00
C341   C     0.80759   0.67484   0.46126   0.00000  Uiso   1.00
C342   C     0.80940   0.79475   0.45049   0.00000  Uiso   1.00
C343   C     0.04063   0.46957   0.48814   0.00000  Uiso   1.00
C344   C     0.04638   0.42091   0.52256   0.00000  Uiso   1.00
C345   C     0.15740   0.42471   0.53984   0.00000  Uiso   1.00
H346   H     0.19442   0.60763   0.42096   0.00000  Uiso   1.00
H347   H     0.18694   0.45665   0.36766   0.00000  Uiso   1.00
H348   H     0.09297   0.81719   0.41465   0.00000  Uiso   1.00
H349   H     0.33172   0.56330   0.47594   0.00000  Uiso   1.00
H350   H     0.13385   0.26695   0.31587   0.00000  Uiso   1.00
H351   H     0.93572   0.02718   0.41496   0.00000  Uiso   1.00
H352   H     0.43918   0.49181   0.54421   0.00000  Uiso   1.00
H353   H     0.84943   0.43551   0.47732   0.00000  Uiso   1.00
H354   H     0.82302   0.27507   0.42711   0.00000  Uiso   1.00
H355   H     0.72905   0.63562   0.47410   0.00000  Uiso   1.00
H356   H     0.96780   0.38172   0.53539   0.00000  Uiso   1.00
H357   H     0.83847   0.11957   0.36412   0.00000  Uiso   1.00
H358   H     0.64035   0.87982   0.46321   0.00000  Uiso   1.00
H359   H     0.14381   0.34443   0.59246   0.00000  Uiso   1.00
O360   O     0.97499   0.09085   0.30594   0.00000  Uiso   1.00
O361   O     0.71506   0.08826   0.43595   0.00000  Uiso   1.00
O362   O     0.37559   0.38585   0.60552   0.00000  Uiso   1.00
N363   N     0.06797   0.25426   0.33412   0.00000  Uiso   1.00
N364   N     0.88272   0.96504   0.42676   0.00000  Uiso   1.00
N365   N     0.35341   0.46453   0.54760   0.00000  Uiso   1.00
N366   N     0.90903   0.17496   0.36008   0.00000  Uiso   1.00
N367   N     0.72379   0.88574   0.45272   0.00000  Uiso   1.00
N368   N     0.19448   0.38523   0.57356   0.00000  Uiso   1.00
