data_job_04756
_audit_creation_date              2018-12-19
_audit_creation_method            'Materials Studio'
_symmetry_space_group_name_H-M    'P1'
_symmetry_Int_Tables_number       1
_symmetry_cell_setting            triclinic
loop_
_symmetry_equiv_pos_as_xyz
  x,y,z
_cell_length_a                    10.9575
_cell_length_b                    30.4007
_cell_length_c                    13.0332
_cell_angle_alpha                 90.0000
_cell_angle_beta                  90.0000
_cell_angle_gamma                 90.0000
loop_
_atom_site_label
_atom_site_type_symbol
_atom_site_fract_x
_atom_site_fract_y
_atom_site_fract_z
_atom_site_U_iso_or_equiv
_atom_site_adp_type
_atom_site_occupancy
C1     C     0.92856   0.65141   0.52200   0.00000  Uiso   1.00
C2     C     0.84852   0.63712   0.43227   0.00000  Uiso   1.00
C3     C     0.84409   0.65713   0.33664   0.00000  Uiso   1.00
C4     C     0.76491   0.63910   0.26489   0.00000  Uiso   1.00
C5     C     0.65155   0.62252   0.12206   0.00000  Uiso   1.00
C6     C     0.84202   0.65957   0.61163   0.00000  Uiso   1.00
C7     C     0.83214   0.69845   0.66681   0.00000  Uiso   1.00
C8     C     0.74749   0.69931   0.74606   0.00000  Uiso   1.00
C9     C     0.62411   0.71756   0.88174   0.00000  Uiso   1.00
C10    C     0.00416   0.61121   0.55131   0.00000  Uiso   1.00
C11    C     0.13061   0.60944   0.55581   0.00000  Uiso   1.00
C12    C     0.18247   0.56960   0.58430   0.00000  Uiso   1.00
C13    C     0.31083   0.51278   0.62632   0.00000  Uiso   1.00
C14    C     0.79582   0.58381   0.56463   0.00000  Uiso   1.00
C15    C     0.77642   0.60040   0.45543   0.00000  Uiso   1.00
C16    C     0.69723   0.58234   0.38381   0.00000  Uiso   1.00
C17    C     0.69268   0.60232   0.28808   0.00000  Uiso   1.00
C18    C     0.76992   0.62285   0.63479   0.00000  Uiso   1.00
C19    C     0.68528   0.62366   0.71398   0.00000  Uiso   1.00
C20    C     0.67526   0.66253   0.76926   0.00000  Uiso   1.00
C21    C     0.93206   0.57449   0.57447   0.00000  Uiso   1.00
C22    C     0.98374   0.53465   0.60297   0.00000  Uiso   1.00
C23    C     0.11024   0.53282   0.60750   0.00000  Uiso   1.00
H24    H     0.98469   0.67999   0.50398   0.00000  Uiso   1.00
H25    H     0.89990   0.68555   0.31875   0.00000  Uiso   1.00
H26    H     0.88796   0.72685   0.64888   0.00000  Uiso   1.00
H27    H     0.18637   0.63786   0.53788   0.00000  Uiso   1.00
H28    H     0.77406   0.67552   0.12362   0.00000  Uiso   1.00
H29    H     0.74891   0.76262   0.81974   0.00000  Uiso   1.00
H30    H     0.37818   0.57496   0.58568   0.00000  Uiso   1.00
H31    H     0.73968   0.55522   0.58267   0.00000  Uiso   1.00
H32    H     0.64144   0.55392   0.40175   0.00000  Uiso   1.00
H33    H     0.62950   0.59524   0.73188   0.00000  Uiso   1.00
H34    H     0.92792   0.50624   0.62088   0.00000  Uiso   1.00
H35    H     0.56428   0.56869   0.19099   0.00000  Uiso   1.00
H36    H     0.53914   0.65579   0.88711   0.00000  Uiso   1.00
H37    H     0.16841   0.46813   0.65305   0.00000  Uiso   1.00
O38    O     0.60893   0.62351   0.03688   0.00000  Uiso   1.00
O39    O     0.57597   0.73778   0.95017   0.00000  Uiso   1.00
O40    O     0.40155   0.49158   0.64309   0.00000  Uiso   1.00
N41    N     0.73818   0.65055   0.16429   0.00000  Uiso   1.00
N42    N     0.71466   0.73198   0.81511   0.00000  Uiso   1.00
N43    N     0.30298   0.55654   0.59632   0.00000  Uiso   1.00
N44    N     0.62531   0.59307   0.20054   0.00000  Uiso   1.00
N45    N     0.60179   0.67450   0.85136   0.00000  Uiso   1.00
N46    N     0.19010   0.49906   0.63257   0.00000  Uiso   1.00
C47    C     0.42856   0.15141   0.52200   0.00000  Uiso   1.00
C48    C     0.34852   0.13712   0.43227   0.00000  Uiso   1.00
C49    C     0.34409   0.15713   0.33664   0.00000  Uiso   1.00
C50    C     0.26491   0.13910   0.26489   0.00000  Uiso   1.00
C51    C     0.15155   0.12252   0.12206   0.00000  Uiso   1.00
C52    C     0.34202   0.15957   0.61163   0.00000  Uiso   1.00
C53    C     0.33214   0.19845   0.66681   0.00000  Uiso   1.00
C54    C     0.24749   0.19931   0.74606   0.00000  Uiso   1.00
C55    C     0.12411   0.21756   0.88174   0.00000  Uiso   1.00
C56    C     0.50416   0.11121   0.55131   0.00000  Uiso   1.00
C57    C     0.63061   0.10944   0.55581   0.00000  Uiso   1.00
C58    C     0.68247   0.06960   0.58430   0.00000  Uiso   1.00
C59    C     0.81083   0.01278   0.62632   0.00000  Uiso   1.00
C60    C     0.29582   0.08381   0.56463   0.00000  Uiso   1.00
C61    C     0.27642   0.10040   0.45543   0.00000  Uiso   1.00
C62    C     0.19723   0.08234   0.38381   0.00000  Uiso   1.00
C63    C     0.19268   0.10232   0.28808   0.00000  Uiso   1.00
C64    C     0.26992   0.12285   0.63479   0.00000  Uiso   1.00
C65    C     0.18528   0.12366   0.71398   0.00000  Uiso   1.00
C66    C     0.17526   0.16253   0.76926   0.00000  Uiso   1.00
C67    C     0.43206   0.07449   0.57447   0.00000  Uiso   1.00
C68    C     0.48374   0.03465   0.60297   0.00000  Uiso   1.00
C69    C     0.61024   0.03282   0.60750   0.00000  Uiso   1.00
H70    H     0.48469   0.17999   0.50398   0.00000  Uiso   1.00
H71    H     0.39990   0.18555   0.31875   0.00000  Uiso   1.00
H72    H     0.38796   0.22685   0.64888   0.00000  Uiso   1.00
H73    H     0.68637   0.13786   0.53788   0.00000  Uiso   1.00
H74    H     0.27406   0.17552   0.12362   0.00000  Uiso   1.00
H75    H     0.24891   0.26262   0.81974   0.00000  Uiso   1.00
H76    H     0.87818   0.07496   0.58568   0.00000  Uiso   1.00
H77    H     0.23968   0.05522   0.58267   0.00000  Uiso   1.00
H78    H     0.14144   0.05392   0.40175   0.00000  Uiso   1.00
H79    H     0.12950   0.09524   0.73188   0.00000  Uiso   1.00
H80    H     0.42792   0.00624   0.62088   0.00000  Uiso   1.00
H81    H     0.06428   0.06869   0.19099   0.00000  Uiso   1.00
H82    H     0.03914   0.15579   0.88711   0.00000  Uiso   1.00
H83    H     0.66841   0.96813   0.65305   0.00000  Uiso   1.00
O84    O     0.10893   0.12351   0.03688   0.00000  Uiso   1.00
O85    O     0.07597   0.23778   0.95017   0.00000  Uiso   1.00
O86    O     0.90155   0.99158   0.64309   0.00000  Uiso   1.00
N87    N     0.23818   0.15055   0.16429   0.00000  Uiso   1.00
N88    N     0.21466   0.23198   0.81511   0.00000  Uiso   1.00
N89    N     0.80298   0.05654   0.59632   0.00000  Uiso   1.00
N90    N     0.12531   0.09307   0.20054   0.00000  Uiso   1.00
N91    N     0.10179   0.17450   0.85136   0.00000  Uiso   1.00
N92    N     0.69010   0.99906   0.63257   0.00000  Uiso   1.00
C93    C     0.07144   0.34859   0.02200   0.00000  Uiso   1.00
C94    C     0.15148   0.36288   0.93227   0.00000  Uiso   1.00
C95    C     0.15591   0.34287   0.83664   0.00000  Uiso   1.00
C96    C     0.23509   0.36090   0.76489   0.00000  Uiso   1.00
C97    C     0.34845   0.37748   0.62206   0.00000  Uiso   1.00
C98    C     0.15798   0.34043   0.11163   0.00000  Uiso   1.00
C99    C     0.16786   0.30155   0.16681   0.00000  Uiso   1.00
C100   C     0.25251   0.30069   0.24606   0.00000  Uiso   1.00
C101   C     0.37589   0.28244   0.38174   0.00000  Uiso   1.00
C102   C     0.99584   0.38879   0.05131   0.00000  Uiso   1.00
C103   C     0.86939   0.39056   0.05581   0.00000  Uiso   1.00
C104   C     0.81753   0.43040   0.08430   0.00000  Uiso   1.00
C105   C     0.68917   0.48722   0.12632   0.00000  Uiso   1.00
C106   C     0.20418   0.41619   0.06463   0.00000  Uiso   1.00
C107   C     0.22358   0.39960   0.95543   0.00000  Uiso   1.00
C108   C     0.30277   0.41766   0.88381   0.00000  Uiso   1.00
C109   C     0.30732   0.39768   0.78808   0.00000  Uiso   1.00
C110   C     0.23008   0.37715   0.13479   0.00000  Uiso   1.00
C111   C     0.31472   0.37634   0.21398   0.00000  Uiso   1.00
C112   C     0.32474   0.33747   0.26926   0.00000  Uiso   1.00
C113   C     0.06794   0.42551   0.07447   0.00000  Uiso   1.00
C114   C     0.01626   0.46535   0.10297   0.00000  Uiso   1.00
C115   C     0.88976   0.46718   0.10750   0.00000  Uiso   1.00
H116   H     0.01531   0.32001   0.00398   0.00000  Uiso   1.00
H117   H     0.10010   0.31445   0.81875   0.00000  Uiso   1.00
H118   H     0.11204   0.27315   0.14888   0.00000  Uiso   1.00
H119   H     0.81363   0.36214   0.03788   0.00000  Uiso   1.00
H120   H     0.22594   0.32448   0.62362   0.00000  Uiso   1.00
H121   H     0.25109   0.23738   0.31974   0.00000  Uiso   1.00
H122   H     0.62182   0.42504   0.08568   0.00000  Uiso   1.00
H123   H     0.26032   0.44478   0.08267   0.00000  Uiso   1.00
H124   H     0.35856   0.44608   0.90175   0.00000  Uiso   1.00
H125   H     0.37050   0.40476   0.23188   0.00000  Uiso   1.00
H126   H     0.07208   0.49376   0.12088   0.00000  Uiso   1.00
H127   H     0.43572   0.43131   0.69099   0.00000  Uiso   1.00
H128   H     0.46086   0.34421   0.38711   0.00000  Uiso   1.00
H129   H     0.83159   0.53187   0.15305   0.00000  Uiso   1.00
O130   O     0.39107   0.37649   0.53688   0.00000  Uiso   1.00
O131   O     0.42403   0.26222   0.45017   0.00000  Uiso   1.00
O132   O     0.59845   0.50842   0.14309   0.00000  Uiso   1.00
N133   N     0.26182   0.34945   0.66429   0.00000  Uiso   1.00
N134   N     0.28534   0.26802   0.31511   0.00000  Uiso   1.00
N135   N     0.69702   0.44346   0.09632   0.00000  Uiso   1.00
N136   N     0.37469   0.40693   0.70054   0.00000  Uiso   1.00
N137   N     0.39821   0.32550   0.35136   0.00000  Uiso   1.00
N138   N     0.80990   0.50094   0.13257   0.00000  Uiso   1.00
C139   C     0.57144   0.84859   0.02200   0.00000  Uiso   1.00
C140   C     0.65148   0.86288   0.93227   0.00000  Uiso   1.00
C141   C     0.65591   0.84287   0.83664   0.00000  Uiso   1.00
C142   C     0.73509   0.86090   0.76489   0.00000  Uiso   1.00
C143   C     0.84845   0.87748   0.62206   0.00000  Uiso   1.00
C144   C     0.65798   0.84043   0.11163   0.00000  Uiso   1.00
C145   C     0.66786   0.80155   0.16681   0.00000  Uiso   1.00
C146   C     0.75251   0.80069   0.24606   0.00000  Uiso   1.00
C147   C     0.87589   0.78244   0.38174   0.00000  Uiso   1.00
C148   C     0.49584   0.88879   0.05131   0.00000  Uiso   1.00
C149   C     0.36939   0.89056   0.05581   0.00000  Uiso   1.00
C150   C     0.31753   0.93040   0.08430   0.00000  Uiso   1.00
C151   C     0.18917   0.98722   0.12632   0.00000  Uiso   1.00
C152   C     0.70418   0.91619   0.06463   0.00000  Uiso   1.00
C153   C     0.72358   0.89960   0.95543   0.00000  Uiso   1.00
C154   C     0.80277   0.91766   0.88381   0.00000  Uiso   1.00
C155   C     0.80732   0.89768   0.78808   0.00000  Uiso   1.00
C156   C     0.73008   0.87715   0.13479   0.00000  Uiso   1.00
C157   C     0.81472   0.87634   0.21398   0.00000  Uiso   1.00
C158   C     0.82474   0.83747   0.26926   0.00000  Uiso   1.00
C159   C     0.56794   0.92551   0.07447   0.00000  Uiso   1.00
C160   C     0.51626   0.96535   0.10297   0.00000  Uiso   1.00
C161   C     0.38976   0.96718   0.10750   0.00000  Uiso   1.00
H162   H     0.51531   0.82001   0.00398   0.00000  Uiso   1.00
H163   H     0.60010   0.81445   0.81875   0.00000  Uiso   1.00
H164   H     0.61204   0.77315   0.14888   0.00000  Uiso   1.00
H165   H     0.31363   0.86214   0.03788   0.00000  Uiso   1.00
H166   H     0.72594   0.82448   0.62362   0.00000  Uiso   1.00
H167   H     0.75109   0.73738   0.31974   0.00000  Uiso   1.00
H168   H     0.12182   0.92504   0.08568   0.00000  Uiso   1.00
H169   H     0.76032   0.94478   0.08267   0.00000  Uiso   1.00
H170   H     0.85856   0.94608   0.90175   0.00000  Uiso   1.00
H171   H     0.87050   0.90476   0.23188   0.00000  Uiso   1.00
H172   H     0.57208   0.99376   0.12088   0.00000  Uiso   1.00
H173   H     0.93572   0.93131   0.69099   0.00000  Uiso   1.00
H174   H     0.96086   0.84421   0.38711   0.00000  Uiso   1.00
H175   H     0.33159   0.03187   0.15305   0.00000  Uiso   1.00
O176   O     0.89107   0.87649   0.53688   0.00000  Uiso   1.00
O177   O     0.92403   0.76222   0.45017   0.00000  Uiso   1.00
O178   O     0.09845   0.00842   0.14309   0.00000  Uiso   1.00
N179   N     0.76182   0.84945   0.66429   0.00000  Uiso   1.00
N180   N     0.78534   0.76802   0.31511   0.00000  Uiso   1.00
N181   N     0.19702   0.94346   0.09632   0.00000  Uiso   1.00
N182   N     0.87469   0.90693   0.70054   0.00000  Uiso   1.00
N183   N     0.89821   0.82550   0.35136   0.00000  Uiso   1.00
N184   N     0.30990   0.00094   0.13257   0.00000  Uiso   1.00
C185   C     0.07144   0.65141   0.97800   0.00000  Uiso   1.00
C186   C     0.15148   0.63712   0.06773   0.00000  Uiso   1.00
C187   C     0.15591   0.65713   0.16336   0.00000  Uiso   1.00
C188   C     0.23509   0.63910   0.23511   0.00000  Uiso   1.00
C189   C     0.34845   0.62252   0.37794   0.00000  Uiso   1.00
C190   C     0.15798   0.65957   0.88837   0.00000  Uiso   1.00
C191   C     0.16786   0.69845   0.83319   0.00000  Uiso   1.00
C192   C     0.25251   0.69931   0.75394   0.00000  Uiso   1.00
C193   C     0.37589   0.71756   0.61826   0.00000  Uiso   1.00
C194   C     0.99584   0.61121   0.94869   0.00000  Uiso   1.00
C195   C     0.86939   0.60944   0.94419   0.00000  Uiso   1.00
C196   C     0.81753   0.56960   0.91570   0.00000  Uiso   1.00
C197   C     0.68917   0.51278   0.87368   0.00000  Uiso   1.00
C198   C     0.20418   0.58381   0.93537   0.00000  Uiso   1.00
C199   C     0.22358   0.60040   0.04457   0.00000  Uiso   1.00
C200   C     0.30277   0.58234   0.11619   0.00000  Uiso   1.00
C201   C     0.30732   0.60232   0.21192   0.00000  Uiso   1.00
C202   C     0.23008   0.62285   0.86521   0.00000  Uiso   1.00
C203   C     0.31472   0.62366   0.78602   0.00000  Uiso   1.00
C204   C     0.32474   0.66253   0.73074   0.00000  Uiso   1.00
C205   C     0.06794   0.57449   0.92553   0.00000  Uiso   1.00
C206   C     0.01626   0.53465   0.89703   0.00000  Uiso   1.00
C207   C     0.88976   0.53282   0.89250   0.00000  Uiso   1.00
H208   H     0.01531   0.67999   0.99602   0.00000  Uiso   1.00
H209   H     0.10010   0.68555   0.18125   0.00000  Uiso   1.00
H210   H     0.11204   0.72685   0.85112   0.00000  Uiso   1.00
H211   H     0.81363   0.63786   0.96212   0.00000  Uiso   1.00
H212   H     0.22594   0.67552   0.37638   0.00000  Uiso   1.00
H213   H     0.25109   0.76262   0.68026   0.00000  Uiso   1.00
H214   H     0.62182   0.57496   0.91432   0.00000  Uiso   1.00
H215   H     0.26032   0.55522   0.91733   0.00000  Uiso   1.00
H216   H     0.35856   0.55392   0.09825   0.00000  Uiso   1.00
H217   H     0.37050   0.59524   0.76812   0.00000  Uiso   1.00
H218   H     0.07208   0.50624   0.87912   0.00000  Uiso   1.00
H219   H     0.43572   0.56869   0.30901   0.00000  Uiso   1.00
H220   H     0.46086   0.65579   0.61289   0.00000  Uiso   1.00
H221   H     0.83159   0.46813   0.84695   0.00000  Uiso   1.00
O222   O     0.39107   0.62351   0.46312   0.00000  Uiso   1.00
O223   O     0.42403   0.73778   0.54983   0.00000  Uiso   1.00
O224   O     0.59845   0.49158   0.85691   0.00000  Uiso   1.00
N225   N     0.26182   0.65055   0.33571   0.00000  Uiso   1.00
N226   N     0.28534   0.73198   0.68489   0.00000  Uiso   1.00
N227   N     0.69702   0.55654   0.90368   0.00000  Uiso   1.00
N228   N     0.37469   0.59307   0.29946   0.00000  Uiso   1.00
N229   N     0.39821   0.67450   0.64864   0.00000  Uiso   1.00
N230   N     0.80990   0.49906   0.86743   0.00000  Uiso   1.00
C231   C     0.57144   0.15141   0.97800   0.00000  Uiso   1.00
C232   C     0.65148   0.13712   0.06773   0.00000  Uiso   1.00
C233   C     0.65591   0.15713   0.16336   0.00000  Uiso   1.00
C234   C     0.73509   0.13910   0.23511   0.00000  Uiso   1.00
C235   C     0.84845   0.12252   0.37794   0.00000  Uiso   1.00
C236   C     0.65798   0.15957   0.88837   0.00000  Uiso   1.00
C237   C     0.66786   0.19845   0.83319   0.00000  Uiso   1.00
C238   C     0.75251   0.19931   0.75394   0.00000  Uiso   1.00
C239   C     0.87589   0.21756   0.61826   0.00000  Uiso   1.00
C240   C     0.49584   0.11121   0.94869   0.00000  Uiso   1.00
C241   C     0.36939   0.10944   0.94419   0.00000  Uiso   1.00
C242   C     0.31753   0.06960   0.91570   0.00000  Uiso   1.00
C243   C     0.18917   0.01278   0.87368   0.00000  Uiso   1.00
C244   C     0.70418   0.08381   0.93537   0.00000  Uiso   1.00
C245   C     0.72358   0.10040   0.04457   0.00000  Uiso   1.00
C246   C     0.80277   0.08234   0.11619   0.00000  Uiso   1.00
C247   C     0.80732   0.10232   0.21192   0.00000  Uiso   1.00
C248   C     0.73008   0.12285   0.86521   0.00000  Uiso   1.00
C249   C     0.81472   0.12366   0.78602   0.00000  Uiso   1.00
C250   C     0.82474   0.16253   0.73074   0.00000  Uiso   1.00
C251   C     0.56794   0.07449   0.92553   0.00000  Uiso   1.00
C252   C     0.51626   0.03465   0.89703   0.00000  Uiso   1.00
C253   C     0.38976   0.03282   0.89250   0.00000  Uiso   1.00
H254   H     0.51531   0.17999   0.99602   0.00000  Uiso   1.00
H255   H     0.60010   0.18555   0.18125   0.00000  Uiso   1.00
H256   H     0.61204   0.22685   0.85112   0.00000  Uiso   1.00
H257   H     0.31363   0.13786   0.96212   0.00000  Uiso   1.00
H258   H     0.72594   0.17552   0.37638   0.00000  Uiso   1.00
H259   H     0.75109   0.26262   0.68026   0.00000  Uiso   1.00
H260   H     0.12182   0.07496   0.91432   0.00000  Uiso   1.00
H261   H     0.76032   0.05522   0.91733   0.00000  Uiso   1.00
H262   H     0.85856   0.05392   0.09825   0.00000  Uiso   1.00
H263   H     0.87050   0.09524   0.76812   0.00000  Uiso   1.00
H264   H     0.57208   0.00624   0.87912   0.00000  Uiso   1.00
H265   H     0.93572   0.06869   0.30901   0.00000  Uiso   1.00
H266   H     0.96086   0.15579   0.61289   0.00000  Uiso   1.00
H267   H     0.33159   0.96813   0.84695   0.00000  Uiso   1.00
O268   O     0.89107   0.12351   0.46312   0.00000  Uiso   1.00
O269   O     0.92403   0.23778   0.54983   0.00000  Uiso   1.00
O270   O     0.09845   0.99158   0.85691   0.00000  Uiso   1.00
N271   N     0.76182   0.15055   0.33571   0.00000  Uiso   1.00
N272   N     0.78534   0.23198   0.68489   0.00000  Uiso   1.00
N273   N     0.19702   0.05654   0.90368   0.00000  Uiso   1.00
N274   N     0.87469   0.09307   0.29946   0.00000  Uiso   1.00
N275   N     0.89821   0.17450   0.64864   0.00000  Uiso   1.00
N276   N     0.30990   0.99906   0.86743   0.00000  Uiso   1.00
C277   C     0.92856   0.34859   0.47800   0.00000  Uiso   1.00
C278   C     0.84852   0.36288   0.56773   0.00000  Uiso   1.00
C279   C     0.84409   0.34287   0.66336   0.00000  Uiso   1.00
C280   C     0.76491   0.36090   0.73511   0.00000  Uiso   1.00
C281   C     0.65155   0.37748   0.87794   0.00000  Uiso   1.00
C282   C     0.84202   0.34043   0.38837   0.00000  Uiso   1.00
C283   C     0.83214   0.30155   0.33319   0.00000  Uiso   1.00
C284   C     0.74749   0.30069   0.25394   0.00000  Uiso   1.00
C285   C     0.62411   0.28244   0.11826   0.00000  Uiso   1.00
C286   C     0.00416   0.38879   0.44869   0.00000  Uiso   1.00
C287   C     0.13061   0.39056   0.44419   0.00000  Uiso   1.00
C288   C     0.18247   0.43040   0.41570   0.00000  Uiso   1.00
C289   C     0.31083   0.48722   0.37368   0.00000  Uiso   1.00
C290   C     0.79582   0.41619   0.43537   0.00000  Uiso   1.00
C291   C     0.77642   0.39960   0.54457   0.00000  Uiso   1.00
C292   C     0.69723   0.41766   0.61619   0.00000  Uiso   1.00
C293   C     0.69268   0.39768   0.71192   0.00000  Uiso   1.00
C294   C     0.76992   0.37715   0.36521   0.00000  Uiso   1.00
C295   C     0.68528   0.37634   0.28602   0.00000  Uiso   1.00
C296   C     0.67526   0.33747   0.23074   0.00000  Uiso   1.00
C297   C     0.93206   0.42551   0.42553   0.00000  Uiso   1.00
C298   C     0.98374   0.46535   0.39703   0.00000  Uiso   1.00
C299   C     0.11024   0.46718   0.39250   0.00000  Uiso   1.00
H300   H     0.98469   0.32001   0.49602   0.00000  Uiso   1.00
H301   H     0.89990   0.31445   0.68125   0.00000  Uiso   1.00
H302   H     0.88796   0.27315   0.35112   0.00000  Uiso   1.00
H303   H     0.18637   0.36214   0.46212   0.00000  Uiso   1.00
H304   H     0.77406   0.32448   0.87638   0.00000  Uiso   1.00
H305   H     0.74891   0.23738   0.18026   0.00000  Uiso   1.00
H306   H     0.37818   0.42504   0.41432   0.00000  Uiso   1.00
H307   H     0.73968   0.44478   0.41733   0.00000  Uiso   1.00
H308   H     0.64144   0.44608   0.59825   0.00000  Uiso   1.00
H309   H     0.62950   0.40476   0.26812   0.00000  Uiso   1.00
H310   H     0.92792   0.49376   0.37912   0.00000  Uiso   1.00
H311   H     0.56428   0.43131   0.80901   0.00000  Uiso   1.00
H312   H     0.53914   0.34421   0.11289   0.00000  Uiso   1.00
H313   H     0.16841   0.53187   0.34695   0.00000  Uiso   1.00
O314   O     0.60893   0.37649   0.96312   0.00000  Uiso   1.00
O315   O     0.57597   0.26222   0.04983   0.00000  Uiso   1.00
O316   O     0.40155   0.50842   0.35691   0.00000  Uiso   1.00
N317   N     0.73818   0.34945   0.83571   0.00000  Uiso   1.00
N318   N     0.71466   0.26802   0.18489   0.00000  Uiso   1.00
N319   N     0.30298   0.44346   0.40368   0.00000  Uiso   1.00
N320   N     0.62531   0.40693   0.79946   0.00000  Uiso   1.00
N321   N     0.60179   0.32550   0.14864   0.00000  Uiso   1.00
N322   N     0.19010   0.50094   0.36743   0.00000  Uiso   1.00
C323   C     0.42856   0.84859   0.47800   0.00000  Uiso   1.00
C324   C     0.34852   0.86288   0.56773   0.00000  Uiso   1.00
C325   C     0.34409   0.84287   0.66336   0.00000  Uiso   1.00
C326   C     0.26491   0.86090   0.73511   0.00000  Uiso   1.00
C327   C     0.15155   0.87748   0.87794   0.00000  Uiso   1.00
C328   C     0.34202   0.84043   0.38837   0.00000  Uiso   1.00
C329   C     0.33214   0.80155   0.33319   0.00000  Uiso   1.00
C330   C     0.24749   0.80069   0.25394   0.00000  Uiso   1.00
C331   C     0.12411   0.78244   0.11826   0.00000  Uiso   1.00
C332   C     0.50416   0.88879   0.44869   0.00000  Uiso   1.00
C333   C     0.63061   0.89056   0.44419   0.00000  Uiso   1.00
C334   C     0.68247   0.93040   0.41570   0.00000  Uiso   1.00
C335   C     0.81083   0.98722   0.37368   0.00000  Uiso   1.00
C336   C     0.29582   0.91619   0.43537   0.00000  Uiso   1.00
C337   C     0.27642   0.89960   0.54457   0.00000  Uiso   1.00
C338   C     0.19723   0.91766   0.61619   0.00000  Uiso   1.00
C339   C     0.19268   0.89768   0.71192   0.00000  Uiso   1.00
C340   C     0.26992   0.87715   0.36521   0.00000  Uiso   1.00
C341   C     0.18528   0.87634   0.28602   0.00000  Uiso   1.00
C342   C     0.17526   0.83747   0.23074   0.00000  Uiso   1.00
C343   C     0.43206   0.92551   0.42553   0.00000  Uiso   1.00
C344   C     0.48374   0.96535   0.39703   0.00000  Uiso   1.00
C345   C     0.61024   0.96718   0.39250   0.00000  Uiso   1.00
H346   H     0.48469   0.82001   0.49602   0.00000  Uiso   1.00
H347   H     0.39990   0.81445   0.68125   0.00000  Uiso   1.00
H348   H     0.38796   0.77315   0.35112   0.00000  Uiso   1.00
H349   H     0.68637   0.86214   0.46212   0.00000  Uiso   1.00
H350   H     0.27406   0.82448   0.87638   0.00000  Uiso   1.00
H351   H     0.24891   0.73738   0.18026   0.00000  Uiso   1.00
H352   H     0.87818   0.92504   0.41432   0.00000  Uiso   1.00
H353   H     0.23968   0.94478   0.41733   0.00000  Uiso   1.00
H354   H     0.14144   0.94608   0.59825   0.00000  Uiso   1.00
H355   H     0.12950   0.90476   0.26812   0.00000  Uiso   1.00
H356   H     0.42792   0.99376   0.37912   0.00000  Uiso   1.00
H357   H     0.06428   0.93131   0.80901   0.00000  Uiso   1.00
H358   H     0.03914   0.84421   0.11289   0.00000  Uiso   1.00
H359   H     0.66841   0.03187   0.34695   0.00000  Uiso   1.00
O360   O     0.10893   0.87649   0.96312   0.00000  Uiso   1.00
O361   O     0.07597   0.76222   0.04983   0.00000  Uiso   1.00
O362   O     0.90155   0.00842   0.35691   0.00000  Uiso   1.00
N363   N     0.23818   0.84945   0.83571   0.00000  Uiso   1.00
N364   N     0.21466   0.76802   0.18489   0.00000  Uiso   1.00
N365   N     0.80298   0.94346   0.40368   0.00000  Uiso   1.00
N366   N     0.12531   0.90693   0.79946   0.00000  Uiso   1.00
N367   N     0.10179   0.82550   0.14864   0.00000  Uiso   1.00
N368   N     0.69010   0.00094   0.36743   0.00000  Uiso   1.00
