data_job_06337
_audit_creation_date              2018-12-19
_audit_creation_method            'Materials Studio'
_symmetry_space_group_name_H-M    'P1'
_symmetry_Int_Tables_number       1
_symmetry_cell_setting            triclinic
loop_
_symmetry_equiv_pos_as_xyz
  x,y,z
_cell_length_a                    12.2301
_cell_length_b                    19.9361
_cell_length_c                    19.9700
_cell_angle_alpha                 63.9110
_cell_angle_beta                  78.7492
_cell_angle_gamma                 101.2080
loop_
_atom_site_label
_atom_site_type_symbol
_atom_site_fract_x
_atom_site_fract_y
_atom_site_fract_z
_atom_site_U_iso_or_equiv
_atom_site_adp_type
_atom_site_occupancy
C1     C     0.30571   0.73832   0.43095   0.00000  Uiso   1.00
C2     C     0.27117   0.65678   0.43892   0.00000  Uiso   1.00
C3     C     0.25060   0.58607   0.50642   0.00000  Uiso   1.00
C4     C     0.21996   0.51783   0.50173   0.00000  Uiso   1.00
C5     C     0.16786   0.39085   0.52470   0.00000  Uiso   1.00
C6     C     0.42033   0.78621   0.36265   0.00000  Uiso   1.00
C7     C     0.52518   0.82434   0.36602   0.00000  Uiso   1.00
C8     C     0.62010   0.86506   0.29712   0.00000  Uiso   1.00
C9     C     0.79955   0.93908   0.20166   0.00000  Uiso   1.00
C10    C     0.21340   0.77508   0.40332   0.00000  Uiso   1.00
C11    C     0.14427   0.80386   0.44086   0.00000  Uiso   1.00
C12    C     0.06498   0.83523   0.40619   0.00000  Uiso   1.00
C13    C     0.92314   0.89196   0.37388   0.00000  Uiso   1.00
C14    C     0.28785   0.74286   0.30260   0.00000  Uiso   1.00
C15    C     0.26147   0.65925   0.36920   0.00000  Uiso   1.00
C16    C     0.23084   0.59110   0.36441   0.00000  Uiso   1.00
C17    C     0.21023   0.52030   0.43189   0.00000  Uiso   1.00
C18    C     0.41064   0.78868   0.29294   0.00000  Uiso   1.00
C19    C     0.50542   0.82936   0.22401   0.00000  Uiso   1.00
C20    C     0.61038   0.86754   0.22728   0.00000  Uiso   1.00
C21    C     0.20370   0.77755   0.33360   0.00000  Uiso   1.00
C22    C     0.12451   0.80888   0.29886   0.00000  Uiso   1.00
C23    C     0.05527   0.83771   0.33635   0.00000  Uiso   1.00
H24    H     0.31327   0.73640   0.48522   0.00000  Uiso   1.00
H25    H     0.25813   0.58419   0.56036   0.00000  Uiso   1.00
H26    H     0.53265   0.82242   0.41997   0.00000  Uiso   1.00
H27    H     0.15180   0.80194   0.49481   0.00000  Uiso   1.00
H28    H     0.19276   0.41652   0.61290   0.00000  Uiso   1.00
H29    H     0.77160   0.91887   0.31689   0.00000  Uiso   1.00
H30    H     0.96850   0.87570   0.47470   0.00000  Uiso   1.00
H31    H     0.28030   0.74479   0.24832   0.00000  Uiso   1.00
H32    H     0.22334   0.59303   0.31046   0.00000  Uiso   1.00
H33    H     0.49788   0.83126   0.17007   0.00000  Uiso   1.00
H34    H     0.11702   0.81079   0.24491   0.00000  Uiso   1.00
H35    H     0.16453   0.42369   0.41007   0.00000  Uiso   1.00
H36    H     0.74338   0.92606   0.11406   0.00000  Uiso   1.00
H37    H     0.94028   0.88287   0.27187   0.00000  Uiso   1.00
O38    O     0.14181   0.32013   0.55663   0.00000  Uiso   1.00
O39    O     0.90123   0.97921   0.16828   0.00000  Uiso   1.00
O40    O     0.84758   0.92256   0.37531   0.00000  Uiso   1.00
N41    N     0.19391   0.43903   0.55664   0.00000  Uiso   1.00
N42    N     0.73510   0.90870   0.27990   0.00000  Uiso   1.00
N43    N     0.98429   0.86835   0.42742   0.00000  Uiso   1.00
N44    N     0.17872   0.44289   0.44750   0.00000  Uiso   1.00
N45    N     0.71991   0.91256   0.17076   0.00000  Uiso   1.00
N46    N     0.96910   0.87221   0.31828   0.00000  Uiso   1.00
C47    C     0.56609   0.82993   0.73958   0.00000  Uiso   1.00
C48    C     0.61086   0.90315   0.65825   0.00000  Uiso   1.00
C49    C     0.65907   0.90594   0.58778   0.00000  Uiso   1.00
C50    C     0.69480   0.97861   0.51971   0.00000  Uiso   1.00
C51    C     0.76621   0.08207   0.39308   0.00000  Uiso   1.00
C52    C     0.63354   0.85004   0.78848   0.00000  Uiso   1.00
C53    C     0.70080   0.80817   0.82752   0.00000  Uiso   1.00
C54    C     0.75561   0.83612   0.86908   0.00000  Uiso   1.00
C55    C     0.86217   0.85708   0.94468   0.00000  Uiso   1.00
C56    C     0.43862   0.82164   0.77503   0.00000  Uiso   1.00
C57    C     0.34199   0.75587   0.80277   0.00000  Uiso   1.00
C58    C     0.23268   0.75990   0.83302   0.00000  Uiso   1.00
C59    C     0.03659   0.73675   0.88773   0.00000  Uiso   1.00
C60    C     0.54382   0.95403   0.74400   0.00000  Uiso   1.00
C61    C     0.59876   0.97056   0.66066   0.00000  Uiso   1.00
C62    C     0.63442   0.04324   0.59268   0.00000  Uiso   1.00
C63    C     0.68267   0.04614   0.52212   0.00000  Uiso   1.00
C64    C     0.62145   0.91744   0.79089   0.00000  Uiso   1.00
C65    C     0.67616   0.94546   0.83241   0.00000  Uiso   1.00
C66    C     0.74350   0.90365   0.87149   0.00000  Uiso   1.00
C67    C     0.42652   0.88904   0.77743   0.00000  Uiso   1.00
C68    C     0.31734   0.89317   0.80766   0.00000  Uiso   1.00
C69    C     0.22056   0.82742   0.83544   0.00000  Uiso   1.00
H70    H     0.57551   0.77745   0.73771   0.00000  Uiso   1.00
H71    H     0.66843   0.85377   0.58595   0.00000  Uiso   1.00
H72    H     0.71014   0.75601   0.82565   0.00000  Uiso   1.00
H73    H     0.35138   0.70372   0.80090   0.00000  Uiso   1.00
H74    H     0.76614   0.96811   0.41876   0.00000  Uiso   1.00
H75    H     0.85407   0.76195   0.92420   0.00000  Uiso   1.00
H76    H     0.09756   0.65169   0.87201   0.00000  Uiso   1.00
H77    H     0.53440   0.00650   0.74588   0.00000  Uiso   1.00
H78    H     0.62505   0.09539   0.59456   0.00000  Uiso   1.00
H79    H     0.66677   0.99762   0.83426   0.00000  Uiso   1.00
H80    H     0.30801   0.94534   0.80951   0.00000  Uiso   1.00
H81    H     0.73094   0.16422   0.42574   0.00000  Uiso   1.00
H82    H     0.81887   0.95806   0.93120   0.00000  Uiso   1.00
H83    H     0.06236   0.84780   0.87900   0.00000  Uiso   1.00
O84    O     0.80895   0.12051   0.32256   0.00000  Uiso   1.00
O85    O     0.92429   0.85003   0.98570   0.00000  Uiso   1.00
O86    O     0.93177   0.70537   0.91723   0.00000  Uiso   1.00
N87    N     0.74539   0.00206   0.44116   0.00000  Uiso   1.00
N88    N     0.82762   0.80932   0.91372   0.00000  Uiso   1.00
N89    N     0.12034   0.70623   0.86494   0.00000  Uiso   1.00
N90    N     0.72645   0.10759   0.44493   0.00000  Uiso   1.00
N91    N     0.80868   0.91485   0.91748   0.00000  Uiso   1.00
N92    N     0.10140   0.81176   0.86871   0.00000  Uiso   1.00
C93    C     0.73483   0.42966   0.83149   0.00000  Uiso   1.00
C94    C     0.70823   0.43807   0.90475   0.00000  Uiso   1.00
C95    C     0.75340   0.50556   0.90813   0.00000  Uiso   1.00
C96    C     0.71837   0.50131   0.98072   0.00000  Uiso   1.00
C97    C     0.68890   0.52490   0.08433   0.00000  Uiso   1.00
C98    C     0.78242   0.36031   0.85218   0.00000  Uiso   1.00
C99    C     0.88997   0.36242   0.81135   0.00000  Uiso   1.00
C100   C     0.91738   0.29271   0.83968   0.00000  Uiso   1.00
C101   C     0.00305   0.19556   0.86163   0.00000  Uiso   1.00
C102   C     0.61616   0.40318   0.82177   0.00000  Uiso   1.00
C103   C     0.58391   0.44132   0.75536   0.00000  Uiso   1.00
C104   C     0.47134   0.40768   0.75809   0.00000  Uiso   1.00
C105   C     0.29886   0.37708   0.73282   0.00000  Uiso   1.00
C106   C     0.59229   0.30209   0.95438   0.00000  Uiso   1.00
C107   C     0.63081   0.36878   0.97150   0.00000  Uiso   1.00
C108   C     0.59570   0.36442   0.04410   0.00000  Uiso   1.00
C109   C     0.64081   0.43190   0.04759   0.00000  Uiso   1.00
C110   C     0.70501   0.29102   0.91892   0.00000  Uiso   1.00
C111   C     0.73226   0.22128   0.94732   0.00000  Uiso   1.00
C112   C     0.83982   0.22329   0.90655   0.00000  Uiso   1.00
C113   C     0.53873   0.33388   0.88852   0.00000  Uiso   1.00
C114   C     0.42620   0.30018   0.89134   0.00000  Uiso   1.00
C115   C     0.39378   0.33826   0.82496   0.00000  Uiso   1.00
H116   H     0.79511   0.48360   0.77952   0.00000  Uiso   1.00
H117   H     0.81333   0.55918   0.85646   0.00000  Uiso   1.00
H118   H     0.94986   0.41605   0.75969   0.00000  Uiso   1.00
H119   H     0.64384   0.49494   0.70372   0.00000  Uiso   1.00
H120   H     0.79941   0.61239   0.97121   0.00000  Uiso   1.00
H121   H     0.08728   0.31061   0.76715   0.00000  Uiso   1.00
H122   H     0.44199   0.47695   0.64912   0.00000  Uiso   1.00
H123   H     0.53201   0.24814   0.00636   0.00000  Uiso   1.00
H124   H     0.53579   0.31079   0.09575   0.00000  Uiso   1.00
H125   H     0.67232   0.16767   0.99897   0.00000  Uiso   1.00
H126   H     0.36631   0.24655   0.94300   0.00000  Uiso   1.00
H127   H     0.57416   0.41079   0.16543   0.00000  Uiso   1.00
H128   H     0.86202   0.10901   0.96136   0.00000  Uiso   1.00
H129   H     0.21673   0.27535   0.84333   0.00000  Uiso   1.00
O130   O     0.69404   0.55705   0.12304   0.00000  Uiso   1.00
O131   O     0.07170   0.16112   0.85530   0.00000  Uiso   1.00
O132   O     0.22510   0.37935   0.70045   0.00000  Uiso   1.00
N133   N     0.74586   0.55635   0.00465   0.00000  Uiso   1.00
N134   N     0.01501   0.27421   0.81387   0.00000  Uiso   1.00
N135   N     0.41173   0.42971   0.70351   0.00000  Uiso   1.00
N136   N     0.62465   0.44788   0.10915   0.00000  Uiso   1.00
N137   N     0.89380   0.16573   0.91837   0.00000  Uiso   1.00
N138   N     0.29052   0.32123   0.80802   0.00000  Uiso   1.00
C139   C     0.69429   0.26168   0.56905   0.00000  Uiso   1.00
C140   C     0.72883   0.34322   0.56108   0.00000  Uiso   1.00
C141   C     0.74940   0.41393   0.49358   0.00000  Uiso   1.00
C142   C     0.78004   0.48217   0.49827   0.00000  Uiso   1.00
C143   C     0.83215   0.60915   0.47530   0.00000  Uiso   1.00
C144   C     0.57967   0.21379   0.63735   0.00000  Uiso   1.00
C145   C     0.47482   0.17566   0.63398   0.00000  Uiso   1.00
C146   C     0.37991   0.13494   0.70288   0.00000  Uiso   1.00
C147   C     0.20045   0.06092   0.79834   0.00000  Uiso   1.00
C148   C     0.78660   0.22492   0.59668   0.00000  Uiso   1.00
C149   C     0.85573   0.19614   0.55914   0.00000  Uiso   1.00
C150   C     0.93502   0.16477   0.59381   0.00000  Uiso   1.00
C151   C     0.07686   0.10804   0.62612   0.00000  Uiso   1.00
C152   C     0.71215   0.25714   0.69740   0.00000  Uiso   1.00
C153   C     0.73853   0.34075   0.63080   0.00000  Uiso   1.00
C154   C     0.76916   0.40890   0.63559   0.00000  Uiso   1.00
C155   C     0.78977   0.47970   0.56811   0.00000  Uiso   1.00
C156   C     0.58936   0.21132   0.70706   0.00000  Uiso   1.00
C157   C     0.49458   0.17064   0.77599   0.00000  Uiso   1.00
C158   C     0.38962   0.13246   0.77272   0.00000  Uiso   1.00
C159   C     0.79630   0.22245   0.66640   0.00000  Uiso   1.00
C160   C     0.87549   0.19111   0.70114   0.00000  Uiso   1.00
C161   C     0.94473   0.16229   0.66365   0.00000  Uiso   1.00
H162   H     0.68673   0.26360   0.51478   0.00000  Uiso   1.00
H163   H     0.74187   0.41581   0.43964   0.00000  Uiso   1.00
H164   H     0.46735   0.17758   0.58003   0.00000  Uiso   1.00
H165   H     0.84820   0.19806   0.50519   0.00000  Uiso   1.00
H166   H     0.80724   0.58348   0.38710   0.00000  Uiso   1.00
H167   H     0.22840   0.08113   0.68311   0.00000  Uiso   1.00
H168   H     0.03150   0.12430   0.52530   0.00000  Uiso   1.00
H169   H     0.71970   0.25521   0.75168   0.00000  Uiso   1.00
H170   H     0.77666   0.40697   0.68954   0.00000  Uiso   1.00
H171   H     0.50212   0.16874   0.82993   0.00000  Uiso   1.00
H172   H     0.88298   0.18921   0.75509   0.00000  Uiso   1.00
H173   H     0.83547   0.57630   0.58993   0.00000  Uiso   1.00
H174   H     0.25662   0.07394   0.88594   0.00000  Uiso   1.00
H175   H     0.05972   0.11713   0.72813   0.00000  Uiso   1.00
O176   O     0.85819   0.67987   0.44337   0.00000  Uiso   1.00
O177   O     0.09877   0.02079   0.83172   0.00000  Uiso   1.00
O178   O     0.15242   0.07744   0.62469   0.00000  Uiso   1.00
N179   N     0.80609   0.56097   0.44336   0.00000  Uiso   1.00
N180   N     0.26490   0.09130   0.72010   0.00000  Uiso   1.00
N181   N     0.01571   0.13165   0.57258   0.00000  Uiso   1.00
N182   N     0.82128   0.55711   0.55250   0.00000  Uiso   1.00
N183   N     0.28009   0.08744   0.82924   0.00000  Uiso   1.00
N184   N     0.03090   0.12779   0.68172   0.00000  Uiso   1.00
C185   C     0.43391   0.17007   0.26042   0.00000  Uiso   1.00
C186   C     0.38914   0.09684   0.34175   0.00000  Uiso   1.00
C187   C     0.34093   0.09406   0.41222   0.00000  Uiso   1.00
C188   C     0.30520   0.02139   0.48029   0.00000  Uiso   1.00
C189   C     0.23379   0.91793   0.60692   0.00000  Uiso   1.00
C190   C     0.36646   0.14996   0.21152   0.00000  Uiso   1.00
C191   C     0.29920   0.19183   0.17248   0.00000  Uiso   1.00
C192   C     0.24439   0.16388   0.13092   0.00000  Uiso   1.00
C193   C     0.13783   0.14292   0.05532   0.00000  Uiso   1.00
C194   C     0.56138   0.17836   0.22497   0.00000  Uiso   1.00
C195   C     0.65801   0.24413   0.19723   0.00000  Uiso   1.00
C196   C     0.76732   0.24010   0.16698   0.00000  Uiso   1.00
C197   C     0.96341   0.26324   0.11227   0.00000  Uiso   1.00
C198   C     0.45618   0.04597   0.25600   0.00000  Uiso   1.00
C199   C     0.40124   0.02944   0.33934   0.00000  Uiso   1.00
C200   C     0.36558   0.95676   0.40732   0.00000  Uiso   1.00
C201   C     0.31733   0.95386   0.47788   0.00000  Uiso   1.00
C202   C     0.37855   0.08256   0.20911   0.00000  Uiso   1.00
C203   C     0.32384   0.05454   0.16759   0.00000  Uiso   1.00
C204   C     0.25651   0.09635   0.12851   0.00000  Uiso   1.00
C205   C     0.57348   0.11096   0.22257   0.00000  Uiso   1.00
C206   C     0.68266   0.10683   0.19234   0.00000  Uiso   1.00
C207   C     0.77944   0.17258   0.16456   0.00000  Uiso   1.00
H208   H     0.42449   0.22255   0.26229   0.00000  Uiso   1.00
H209   H     0.33157   0.14623   0.41405   0.00000  Uiso   1.00
H210   H     0.28986   0.24399   0.17435   0.00000  Uiso   1.00
H211   H     0.64862   0.29628   0.19910   0.00000  Uiso   1.00
H212   H     0.23386   0.03189   0.58125   0.00000  Uiso   1.00
H213   H     0.14593   0.23805   0.07580   0.00000  Uiso   1.00
H214   H     0.90245   0.34831   0.12799   0.00000  Uiso   1.00
H215   H     0.46560   0.99350   0.25412   0.00000  Uiso   1.00
H216   H     0.37495   0.90461   0.40544   0.00000  Uiso   1.00
H217   H     0.33323   0.00238   0.16574   0.00000  Uiso   1.00
H218   H     0.69199   0.05466   0.19049   0.00000  Uiso   1.00
H219   H     0.26906   0.83578   0.57426   0.00000  Uiso   1.00
H220   H     0.18113   0.04194   0.06880   0.00000  Uiso   1.00
H221   H     0.93764   0.15220   0.12100   0.00000  Uiso   1.00
O222   O     0.19105   0.87949   0.67744   0.00000  Uiso   1.00
O223   O     0.07571   0.14997   0.01430   0.00000  Uiso   1.00
O224   O     0.06823   0.29462   0.08277   0.00000  Uiso   1.00
N225   N     0.25461   0.99794   0.55884   0.00000  Uiso   1.00
N226   N     0.17238   0.19068   0.08628   0.00000  Uiso   1.00
N227   N     0.87966   0.29377   0.13506   0.00000  Uiso   1.00
N228   N     0.27355   0.89241   0.55507   0.00000  Uiso   1.00
N229   N     0.19132   0.08515   0.08252   0.00000  Uiso   1.00
N230   N     0.89860   0.18824   0.13129   0.00000  Uiso   1.00
C231   C     0.26517   0.57034   0.16851   0.00000  Uiso   1.00
C232   C     0.29177   0.56193   0.09525   0.00000  Uiso   1.00
C233   C     0.24660   0.49444   0.09187   0.00000  Uiso   1.00
C234   C     0.28163   0.49869   0.01928   0.00000  Uiso   1.00
C235   C     0.31110   0.47510   0.91567   0.00000  Uiso   1.00
C236   C     0.21758   0.63969   0.14782   0.00000  Uiso   1.00
C237   C     0.11003   0.63758   0.18865   0.00000  Uiso   1.00
C238   C     0.08262   0.70729   0.16032   0.00000  Uiso   1.00
C239   C     0.99695   0.80444   0.13837   0.00000  Uiso   1.00
C240   C     0.38384   0.59682   0.17823   0.00000  Uiso   1.00
C241   C     0.41609   0.55868   0.24464   0.00000  Uiso   1.00
C242   C     0.52866   0.59232   0.24191   0.00000  Uiso   1.00
C243   C     0.70114   0.62292   0.26718   0.00000  Uiso   1.00
C244   C     0.40771   0.69791   0.04562   0.00000  Uiso   1.00
C245   C     0.36919   0.63122   0.02850   0.00000  Uiso   1.00
C246   C     0.40430   0.63558   0.95590   0.00000  Uiso   1.00
C247   C     0.35919   0.56810   0.95241   0.00000  Uiso   1.00
C248   C     0.29499   0.70898   0.08108   0.00000  Uiso   1.00
C249   C     0.26774   0.77872   0.05268   0.00000  Uiso   1.00
C250   C     0.16018   0.77671   0.09345   0.00000  Uiso   1.00
C251   C     0.46127   0.66612   0.11148   0.00000  Uiso   1.00
C252   C     0.57380   0.69982   0.10866   0.00000  Uiso   1.00
C253   C     0.60622   0.66174   0.17504   0.00000  Uiso   1.00
H254   H     0.20489   0.51640   0.22048   0.00000  Uiso   1.00
H255   H     0.18667   0.44082   0.14354   0.00000  Uiso   1.00
H256   H     0.05015   0.58395   0.24031   0.00000  Uiso   1.00
H257   H     0.35616   0.50506   0.29628   0.00000  Uiso   1.00
H258   H     0.20059   0.38761   0.02879   0.00000  Uiso   1.00
H259   H     0.91272   0.68939   0.23285   0.00000  Uiso   1.00
H260   H     0.55801   0.52305   0.35088   0.00000  Uiso   1.00
H261   H     0.46799   0.75186   0.99365   0.00000  Uiso   1.00
H262   H     0.46421   0.68921   0.90425   0.00000  Uiso   1.00
H263   H     0.32768   0.83233   0.00103   0.00000  Uiso   1.00
H264   H     0.63369   0.75345   0.05700   0.00000  Uiso   1.00
H265   H     0.42584   0.58921   0.83457   0.00000  Uiso   1.00
H266   H     0.13798   0.89099   0.03864   0.00000  Uiso   1.00
H267   H     0.78327   0.72465   0.15667   0.00000  Uiso   1.00
O268   O     0.30596   0.44295   0.87696   0.00000  Uiso   1.00
O269   O     0.92830   0.83888   0.14470   0.00000  Uiso   1.00
O270   O     0.77490   0.62065   0.29955   0.00000  Uiso   1.00
N271   N     0.25414   0.44365   0.99535   0.00000  Uiso   1.00
N272   N     0.98499   0.72579   0.18613   0.00000  Uiso   1.00
N273   N     0.58827   0.57029   0.29649   0.00000  Uiso   1.00
N274   N     0.37535   0.55212   0.89085   0.00000  Uiso   1.00
N275   N     0.10620   0.83427   0.08163   0.00000  Uiso   1.00
N276   N     0.70948   0.67877   0.19199   0.00000  Uiso   1.00
