data_job_05456
_audit_creation_date              2018-12-19
_audit_creation_method            'Materials Studio'
_symmetry_space_group_name_H-M    'P1'
_symmetry_Int_Tables_number       1
_symmetry_cell_setting            triclinic
loop_
_symmetry_equiv_pos_as_xyz
  x,y,z
_cell_length_a                    22.3973
_cell_length_b                    14.2825
_cell_length_c                    12.4596
_cell_angle_alpha                 90.0000
_cell_angle_beta                  76.7610
_cell_angle_gamma                 90.0000
loop_
_atom_site_label
_atom_site_type_symbol
_atom_site_fract_x
_atom_site_fract_y
_atom_site_fract_z
_atom_site_U_iso_or_equiv
_atom_site_adp_type
_atom_site_occupancy
C1     C     0.34798   0.18192   0.28389   0.00000  Uiso   1.00
C2     C     0.37835   0.18835   0.16139   0.00000  Uiso   1.00
C3     C     0.39312   0.11318   0.08964   0.00000  Uiso   1.00
C4     C     0.42072   0.13370   0.98065   0.00000  Uiso   1.00
C5     C     0.46602   0.12963   0.79589   0.00000  Uiso   1.00
C6     C     0.39090   0.23199   0.34397   0.00000  Uiso   1.00
C7     C     0.41621   0.19350   0.42574   0.00000  Uiso   1.00
C8     C     0.45437   0.25077   0.47046   0.00000  Uiso   1.00
C9     C     0.51913   0.31446   0.56922   0.00000  Uiso   1.00
C10    C     0.29029   0.24200   0.30112   0.00000  Uiso   1.00
C11    C     0.23100   0.21195   0.34689   0.00000  Uiso   1.00
C12    C     0.18444   0.27765   0.35555   0.00000  Uiso   1.00
C13    C     0.09297   0.35689   0.38778   0.00000  Uiso   1.00
C14    C     0.37073   0.35205   0.21792   0.00000  Uiso   1.00
C15    C     0.39071   0.28076   0.12556   0.00000  Uiso   1.00
C16    C     0.41829   0.30140   0.01664   0.00000  Uiso   1.00
C17    C     0.43310   0.22627   0.94475   0.00000  Uiso   1.00
C18    C     0.40326   0.32439   0.30814   0.00000  Uiso   1.00
C19    C     0.44139   0.38173   0.35275   0.00000  Uiso   1.00
C20    C     0.46675   0.34334   0.43456   0.00000  Uiso   1.00
C21    C     0.30264   0.33441   0.26528   0.00000  Uiso   1.00
C22    C     0.25617   0.40017   0.27389   0.00000  Uiso   1.00
C23    C     0.19682   0.37022   0.31965   0.00000  Uiso   1.00
H24    H     0.33836   0.10998   0.31180   0.00000  Uiso   1.00
H25    H     0.38355   0.04167   0.11741   0.00000  Uiso   1.00
H26    H     0.40664   0.12199   0.45346   0.00000  Uiso   1.00
H27    H     0.22145   0.14043   0.37461   0.00000  Uiso   1.00
H28    H     0.43913   0.00670   0.88609   0.00000  Uiso   1.00
H29    H     0.48779   0.17606   0.59471   0.00000  Uiso   1.00
H30    H     0.09728   0.21494   0.42845   0.00000  Uiso   1.00
H31    H     0.38036   0.42399   0.19002   0.00000  Uiso   1.00
H32    H     0.42785   0.37292   0.98894   0.00000  Uiso   1.00
H33    H     0.45094   0.45324   0.32500   0.00000  Uiso   1.00
H34    H     0.26575   0.47167   0.24615   0.00000  Uiso   1.00
H35    H     0.47508   0.27555   0.78182   0.00000  Uiso   1.00
H36    H     0.52374   0.44491   0.49045   0.00000  Uiso   1.00
H37    H     0.13324   0.48379   0.32418   0.00000  Uiso   1.00
O38    O     0.48761   0.10186   0.70389   0.00000  Uiso   1.00
O39    O     0.55144   0.32406   0.63358   0.00000  Uiso   1.00
O40    O     0.03911   0.37507   0.41544   0.00000  Uiso   1.00
N41    N     0.44106   0.07698   0.88914   0.00000  Uiso   1.00
N42    N     0.48656   0.23532   0.55165   0.00000  Uiso   1.00
N43    N     0.12147   0.27168   0.39623   0.00000  Uiso   1.00
N44    N     0.46041   0.22165   0.83304   0.00000  Uiso   1.00
N45    N     0.50591   0.37999   0.49554   0.00000  Uiso   1.00
N46    N     0.14082   0.41634   0.34012   0.00000  Uiso   1.00
C47    C     0.26936   0.81653   0.42882   0.00000  Uiso   1.00
C48    C     0.30373   0.81028   0.52102   0.00000  Uiso   1.00
C49    C     0.32125   0.88559   0.57715   0.00000  Uiso   1.00
C50    C     0.35233   0.86522   0.65876   0.00000  Uiso   1.00
C51    C     0.40374   0.86956   0.79816   0.00000  Uiso   1.00
C52    C     0.30906   0.76562   0.33033   0.00000  Uiso   1.00
C53    C     0.33106   0.80340   0.22614   0.00000  Uiso   1.00
C54    C     0.36663   0.74543   0.14724   0.00000  Uiso   1.00
C55    C     0.42629   0.68043   0.99057   0.00000  Uiso   1.00
C56    C     0.21176   0.75712   0.46602   0.00000  Uiso   1.00
C57    C     0.15193   0.78773   0.47588   0.00000  Uiso   1.00
C58    C     0.10557   0.72260   0.51119   0.00000  Uiso   1.00
C59    C     0.01415   0.64440   0.56520   0.00000  Uiso   1.00
C60    C     0.29340   0.64642   0.47395   0.00000  Uiso   1.00
C61    C     0.31679   0.71788   0.54552   0.00000  Uiso   1.00
C62    C     0.34785   0.69739   0.62708   0.00000  Uiso   1.00
C63    C     0.36541   0.77266   0.68333   0.00000  Uiso   1.00
C64    C     0.32213   0.67323   0.35484   0.00000  Uiso   1.00
C65    C     0.35766   0.61519   0.27607   0.00000  Uiso   1.00
C66    C     0.37971   0.65287   0.17179   0.00000  Uiso   1.00
C67    C     0.22481   0.66472   0.49053   0.00000  Uiso   1.00
C68    C     0.17854   0.59953   0.52582   0.00000  Uiso   1.00
C69    C     0.11866   0.63004   0.53574   0.00000  Uiso   1.00
H70    H     0.25919   0.88846   0.40972   0.00000  Uiso   1.00
H71    H     0.31114   0.95709   0.55814   0.00000  Uiso   1.00
H72    H     0.32094   0.87490   0.20719   0.00000  Uiso   1.00
H73    H     0.14185   0.85924   0.45690   0.00000  Uiso   1.00
H74    H     0.37451   0.99242   0.73348   0.00000  Uiso   1.00
H75    H     0.39517   0.81912   0.99347   0.00000  Uiso   1.00
H76    H     0.01751   0.78609   0.52003   0.00000  Uiso   1.00
H77    H     0.30357   0.57448   0.49303   0.00000  Uiso   1.00
H78    H     0.35795   0.62588   0.64603   0.00000  Uiso   1.00
H79    H     0.36776   0.54369   0.29507   0.00000  Uiso   1.00
H80    H     0.18866   0.52803   0.54478   0.00000  Uiso   1.00
H81    H     0.41251   0.72360   0.80481   0.00000  Uiso   1.00
H82    H     0.43317   0.55030   0.06479   0.00000  Uiso   1.00
H83    H     0.05550   0.51727   0.59135   0.00000  Uiso   1.00
O84    O     0.42850   0.89749   0.86826   0.00000  Uiso   1.00
O85    O     0.45559   0.67011   0.89739   0.00000  Uiso   1.00
O86    O     0.96011   0.62679   0.58823   0.00000  Uiso   1.00
N87    N     0.37598   0.92210   0.72929   0.00000  Uiso   1.00
N88    N     0.39530   0.76008   0.03742   0.00000  Uiso   1.00
N89    N     0.04222   0.72919   0.52968   0.00000  Uiso   1.00
N90    N     0.39642   0.77745   0.76767   0.00000  Uiso   1.00
N91    N     0.41575   0.61543   0.07580   0.00000  Uiso   1.00
N92    N     0.06267   0.58454   0.56806   0.00000  Uiso   1.00
C93    C     0.65202   0.68192   0.71611   0.00000  Uiso   1.00
C94    C     0.62165   0.68835   0.83861   0.00000  Uiso   1.00
C95    C     0.60688   0.61318   0.91036   0.00000  Uiso   1.00
C96    C     0.57928   0.63370   0.01935   0.00000  Uiso   1.00
C97    C     0.53398   0.62963   0.20411   0.00000  Uiso   1.00
C98    C     0.60910   0.73199   0.65603   0.00000  Uiso   1.00
C99    C     0.58379   0.69350   0.57426   0.00000  Uiso   1.00
C100   C     0.54563   0.75077   0.52954   0.00000  Uiso   1.00
C101   C     0.48087   0.81446   0.43078   0.00000  Uiso   1.00
C102   C     0.70971   0.74200   0.69888   0.00000  Uiso   1.00
C103   C     0.76900   0.71195   0.65311   0.00000  Uiso   1.00
C104   C     0.81556   0.77765   0.64445   0.00000  Uiso   1.00
C105   C     0.90703   0.85689   0.61222   0.00000  Uiso   1.00
C106   C     0.62927   0.85205   0.78208   0.00000  Uiso   1.00
C107   C     0.60929   0.78076   0.87444   0.00000  Uiso   1.00
C108   C     0.58171   0.80140   0.98336   0.00000  Uiso   1.00
C109   C     0.56690   0.72627   0.05525   0.00000  Uiso   1.00
C110   C     0.59674   0.82439   0.69186   0.00000  Uiso   1.00
C111   C     0.55861   0.88173   0.64725   0.00000  Uiso   1.00
C112   C     0.53325   0.84334   0.56544   0.00000  Uiso   1.00
C113   C     0.69736   0.83441   0.73472   0.00000  Uiso   1.00
C114   C     0.74383   0.90017   0.72611   0.00000  Uiso   1.00
C115   C     0.80318   0.87022   0.68035   0.00000  Uiso   1.00
H116   H     0.66164   0.60998   0.68820   0.00000  Uiso   1.00
H117   H     0.61645   0.54167   0.88259   0.00000  Uiso   1.00
H118   H     0.59336   0.62199   0.54654   0.00000  Uiso   1.00
H119   H     0.77855   0.64043   0.62539   0.00000  Uiso   1.00
H120   H     0.56087   0.50670   0.11391   0.00000  Uiso   1.00
H121   H     0.51221   0.67606   0.40529   0.00000  Uiso   1.00
H122   H     0.90272   0.71494   0.57155   0.00000  Uiso   1.00
H123   H     0.61964   0.92399   0.80998   0.00000  Uiso   1.00
H124   H     0.57215   0.87292   0.01106   0.00000  Uiso   1.00
H125   H     0.54906   0.95324   0.67500   0.00000  Uiso   1.00
H126   H     0.73425   0.97167   0.75385   0.00000  Uiso   1.00
H127   H     0.52492   0.77555   0.21818   0.00000  Uiso   1.00
H128   H     0.47626   0.94491   0.50955   0.00000  Uiso   1.00
H129   H     0.86676   0.98379   0.67582   0.00000  Uiso   1.00
O130   O     0.51239   0.60186   0.29611   0.00000  Uiso   1.00
O131   O     0.44856   0.82406   0.36642   0.00000  Uiso   1.00
O132   O     0.96089   0.87507   0.58456   0.00000  Uiso   1.00
N133   N     0.55894   0.57698   0.11086   0.00000  Uiso   1.00
N134   N     0.51344   0.73532   0.44835   0.00000  Uiso   1.00
N135   N     0.87853   0.77168   0.60377   0.00000  Uiso   1.00
N136   N     0.53959   0.72165   0.16696   0.00000  Uiso   1.00
N137   N     0.49409   0.87999   0.50446   0.00000  Uiso   1.00
N138   N     0.85918   0.91634   0.65988   0.00000  Uiso   1.00
C139   C     0.73064   0.31653   0.57118   0.00000  Uiso   1.00
C140   C     0.69627   0.31028   0.47898   0.00000  Uiso   1.00
C141   C     0.67875   0.38559   0.42285   0.00000  Uiso   1.00
C142   C     0.64767   0.36522   0.34124   0.00000  Uiso   1.00
C143   C     0.59626   0.36956   0.20184   0.00000  Uiso   1.00
C144   C     0.69094   0.26562   0.66967   0.00000  Uiso   1.00
C145   C     0.66894   0.30340   0.77386   0.00000  Uiso   1.00
C146   C     0.63337   0.24543   0.85276   0.00000  Uiso   1.00
C147   C     0.57371   0.18043   0.00943   0.00000  Uiso   1.00
C148   C     0.78824   0.25712   0.53398   0.00000  Uiso   1.00
C149   C     0.84807   0.28773   0.52412   0.00000  Uiso   1.00
C150   C     0.89443   0.22260   0.48881   0.00000  Uiso   1.00
C151   C     0.98585   0.14440   0.43480   0.00000  Uiso   1.00
C152   C     0.70660   0.14642   0.52605   0.00000  Uiso   1.00
C153   C     0.68321   0.21788   0.45448   0.00000  Uiso   1.00
C154   C     0.65215   0.19739   0.37292   0.00000  Uiso   1.00
C155   C     0.63459   0.27266   0.31667   0.00000  Uiso   1.00
C156   C     0.67787   0.17323   0.64516   0.00000  Uiso   1.00
C157   C     0.64234   0.11519   0.72393   0.00000  Uiso   1.00
C158   C     0.62029   0.15287   0.82821   0.00000  Uiso   1.00
C159   C     0.77519   0.16472   0.50947   0.00000  Uiso   1.00
C160   C     0.82146   0.09953   0.47418   0.00000  Uiso   1.00
C161   C     0.88134   0.13004   0.46426   0.00000  Uiso   1.00
H162   H     0.74081   0.38846   0.59028   0.00000  Uiso   1.00
H163   H     0.68886   0.45709   0.44186   0.00000  Uiso   1.00
H164   H     0.67906   0.37490   0.79281   0.00000  Uiso   1.00
H165   H     0.85815   0.35924   0.54310   0.00000  Uiso   1.00
H166   H     0.62549   0.49242   0.26652   0.00000  Uiso   1.00
H167   H     0.60483   0.31912   0.00653   0.00000  Uiso   1.00
H168   H     0.98249   0.28609   0.47997   0.00000  Uiso   1.00
H169   H     0.69643   0.07448   0.50697   0.00000  Uiso   1.00
H170   H     0.64205   0.12588   0.35397   0.00000  Uiso   1.00
H171   H     0.63224   0.04369   0.70493   0.00000  Uiso   1.00
H172   H     0.81134   0.02803   0.45522   0.00000  Uiso   1.00
H173   H     0.58749   0.22360   0.19519   0.00000  Uiso   1.00
H174   H     0.56683   0.05030   0.93521   0.00000  Uiso   1.00
H175   H     0.94450   0.01727   0.40865   0.00000  Uiso   1.00
O176   O     0.57150   0.39749   0.13174   0.00000  Uiso   1.00
O177   O     0.54441   0.17011   0.10261   0.00000  Uiso   1.00
O178   O     0.03989   0.12679   0.41177   0.00000  Uiso   1.00
N179   N     0.62402   0.42210   0.27071   0.00000  Uiso   1.00
N180   N     0.60470   0.26008   0.96258   0.00000  Uiso   1.00
N181   N     0.95778   0.22919   0.47032   0.00000  Uiso   1.00
N182   N     0.60358   0.27745   0.23233   0.00000  Uiso   1.00
N183   N     0.58425   0.11543   0.92420   0.00000  Uiso   1.00
N184   N     0.93733   0.08454   0.43194   0.00000  Uiso   1.00
