data_job_01703
_audit_creation_date              2018-12-19
_audit_creation_method            'Materials Studio'
_symmetry_space_group_name_H-M    'P1'
_symmetry_Int_Tables_number       1
_symmetry_cell_setting            triclinic
loop_
_symmetry_equiv_pos_as_xyz
  x,y,z
_cell_length_a                    41.7959
_cell_length_b                    12.8174
_cell_length_c                    25.5497
_cell_angle_alpha                 90.0000
_cell_angle_beta                  149.1091
_cell_angle_gamma                 90.0000
loop_
_atom_site_label
_atom_site_type_symbol
_atom_site_fract_x
_atom_site_fract_y
_atom_site_fract_z
_atom_site_U_iso_or_equiv
_atom_site_adp_type
_atom_site_occupancy
C1     C     0.32519   0.01640   0.25862   0.00000  Uiso   1.00
C2     C     0.36698   0.93104   0.29500   0.00000  Uiso   1.00
C3     C     0.41293   0.87767   0.38678   0.00000  Uiso   1.00
C4     C     0.44609   0.80238   0.40594   0.00000  Uiso   1.00
C5     C     0.51289   0.67308   0.47312   0.00000  Uiso   1.00
C6     C     0.33454   0.11141   0.23670   0.00000  Uiso   1.00
C7     C     0.35322   0.20970   0.27947   0.00000  Uiso   1.00
C8     C     0.35907   0.28623   0.24954   0.00000  Uiso   1.00
C9     C     0.37547   0.43698   0.22616   0.00000  Uiso   1.00
C10    C     0.25840   0.98016   0.15564   0.00000  Uiso   1.00
C11    C     0.21305   0.96811   0.13023   0.00000  Uiso   1.00
C12    C     0.15479   0.93417   0.03204   0.00000  Uiso   1.00
C13    C     0.05296   0.88113   0.88279   0.00000  Uiso   1.00
C14    C     0.30236   0.97759   0.12943   0.00000  Uiso   1.00
C15    C     0.35457   0.90996   0.22483   0.00000  Uiso   1.00
C16    C     0.38767   0.83472   0.24385   0.00000  Uiso   1.00
C17    C     0.43367   0.78125   0.33564   0.00000  Uiso   1.00
C18    C     0.32214   0.09033   0.16654   0.00000  Uiso   1.00
C19    C     0.32796   0.16674   0.13653   0.00000  Uiso   1.00
C20    C     0.34665   0.26511   0.17924   0.00000  Uiso   1.00
C21    C     0.24600   0.95908   0.08547   0.00000  Uiso   1.00
C22    C     0.18779   0.92516   0.98729   0.00000  Uiso   1.00
C23    C     0.14236   0.91305   0.96174   0.00000  Uiso   1.00
H24    H     0.33484   0.03283   0.31325   0.00000  Uiso   1.00
H25    H     0.42252   0.89402   0.44107   0.00000  Uiso   1.00
H26    H     0.36281   0.22599   0.33376   0.00000  Uiso   1.00
H27    H     0.22266   0.98444   0.18455   0.00000  Uiso   1.00
H28    H     0.51427   0.73085   0.55185   0.00000  Uiso   1.00
H29    H     0.38835   0.43084   0.32556   0.00000  Uiso   1.00
H30    H     0.09282   0.92149   0.01091   0.00000  Uiso   1.00
H31    H     0.29270   0.96117   0.07480   0.00000  Uiso   1.00
H32    H     0.37806   0.81842   0.18953   0.00000  Uiso   1.00
H33    H     0.31836   0.15040   0.08222   0.00000  Uiso   1.00
H34    H     0.17821   0.90885   0.93301   0.00000  Uiso   1.00
H35    H     0.47819   0.66950   0.34769   0.00000  Uiso   1.00
H36    H     0.35227   0.36949   0.12140   0.00000  Uiso   1.00
H37    H     0.05674   0.86014   0.80675   0.00000  Uiso   1.00
O38    O     0.55316   0.60759   0.52956   0.00000  Uiso   1.00
O39    O     0.38795   0.52595   0.23266   0.00000  Uiso   1.00
O40    O     0.00023   0.85769   0.81986   0.00000  Uiso   1.00
N41    N     0.49405   0.73599   0.48805   0.00000  Uiso   1.00
N42    N     0.37634   0.39043   0.27649   0.00000  Uiso   1.00
N43    N     0.10004   0.91426   0.98231   0.00000  Uiso   1.00
N44    N     0.47464   0.70298   0.37819   0.00000  Uiso   1.00
N45    N     0.35693   0.35742   0.16663   0.00000  Uiso   1.00
N46    N     0.08063   0.88124   0.87246   0.00000  Uiso   1.00
C47    C     0.82519   0.51640   0.25862   0.00000  Uiso   1.00
C48    C     0.86698   0.43104   0.29500   0.00000  Uiso   1.00
C49    C     0.91293   0.37767   0.38678   0.00000  Uiso   1.00
C50    C     0.94609   0.30238   0.40594   0.00000  Uiso   1.00
C51    C     0.01289   0.17308   0.47312   0.00000  Uiso   1.00
C52    C     0.83454   0.61141   0.23670   0.00000  Uiso   1.00
C53    C     0.85322   0.70970   0.27947   0.00000  Uiso   1.00
C54    C     0.85907   0.78623   0.24954   0.00000  Uiso   1.00
C55    C     0.87547   0.93698   0.22616   0.00000  Uiso   1.00
C56    C     0.75840   0.48016   0.15564   0.00000  Uiso   1.00
C57    C     0.71305   0.46811   0.13023   0.00000  Uiso   1.00
C58    C     0.65479   0.43417   0.03204   0.00000  Uiso   1.00
C59    C     0.55296   0.38113   0.88279   0.00000  Uiso   1.00
C60    C     0.80236   0.47759   0.12943   0.00000  Uiso   1.00
C61    C     0.85457   0.40996   0.22483   0.00000  Uiso   1.00
C62    C     0.88767   0.33472   0.24385   0.00000  Uiso   1.00
C63    C     0.93367   0.28125   0.33564   0.00000  Uiso   1.00
C64    C     0.82214   0.59033   0.16654   0.00000  Uiso   1.00
C65    C     0.82796   0.66674   0.13653   0.00000  Uiso   1.00
C66    C     0.84665   0.76511   0.17924   0.00000  Uiso   1.00
C67    C     0.74600   0.45908   0.08547   0.00000  Uiso   1.00
C68    C     0.68779   0.42516   0.98729   0.00000  Uiso   1.00
C69    C     0.64236   0.41305   0.96174   0.00000  Uiso   1.00
H70    H     0.83484   0.53283   0.31325   0.00000  Uiso   1.00
H71    H     0.92252   0.39402   0.44107   0.00000  Uiso   1.00
H72    H     0.86281   0.72599   0.33376   0.00000  Uiso   1.00
H73    H     0.72266   0.48444   0.18455   0.00000  Uiso   1.00
H74    H     0.01427   0.23085   0.55185   0.00000  Uiso   1.00
H75    H     0.88835   0.93084   0.32556   0.00000  Uiso   1.00
H76    H     0.59282   0.42149   0.01091   0.00000  Uiso   1.00
H77    H     0.79270   0.46117   0.07480   0.00000  Uiso   1.00
H78    H     0.87806   0.31842   0.18953   0.00000  Uiso   1.00
H79    H     0.81836   0.65040   0.08222   0.00000  Uiso   1.00
H80    H     0.67821   0.40885   0.93301   0.00000  Uiso   1.00
H81    H     0.97819   0.16950   0.34769   0.00000  Uiso   1.00
H82    H     0.85227   0.86949   0.12140   0.00000  Uiso   1.00
H83    H     0.55674   0.36014   0.80675   0.00000  Uiso   1.00
O84    O     0.05316   0.10759   0.52956   0.00000  Uiso   1.00
O85    O     0.88795   0.02595   0.23266   0.00000  Uiso   1.00
O86    O     0.50023   0.35769   0.81986   0.00000  Uiso   1.00
N87    N     0.99405   0.23599   0.48805   0.00000  Uiso   1.00
N88    N     0.87634   0.89043   0.27649   0.00000  Uiso   1.00
N89    N     0.60004   0.41426   0.98231   0.00000  Uiso   1.00
N90    N     0.97464   0.20298   0.37819   0.00000  Uiso   1.00
N91    N     0.85693   0.85742   0.16663   0.00000  Uiso   1.00
N92    N     0.58063   0.38124   0.87246   0.00000  Uiso   1.00
C93    C     0.67481   0.01640   0.24138   0.00000  Uiso   1.00
C94    C     0.63302   0.93104   0.20500   0.00000  Uiso   1.00
C95    C     0.58707   0.87767   0.11322   0.00000  Uiso   1.00
C96    C     0.55391   0.80238   0.09406   0.00000  Uiso   1.00
C97    C     0.48711   0.67308   0.02688   0.00000  Uiso   1.00
C98    C     0.66546   0.11141   0.26330   0.00000  Uiso   1.00
C99    C     0.64678   0.20970   0.22053   0.00000  Uiso   1.00
C100   C     0.64093   0.28623   0.25046   0.00000  Uiso   1.00
C101   C     0.62453   0.43698   0.27384   0.00000  Uiso   1.00
C102   C     0.74160   0.98016   0.34436   0.00000  Uiso   1.00
C103   C     0.78695   0.96811   0.36977   0.00000  Uiso   1.00
C104   C     0.84521   0.93417   0.46796   0.00000  Uiso   1.00
C105   C     0.94704   0.88113   0.61721   0.00000  Uiso   1.00
C106   C     0.69764   0.97759   0.37057   0.00000  Uiso   1.00
C107   C     0.64543   0.90996   0.27517   0.00000  Uiso   1.00
C108   C     0.61233   0.83472   0.25615   0.00000  Uiso   1.00
C109   C     0.56633   0.78125   0.16436   0.00000  Uiso   1.00
C110   C     0.67786   0.09033   0.33346   0.00000  Uiso   1.00
C111   C     0.67204   0.16674   0.36347   0.00000  Uiso   1.00
C112   C     0.65335   0.26511   0.32076   0.00000  Uiso   1.00
C113   C     0.75400   0.95908   0.41453   0.00000  Uiso   1.00
C114   C     0.81221   0.92516   0.51271   0.00000  Uiso   1.00
C115   C     0.85764   0.91305   0.53826   0.00000  Uiso   1.00
H116   H     0.66516   0.03283   0.18675   0.00000  Uiso   1.00
H117   H     0.57748   0.89402   0.05893   0.00000  Uiso   1.00
H118   H     0.63719   0.22599   0.16624   0.00000  Uiso   1.00
H119   H     0.77734   0.98444   0.31545   0.00000  Uiso   1.00
H120   H     0.48573   0.73085   0.94815   0.00000  Uiso   1.00
H121   H     0.61165   0.43084   0.17444   0.00000  Uiso   1.00
H122   H     0.90718   0.92149   0.48909   0.00000  Uiso   1.00
H123   H     0.70730   0.96117   0.42520   0.00000  Uiso   1.00
H124   H     0.62194   0.81842   0.31047   0.00000  Uiso   1.00
H125   H     0.68164   0.15040   0.41778   0.00000  Uiso   1.00
H126   H     0.82179   0.90885   0.56699   0.00000  Uiso   1.00
H127   H     0.52181   0.66950   0.15231   0.00000  Uiso   1.00
H128   H     0.64773   0.36949   0.37860   0.00000  Uiso   1.00
H129   H     0.94326   0.86014   0.69325   0.00000  Uiso   1.00
O130   O     0.44684   0.60759   0.97044   0.00000  Uiso   1.00
O131   O     0.61205   0.52595   0.26734   0.00000  Uiso   1.00
O132   O     0.99977   0.85769   0.68014   0.00000  Uiso   1.00
N133   N     0.50595   0.73599   0.01195   0.00000  Uiso   1.00
N134   N     0.62366   0.39043   0.22351   0.00000  Uiso   1.00
N135   N     0.89996   0.91426   0.51769   0.00000  Uiso   1.00
N136   N     0.52536   0.70298   0.12181   0.00000  Uiso   1.00
N137   N     0.64307   0.35742   0.33337   0.00000  Uiso   1.00
N138   N     0.91937   0.88124   0.62754   0.00000  Uiso   1.00
C139   C     0.17481   0.51640   0.24138   0.00000  Uiso   1.00
C140   C     0.13302   0.43104   0.20500   0.00000  Uiso   1.00
C141   C     0.08707   0.37767   0.11322   0.00000  Uiso   1.00
C142   C     0.05391   0.30238   0.09406   0.00000  Uiso   1.00
C143   C     0.98711   0.17308   0.02688   0.00000  Uiso   1.00
C144   C     0.16546   0.61141   0.26330   0.00000  Uiso   1.00
C145   C     0.14678   0.70970   0.22053   0.00000  Uiso   1.00
C146   C     0.14093   0.78623   0.25046   0.00000  Uiso   1.00
C147   C     0.12453   0.93698   0.27384   0.00000  Uiso   1.00
C148   C     0.24160   0.48016   0.34436   0.00000  Uiso   1.00
C149   C     0.28695   0.46811   0.36977   0.00000  Uiso   1.00
C150   C     0.34521   0.43417   0.46796   0.00000  Uiso   1.00
C151   C     0.44704   0.38113   0.61721   0.00000  Uiso   1.00
C152   C     0.19764   0.47759   0.37057   0.00000  Uiso   1.00
C153   C     0.14543   0.40996   0.27517   0.00000  Uiso   1.00
C154   C     0.11233   0.33472   0.25615   0.00000  Uiso   1.00
C155   C     0.06633   0.28125   0.16436   0.00000  Uiso   1.00
C156   C     0.17786   0.59033   0.33346   0.00000  Uiso   1.00
C157   C     0.17204   0.66674   0.36347   0.00000  Uiso   1.00
C158   C     0.15335   0.76511   0.32076   0.00000  Uiso   1.00
C159   C     0.25400   0.45908   0.41453   0.00000  Uiso   1.00
C160   C     0.31221   0.42516   0.51271   0.00000  Uiso   1.00
C161   C     0.35764   0.41305   0.53826   0.00000  Uiso   1.00
H162   H     0.16516   0.53283   0.18675   0.00000  Uiso   1.00
H163   H     0.07748   0.39402   0.05893   0.00000  Uiso   1.00
H164   H     0.13719   0.72599   0.16624   0.00000  Uiso   1.00
H165   H     0.27734   0.48444   0.31545   0.00000  Uiso   1.00
H166   H     0.98573   0.23085   0.94815   0.00000  Uiso   1.00
H167   H     0.11165   0.93084   0.17444   0.00000  Uiso   1.00
H168   H     0.40718   0.42149   0.48909   0.00000  Uiso   1.00
H169   H     0.20730   0.46117   0.42520   0.00000  Uiso   1.00
H170   H     0.12194   0.31842   0.31047   0.00000  Uiso   1.00
H171   H     0.18164   0.65040   0.41778   0.00000  Uiso   1.00
H172   H     0.32179   0.40885   0.56699   0.00000  Uiso   1.00
H173   H     0.02181   0.16950   0.15231   0.00000  Uiso   1.00
H174   H     0.14773   0.86949   0.37860   0.00000  Uiso   1.00
H175   H     0.44326   0.36014   0.69325   0.00000  Uiso   1.00
O176   O     0.94684   0.10759   0.97044   0.00000  Uiso   1.00
O177   O     0.11205   0.02595   0.26734   0.00000  Uiso   1.00
O178   O     0.49977   0.35769   0.68014   0.00000  Uiso   1.00
N179   N     0.00595   0.23599   0.01195   0.00000  Uiso   1.00
N180   N     0.12366   0.89043   0.22351   0.00000  Uiso   1.00
N181   N     0.39996   0.41426   0.51769   0.00000  Uiso   1.00
N182   N     0.02536   0.20298   0.12181   0.00000  Uiso   1.00
N183   N     0.14307   0.85742   0.33337   0.00000  Uiso   1.00
N184   N     0.41937   0.38124   0.62754   0.00000  Uiso   1.00
C185   C     0.67481   0.98360   0.74138   0.00000  Uiso   1.00
C186   C     0.63302   0.06896   0.70500   0.00000  Uiso   1.00
C187   C     0.58707   0.12233   0.61322   0.00000  Uiso   1.00
C188   C     0.55391   0.19762   0.59406   0.00000  Uiso   1.00
C189   C     0.48711   0.32692   0.52688   0.00000  Uiso   1.00
C190   C     0.66546   0.88859   0.76330   0.00000  Uiso   1.00
C191   C     0.64678   0.79030   0.72053   0.00000  Uiso   1.00
C192   C     0.64093   0.71377   0.75046   0.00000  Uiso   1.00
C193   C     0.62453   0.56302   0.77384   0.00000  Uiso   1.00
C194   C     0.74160   0.01984   0.84436   0.00000  Uiso   1.00
C195   C     0.78695   0.03189   0.86977   0.00000  Uiso   1.00
C196   C     0.84521   0.06583   0.96796   0.00000  Uiso   1.00
C197   C     0.94704   0.11887   0.11721   0.00000  Uiso   1.00
C198   C     0.69764   0.02241   0.87057   0.00000  Uiso   1.00
C199   C     0.64543   0.09004   0.77517   0.00000  Uiso   1.00
C200   C     0.61233   0.16528   0.75615   0.00000  Uiso   1.00
C201   C     0.56633   0.21875   0.66436   0.00000  Uiso   1.00
C202   C     0.67786   0.90967   0.83346   0.00000  Uiso   1.00
C203   C     0.67204   0.83326   0.86347   0.00000  Uiso   1.00
C204   C     0.65335   0.73489   0.82076   0.00000  Uiso   1.00
C205   C     0.75400   0.04092   0.91453   0.00000  Uiso   1.00
C206   C     0.81221   0.07484   0.01271   0.00000  Uiso   1.00
C207   C     0.85764   0.08695   0.03826   0.00000  Uiso   1.00
H208   H     0.66516   0.96717   0.68675   0.00000  Uiso   1.00
H209   H     0.57748   0.10598   0.55893   0.00000  Uiso   1.00
H210   H     0.63719   0.77401   0.66624   0.00000  Uiso   1.00
H211   H     0.77734   0.01556   0.81545   0.00000  Uiso   1.00
H212   H     0.48573   0.26915   0.44815   0.00000  Uiso   1.00
H213   H     0.61165   0.56916   0.67444   0.00000  Uiso   1.00
H214   H     0.90718   0.07851   0.98909   0.00000  Uiso   1.00
H215   H     0.70730   0.03883   0.92520   0.00000  Uiso   1.00
H216   H     0.62194   0.18158   0.81047   0.00000  Uiso   1.00
H217   H     0.68164   0.84960   0.91778   0.00000  Uiso   1.00
H218   H     0.82179   0.09115   0.06699   0.00000  Uiso   1.00
H219   H     0.52181   0.33050   0.65231   0.00000  Uiso   1.00
H220   H     0.64773   0.63051   0.87860   0.00000  Uiso   1.00
H221   H     0.94326   0.13986   0.19325   0.00000  Uiso   1.00
O222   O     0.44684   0.39241   0.47044   0.00000  Uiso   1.00
O223   O     0.61205   0.47405   0.76734   0.00000  Uiso   1.00
O224   O     0.99977   0.14231   0.18014   0.00000  Uiso   1.00
N225   N     0.50595   0.26401   0.51195   0.00000  Uiso   1.00
N226   N     0.62366   0.60957   0.72351   0.00000  Uiso   1.00
N227   N     0.89996   0.08574   0.01769   0.00000  Uiso   1.00
N228   N     0.52536   0.29702   0.62181   0.00000  Uiso   1.00
N229   N     0.64307   0.64258   0.83337   0.00000  Uiso   1.00
N230   N     0.91937   0.11876   0.12754   0.00000  Uiso   1.00
C231   C     0.17481   0.48360   0.74138   0.00000  Uiso   1.00
C232   C     0.13302   0.56896   0.70500   0.00000  Uiso   1.00
C233   C     0.08707   0.62233   0.61322   0.00000  Uiso   1.00
C234   C     0.05391   0.69762   0.59406   0.00000  Uiso   1.00
C235   C     0.98711   0.82692   0.52688   0.00000  Uiso   1.00
C236   C     0.16546   0.38859   0.76330   0.00000  Uiso   1.00
C237   C     0.14678   0.29030   0.72053   0.00000  Uiso   1.00
C238   C     0.14093   0.21377   0.75046   0.00000  Uiso   1.00
C239   C     0.12453   0.06302   0.77384   0.00000  Uiso   1.00
C240   C     0.24160   0.51984   0.84436   0.00000  Uiso   1.00
C241   C     0.28695   0.53189   0.86977   0.00000  Uiso   1.00
C242   C     0.34521   0.56583   0.96796   0.00000  Uiso   1.00
C243   C     0.44704   0.61887   0.11721   0.00000  Uiso   1.00
C244   C     0.19764   0.52241   0.87057   0.00000  Uiso   1.00
C245   C     0.14543   0.59004   0.77517   0.00000  Uiso   1.00
C246   C     0.11233   0.66528   0.75615   0.00000  Uiso   1.00
C247   C     0.06633   0.71875   0.66436   0.00000  Uiso   1.00
C248   C     0.17786   0.40967   0.83346   0.00000  Uiso   1.00
C249   C     0.17204   0.33326   0.86347   0.00000  Uiso   1.00
C250   C     0.15335   0.23489   0.82076   0.00000  Uiso   1.00
C251   C     0.25400   0.54092   0.91453   0.00000  Uiso   1.00
C252   C     0.31221   0.57484   0.01271   0.00000  Uiso   1.00
C253   C     0.35764   0.58695   0.03826   0.00000  Uiso   1.00
H254   H     0.16516   0.46717   0.68675   0.00000  Uiso   1.00
H255   H     0.07748   0.60598   0.55893   0.00000  Uiso   1.00
H256   H     0.13719   0.27401   0.66624   0.00000  Uiso   1.00
H257   H     0.27734   0.51556   0.81545   0.00000  Uiso   1.00
H258   H     0.98573   0.76915   0.44815   0.00000  Uiso   1.00
H259   H     0.11165   0.06916   0.67444   0.00000  Uiso   1.00
H260   H     0.40718   0.57851   0.98909   0.00000  Uiso   1.00
H261   H     0.20730   0.53883   0.92520   0.00000  Uiso   1.00
H262   H     0.12194   0.68158   0.81047   0.00000  Uiso   1.00
H263   H     0.18164   0.34960   0.91778   0.00000  Uiso   1.00
H264   H     0.32179   0.59115   0.06699   0.00000  Uiso   1.00
H265   H     0.02181   0.83050   0.65231   0.00000  Uiso   1.00
H266   H     0.14773   0.13051   0.87860   0.00000  Uiso   1.00
H267   H     0.44326   0.63986   0.19325   0.00000  Uiso   1.00
O268   O     0.94684   0.89241   0.47044   0.00000  Uiso   1.00
O269   O     0.11205   0.97405   0.76734   0.00000  Uiso   1.00
O270   O     0.49977   0.64231   0.18014   0.00000  Uiso   1.00
N271   N     0.00595   0.76401   0.51195   0.00000  Uiso   1.00
N272   N     0.12366   0.10957   0.72351   0.00000  Uiso   1.00
N273   N     0.39996   0.58574   0.01769   0.00000  Uiso   1.00
N274   N     0.02536   0.79702   0.62181   0.00000  Uiso   1.00
N275   N     0.14307   0.14258   0.83337   0.00000  Uiso   1.00
N276   N     0.41937   0.61876   0.12754   0.00000  Uiso   1.00
C277   C     0.32519   0.98360   0.75862   0.00000  Uiso   1.00
C278   C     0.36698   0.06896   0.79500   0.00000  Uiso   1.00
C279   C     0.41293   0.12233   0.88678   0.00000  Uiso   1.00
C280   C     0.44609   0.19762   0.90594   0.00000  Uiso   1.00
C281   C     0.51289   0.32692   0.97312   0.00000  Uiso   1.00
C282   C     0.33454   0.88859   0.73670   0.00000  Uiso   1.00
C283   C     0.35322   0.79030   0.77947   0.00000  Uiso   1.00
C284   C     0.35907   0.71377   0.74954   0.00000  Uiso   1.00
C285   C     0.37547   0.56302   0.72616   0.00000  Uiso   1.00
C286   C     0.25840   0.01984   0.65564   0.00000  Uiso   1.00
C287   C     0.21305   0.03189   0.63023   0.00000  Uiso   1.00
C288   C     0.15479   0.06583   0.53204   0.00000  Uiso   1.00
C289   C     0.05296   0.11887   0.38279   0.00000  Uiso   1.00
C290   C     0.30236   0.02241   0.62943   0.00000  Uiso   1.00
C291   C     0.35457   0.09004   0.72483   0.00000  Uiso   1.00
C292   C     0.38767   0.16528   0.74385   0.00000  Uiso   1.00
C293   C     0.43367   0.21875   0.83564   0.00000  Uiso   1.00
C294   C     0.32214   0.90967   0.66654   0.00000  Uiso   1.00
C295   C     0.32796   0.83326   0.63653   0.00000  Uiso   1.00
C296   C     0.34665   0.73489   0.67924   0.00000  Uiso   1.00
C297   C     0.24600   0.04092   0.58547   0.00000  Uiso   1.00
C298   C     0.18779   0.07484   0.48729   0.00000  Uiso   1.00
C299   C     0.14236   0.08695   0.46174   0.00000  Uiso   1.00
H300   H     0.33484   0.96717   0.81325   0.00000  Uiso   1.00
H301   H     0.42252   0.10598   0.94107   0.00000  Uiso   1.00
H302   H     0.36281   0.77401   0.83376   0.00000  Uiso   1.00
H303   H     0.22266   0.01556   0.68455   0.00000  Uiso   1.00
H304   H     0.51427   0.26915   0.05185   0.00000  Uiso   1.00
H305   H     0.38835   0.56916   0.82556   0.00000  Uiso   1.00
H306   H     0.09282   0.07851   0.51091   0.00000  Uiso   1.00
H307   H     0.29270   0.03883   0.57480   0.00000  Uiso   1.00
H308   H     0.37806   0.18158   0.68953   0.00000  Uiso   1.00
H309   H     0.31836   0.84960   0.58222   0.00000  Uiso   1.00
H310   H     0.17821   0.09115   0.43301   0.00000  Uiso   1.00
H311   H     0.47819   0.33050   0.84769   0.00000  Uiso   1.00
H312   H     0.35227   0.63051   0.62140   0.00000  Uiso   1.00
H313   H     0.05674   0.13986   0.30675   0.00000  Uiso   1.00
O314   O     0.55316   0.39241   0.02956   0.00000  Uiso   1.00
O315   O     0.38795   0.47405   0.73266   0.00000  Uiso   1.00
O316   O     0.00023   0.14231   0.31986   0.00000  Uiso   1.00
N317   N     0.49405   0.26401   0.98805   0.00000  Uiso   1.00
N318   N     0.37634   0.60957   0.77649   0.00000  Uiso   1.00
N319   N     0.10004   0.08574   0.48231   0.00000  Uiso   1.00
N320   N     0.47464   0.29702   0.87819   0.00000  Uiso   1.00
N321   N     0.35693   0.64258   0.66663   0.00000  Uiso   1.00
N322   N     0.08063   0.11876   0.37246   0.00000  Uiso   1.00
C323   C     0.82519   0.48360   0.75862   0.00000  Uiso   1.00
C324   C     0.86698   0.56896   0.79500   0.00000  Uiso   1.00
C325   C     0.91293   0.62233   0.88678   0.00000  Uiso   1.00
C326   C     0.94609   0.69762   0.90594   0.00000  Uiso   1.00
C327   C     0.01289   0.82692   0.97312   0.00000  Uiso   1.00
C328   C     0.83454   0.38859   0.73670   0.00000  Uiso   1.00
C329   C     0.85322   0.29030   0.77947   0.00000  Uiso   1.00
C330   C     0.85907   0.21377   0.74954   0.00000  Uiso   1.00
C331   C     0.87547   0.06302   0.72616   0.00000  Uiso   1.00
C332   C     0.75840   0.51984   0.65564   0.00000  Uiso   1.00
C333   C     0.71305   0.53189   0.63023   0.00000  Uiso   1.00
C334   C     0.65479   0.56583   0.53204   0.00000  Uiso   1.00
C335   C     0.55296   0.61887   0.38279   0.00000  Uiso   1.00
C336   C     0.80236   0.52241   0.62943   0.00000  Uiso   1.00
C337   C     0.85457   0.59004   0.72483   0.00000  Uiso   1.00
C338   C     0.88767   0.66528   0.74385   0.00000  Uiso   1.00
C339   C     0.93367   0.71875   0.83564   0.00000  Uiso   1.00
C340   C     0.82214   0.40967   0.66654   0.00000  Uiso   1.00
C341   C     0.82796   0.33326   0.63653   0.00000  Uiso   1.00
C342   C     0.84665   0.23489   0.67924   0.00000  Uiso   1.00
C343   C     0.74600   0.54092   0.58547   0.00000  Uiso   1.00
C344   C     0.68779   0.57484   0.48729   0.00000  Uiso   1.00
C345   C     0.64236   0.58695   0.46174   0.00000  Uiso   1.00
H346   H     0.83484   0.46717   0.81325   0.00000  Uiso   1.00
H347   H     0.92252   0.60598   0.94107   0.00000  Uiso   1.00
H348   H     0.86281   0.27401   0.83376   0.00000  Uiso   1.00
H349   H     0.72266   0.51556   0.68455   0.00000  Uiso   1.00
H350   H     0.01427   0.76915   0.05185   0.00000  Uiso   1.00
H351   H     0.88835   0.06916   0.82556   0.00000  Uiso   1.00
H352   H     0.59282   0.57851   0.51091   0.00000  Uiso   1.00
H353   H     0.79270   0.53883   0.57480   0.00000  Uiso   1.00
H354   H     0.87806   0.68158   0.68953   0.00000  Uiso   1.00
H355   H     0.81836   0.34960   0.58222   0.00000  Uiso   1.00
H356   H     0.67821   0.59115   0.43301   0.00000  Uiso   1.00
H357   H     0.97819   0.83050   0.84769   0.00000  Uiso   1.00
H358   H     0.85227   0.13051   0.62140   0.00000  Uiso   1.00
H359   H     0.55674   0.63986   0.30675   0.00000  Uiso   1.00
O360   O     0.05316   0.89241   0.02956   0.00000  Uiso   1.00
O361   O     0.88795   0.97405   0.73266   0.00000  Uiso   1.00
O362   O     0.50023   0.64231   0.31986   0.00000  Uiso   1.00
N363   N     0.99405   0.76401   0.98805   0.00000  Uiso   1.00
N364   N     0.87634   0.10957   0.77649   0.00000  Uiso   1.00
N365   N     0.60004   0.58574   0.48231   0.00000  Uiso   1.00
N366   N     0.97464   0.79702   0.87819   0.00000  Uiso   1.00
N367   N     0.85693   0.14258   0.66663   0.00000  Uiso   1.00
N368   N     0.58063   0.61876   0.37246   0.00000  Uiso   1.00
