data_job_04813
_audit_creation_date              2018-12-19
_audit_creation_method            'Materials Studio'
_symmetry_space_group_name_H-M    'P1'
_symmetry_Int_Tables_number       1
_symmetry_cell_setting            triclinic
loop_
_symmetry_equiv_pos_as_xyz
  x,y,z
_cell_length_a                    21.3579
_cell_length_b                    11.0638
_cell_length_c                    40.7210
_cell_angle_alpha                 90.0000
_cell_angle_beta                  137.6324
_cell_angle_gamma                 90.0000
loop_
_atom_site_label
_atom_site_type_symbol
_atom_site_fract_x
_atom_site_fract_y
_atom_site_fract_z
_atom_site_U_iso_or_equiv
_atom_site_adp_type
_atom_site_occupancy
C1     C     0.19802   0.75540   0.64434   0.00000  Uiso   1.00
C2     C     0.10342   0.72764   0.62278   0.00000  Uiso   1.00
C3     C     0.03968   0.81258   0.60909   0.00000  Uiso   1.00
C4     C     0.95709   0.76891   0.59011   0.00000  Uiso   1.00
C5     C     0.81299   0.74469   0.55741   0.00000  Uiso   1.00
C6     C     0.26912   0.68797   0.69276   0.00000  Uiso   1.00
C7     C     0.34470   0.73956   0.73790   0.00000  Uiso   1.00
C8     C     0.40161   0.66249   0.77783   0.00000  Uiso   1.00
C9     C     0.51479   0.57668   0.85378   0.00000  Uiso   1.00
C10    C     0.19867   0.69392   0.61108   0.00000  Uiso   1.00
C11    C     0.21504   0.75051   0.58756   0.00000  Uiso   1.00
C12    C     0.21266   0.67845   0.55874   0.00000  Uiso   1.00
C13    C     0.21645   0.60188   0.50787   0.00000  Uiso   1.00
C14    C     0.16470   0.52680   0.63498   0.00000  Uiso   1.00
C15    C     0.08533   0.60347   0.61769   0.00000  Uiso   1.00
C16    C     0.00281   0.55966   0.59872   0.00000  Uiso   1.00
C17    C     0.93896   0.64452   0.58501   0.00000  Uiso   1.00
C18    C     0.25103   0.56381   0.68767   0.00000  Uiso   1.00
C19    C     0.30784   0.48664   0.72754   0.00000  Uiso   1.00
C20    C     0.38348   0.53810   0.77274   0.00000  Uiso   1.00
C21    C     0.18057   0.56976   0.60599   0.00000  Uiso   1.00
C22    C     0.17817   0.49759   0.57720   0.00000  Uiso   1.00
C23    C     0.19453   0.55406   0.55364   0.00000  Uiso   1.00
H24    H     0.21211   0.85206   0.64831   0.00000  Uiso   1.00
H25    H     0.05372   0.90866   0.61303   0.00000  Uiso   1.00
H26    H     0.35870   0.83565   0.74183   0.00000  Uiso   1.00
H27    H     0.22905   0.84660   0.59151   0.00000  Uiso   1.00
H28    H     0.87014   0.91665   0.57170   0.00000  Uiso   1.00
H29    H     0.51322   0.76270   0.84327   0.00000  Uiso   1.00
H30    H     0.23984   0.78579   0.52629   0.00000  Uiso   1.00
H31    H     0.15061   0.43012   0.63102   0.00000  Uiso   1.00
H32    H     0.98883   0.46357   0.59479   0.00000  Uiso   1.00
H33    H     0.29381   0.39056   0.72359   0.00000  Uiso   1.00
H34    H     0.16416   0.40151   0.57327   0.00000  Uiso   1.00
H35    H     0.81747   0.55539   0.55690   0.00000  Uiso   1.00
H36    H     0.46056   0.40144   0.82847   0.00000  Uiso   1.00
H37    H     0.18717   0.42453   0.51149   0.00000  Uiso   1.00
O38    O     0.73851   0.76563   0.54079   0.00000  Uiso   1.00
O39    O     0.58222   0.56365   0.89709   0.00000  Uiso   1.00
O40    O     0.22354   0.59395   0.48122   0.00000  Uiso   1.00
N41    N     0.87994   0.82704   0.57318   0.00000  Uiso   1.00
N42    N     0.48117   0.68311   0.82708   0.00000  Uiso   1.00
N43    N     0.22561   0.70469   0.53075   0.00000  Uiso   1.00
N44    N     0.85160   0.63265   0.56521   0.00000  Uiso   1.00
N45    N     0.45284   0.48872   0.81912   0.00000  Uiso   1.00
N46    N     0.19727   0.51030   0.52278   0.00000  Uiso   1.00
C47    C     0.69802   0.25540   0.64434   0.00000  Uiso   1.00
C48    C     0.60342   0.22764   0.62278   0.00000  Uiso   1.00
C49    C     0.53968   0.31258   0.60909   0.00000  Uiso   1.00
C50    C     0.45709   0.26891   0.59011   0.00000  Uiso   1.00
C51    C     0.31299   0.24469   0.55741   0.00000  Uiso   1.00
C52    C     0.76912   0.18797   0.69276   0.00000  Uiso   1.00
C53    C     0.84470   0.23956   0.73790   0.00000  Uiso   1.00
C54    C     0.90161   0.16249   0.77783   0.00000  Uiso   1.00
C55    C     0.01479   0.07668   0.85378   0.00000  Uiso   1.00
C56    C     0.69867   0.19392   0.61108   0.00000  Uiso   1.00
C57    C     0.71504   0.25051   0.58756   0.00000  Uiso   1.00
C58    C     0.71266   0.17845   0.55874   0.00000  Uiso   1.00
C59    C     0.71645   0.10188   0.50787   0.00000  Uiso   1.00
C60    C     0.66470   0.02680   0.63498   0.00000  Uiso   1.00
C61    C     0.58533   0.10347   0.61769   0.00000  Uiso   1.00
C62    C     0.50281   0.05966   0.59872   0.00000  Uiso   1.00
C63    C     0.43896   0.14452   0.58501   0.00000  Uiso   1.00
C64    C     0.75103   0.06381   0.68767   0.00000  Uiso   1.00
C65    C     0.80784   0.98664   0.72754   0.00000  Uiso   1.00
C66    C     0.88348   0.03810   0.77274   0.00000  Uiso   1.00
C67    C     0.68057   0.06976   0.60599   0.00000  Uiso   1.00
C68    C     0.67817   0.99759   0.57720   0.00000  Uiso   1.00
C69    C     0.69453   0.05406   0.55364   0.00000  Uiso   1.00
H70    H     0.71211   0.35206   0.64831   0.00000  Uiso   1.00
H71    H     0.55372   0.40866   0.61303   0.00000  Uiso   1.00
H72    H     0.85870   0.33565   0.74183   0.00000  Uiso   1.00
H73    H     0.72905   0.34660   0.59151   0.00000  Uiso   1.00
H74    H     0.37014   0.41665   0.57170   0.00000  Uiso   1.00
H75    H     0.01322   0.26270   0.84327   0.00000  Uiso   1.00
H76    H     0.73984   0.28579   0.52629   0.00000  Uiso   1.00
H77    H     0.65061   0.93012   0.63102   0.00000  Uiso   1.00
H78    H     0.48883   0.96357   0.59479   0.00000  Uiso   1.00
H79    H     0.79381   0.89056   0.72359   0.00000  Uiso   1.00
H80    H     0.66416   0.90151   0.57327   0.00000  Uiso   1.00
H81    H     0.31747   0.05539   0.55690   0.00000  Uiso   1.00
H82    H     0.96056   0.90144   0.82847   0.00000  Uiso   1.00
H83    H     0.68717   0.92453   0.51149   0.00000  Uiso   1.00
O84    O     0.23851   0.26563   0.54079   0.00000  Uiso   1.00
O85    O     0.08222   0.06365   0.89709   0.00000  Uiso   1.00
O86    O     0.72354   0.09395   0.48122   0.00000  Uiso   1.00
N87    N     0.37994   0.32704   0.57318   0.00000  Uiso   1.00
N88    N     0.98117   0.18311   0.82708   0.00000  Uiso   1.00
N89    N     0.72561   0.20469   0.53075   0.00000  Uiso   1.00
N90    N     0.35160   0.13265   0.56521   0.00000  Uiso   1.00
N91    N     0.95284   0.98872   0.81912   0.00000  Uiso   1.00
N92    N     0.69727   0.01030   0.52278   0.00000  Uiso   1.00
C93    C     0.80198   0.75540   0.85566   0.00000  Uiso   1.00
C94    C     0.89658   0.72764   0.87722   0.00000  Uiso   1.00
C95    C     0.96032   0.81258   0.89091   0.00000  Uiso   1.00
C96    C     0.04291   0.76891   0.90989   0.00000  Uiso   1.00
C97    C     0.18701   0.74469   0.94259   0.00000  Uiso   1.00
C98    C     0.73088   0.68797   0.80724   0.00000  Uiso   1.00
C99    C     0.65530   0.73956   0.76210   0.00000  Uiso   1.00
C100   C     0.59839   0.66249   0.72217   0.00000  Uiso   1.00
C101   C     0.48521   0.57668   0.64622   0.00000  Uiso   1.00
C102   C     0.80133   0.69392   0.88892   0.00000  Uiso   1.00
C103   C     0.78496   0.75051   0.91244   0.00000  Uiso   1.00
C104   C     0.78734   0.67845   0.94126   0.00000  Uiso   1.00
C105   C     0.78355   0.60188   0.99213   0.00000  Uiso   1.00
C106   C     0.83530   0.52680   0.86502   0.00000  Uiso   1.00
C107   C     0.91467   0.60347   0.88231   0.00000  Uiso   1.00
C108   C     0.99719   0.55966   0.90128   0.00000  Uiso   1.00
C109   C     0.06104   0.64452   0.91499   0.00000  Uiso   1.00
C110   C     0.74897   0.56381   0.81233   0.00000  Uiso   1.00
C111   C     0.69216   0.48664   0.77246   0.00000  Uiso   1.00
C112   C     0.61652   0.53810   0.72726   0.00000  Uiso   1.00
C113   C     0.81943   0.56976   0.89401   0.00000  Uiso   1.00
C114   C     0.82183   0.49759   0.92280   0.00000  Uiso   1.00
C115   C     0.80547   0.55406   0.94636   0.00000  Uiso   1.00
H116   H     0.78789   0.85206   0.85169   0.00000  Uiso   1.00
H117   H     0.94628   0.90866   0.88697   0.00000  Uiso   1.00
H118   H     0.64130   0.83565   0.75817   0.00000  Uiso   1.00
H119   H     0.77095   0.84660   0.90849   0.00000  Uiso   1.00
H120   H     0.12986   0.91665   0.92830   0.00000  Uiso   1.00
H121   H     0.48678   0.76270   0.65673   0.00000  Uiso   1.00
H122   H     0.76016   0.78579   0.97371   0.00000  Uiso   1.00
H123   H     0.84939   0.43012   0.86898   0.00000  Uiso   1.00
H124   H     0.01117   0.46357   0.90521   0.00000  Uiso   1.00
H125   H     0.70619   0.39056   0.77641   0.00000  Uiso   1.00
H126   H     0.83584   0.40151   0.92673   0.00000  Uiso   1.00
H127   H     0.18253   0.55539   0.94310   0.00000  Uiso   1.00
H128   H     0.53944   0.40144   0.67153   0.00000  Uiso   1.00
H129   H     0.81283   0.42453   0.98851   0.00000  Uiso   1.00
O130   O     0.26149   0.76563   0.95921   0.00000  Uiso   1.00
O131   O     0.41778   0.56365   0.60291   0.00000  Uiso   1.00
O132   O     0.77646   0.59395   0.01878   0.00000  Uiso   1.00
N133   N     0.12006   0.82704   0.92682   0.00000  Uiso   1.00
N134   N     0.51883   0.68311   0.67292   0.00000  Uiso   1.00
N135   N     0.77439   0.70469   0.96925   0.00000  Uiso   1.00
N136   N     0.14840   0.63265   0.93479   0.00000  Uiso   1.00
N137   N     0.54716   0.48872   0.68088   0.00000  Uiso   1.00
N138   N     0.80273   0.51030   0.97722   0.00000  Uiso   1.00
C139   C     0.30198   0.25540   0.85566   0.00000  Uiso   1.00
C140   C     0.39658   0.22764   0.87722   0.00000  Uiso   1.00
C141   C     0.46032   0.31258   0.89091   0.00000  Uiso   1.00
C142   C     0.54291   0.26891   0.90989   0.00000  Uiso   1.00
C143   C     0.68701   0.24469   0.94259   0.00000  Uiso   1.00
C144   C     0.23088   0.18797   0.80724   0.00000  Uiso   1.00
C145   C     0.15530   0.23956   0.76210   0.00000  Uiso   1.00
C146   C     0.09839   0.16249   0.72217   0.00000  Uiso   1.00
C147   C     0.98521   0.07668   0.64622   0.00000  Uiso   1.00
C148   C     0.30133   0.19392   0.88892   0.00000  Uiso   1.00
C149   C     0.28496   0.25051   0.91244   0.00000  Uiso   1.00
C150   C     0.28734   0.17845   0.94126   0.00000  Uiso   1.00
C151   C     0.28355   0.10188   0.99213   0.00000  Uiso   1.00
C152   C     0.33530   0.02680   0.86502   0.00000  Uiso   1.00
C153   C     0.41467   0.10347   0.88231   0.00000  Uiso   1.00
C154   C     0.49719   0.05966   0.90128   0.00000  Uiso   1.00
C155   C     0.56104   0.14452   0.91499   0.00000  Uiso   1.00
C156   C     0.24897   0.06381   0.81233   0.00000  Uiso   1.00
C157   C     0.19216   0.98664   0.77246   0.00000  Uiso   1.00
C158   C     0.11652   0.03810   0.72726   0.00000  Uiso   1.00
C159   C     0.31943   0.06976   0.89401   0.00000  Uiso   1.00
C160   C     0.32183   0.99759   0.92280   0.00000  Uiso   1.00
C161   C     0.30547   0.05406   0.94636   0.00000  Uiso   1.00
H162   H     0.28789   0.35206   0.85169   0.00000  Uiso   1.00
H163   H     0.44628   0.40866   0.88697   0.00000  Uiso   1.00
H164   H     0.14130   0.33565   0.75817   0.00000  Uiso   1.00
H165   H     0.27095   0.34660   0.90849   0.00000  Uiso   1.00
H166   H     0.62986   0.41665   0.92830   0.00000  Uiso   1.00
H167   H     0.98678   0.26270   0.65673   0.00000  Uiso   1.00
H168   H     0.26016   0.28579   0.97371   0.00000  Uiso   1.00
H169   H     0.34939   0.93012   0.86898   0.00000  Uiso   1.00
H170   H     0.51117   0.96357   0.90521   0.00000  Uiso   1.00
H171   H     0.20619   0.89056   0.77641   0.00000  Uiso   1.00
H172   H     0.33584   0.90151   0.92673   0.00000  Uiso   1.00
H173   H     0.68253   0.05539   0.94310   0.00000  Uiso   1.00
H174   H     0.03944   0.90144   0.67153   0.00000  Uiso   1.00
H175   H     0.31283   0.92453   0.98851   0.00000  Uiso   1.00
O176   O     0.76149   0.26563   0.95921   0.00000  Uiso   1.00
O177   O     0.91778   0.06365   0.60291   0.00000  Uiso   1.00
O178   O     0.27646   0.09395   0.01878   0.00000  Uiso   1.00
N179   N     0.62006   0.32704   0.92682   0.00000  Uiso   1.00
N180   N     0.01883   0.18311   0.67292   0.00000  Uiso   1.00
N181   N     0.27439   0.20469   0.96925   0.00000  Uiso   1.00
N182   N     0.64840   0.13265   0.93479   0.00000  Uiso   1.00
N183   N     0.04716   0.98872   0.68088   0.00000  Uiso   1.00
N184   N     0.30273   0.01030   0.97722   0.00000  Uiso   1.00
C185   C     0.80198   0.24460   0.35566   0.00000  Uiso   1.00
C186   C     0.89658   0.27236   0.37722   0.00000  Uiso   1.00
C187   C     0.96032   0.18742   0.39091   0.00000  Uiso   1.00
C188   C     0.04291   0.23109   0.40989   0.00000  Uiso   1.00
C189   C     0.18701   0.25531   0.44259   0.00000  Uiso   1.00
C190   C     0.73088   0.31203   0.30724   0.00000  Uiso   1.00
C191   C     0.65530   0.26044   0.26210   0.00000  Uiso   1.00
C192   C     0.59839   0.33751   0.22217   0.00000  Uiso   1.00
C193   C     0.48521   0.42332   0.14622   0.00000  Uiso   1.00
C194   C     0.80133   0.30608   0.38892   0.00000  Uiso   1.00
C195   C     0.78496   0.24949   0.41244   0.00000  Uiso   1.00
C196   C     0.78734   0.32155   0.44126   0.00000  Uiso   1.00
C197   C     0.78355   0.39812   0.49213   0.00000  Uiso   1.00
C198   C     0.83530   0.47320   0.36502   0.00000  Uiso   1.00
C199   C     0.91467   0.39653   0.38231   0.00000  Uiso   1.00
C200   C     0.99719   0.44034   0.40128   0.00000  Uiso   1.00
C201   C     0.06104   0.35548   0.41499   0.00000  Uiso   1.00
C202   C     0.74897   0.43619   0.31233   0.00000  Uiso   1.00
C203   C     0.69216   0.51336   0.27246   0.00000  Uiso   1.00
C204   C     0.61652   0.46190   0.22726   0.00000  Uiso   1.00
C205   C     0.81943   0.43024   0.39401   0.00000  Uiso   1.00
C206   C     0.82183   0.50241   0.42280   0.00000  Uiso   1.00
C207   C     0.80547   0.44594   0.44636   0.00000  Uiso   1.00
H208   H     0.78789   0.14794   0.35169   0.00000  Uiso   1.00
H209   H     0.94628   0.09134   0.38697   0.00000  Uiso   1.00
H210   H     0.64130   0.16435   0.25817   0.00000  Uiso   1.00
H211   H     0.77095   0.15340   0.40849   0.00000  Uiso   1.00
H212   H     0.12986   0.08335   0.42830   0.00000  Uiso   1.00
H213   H     0.48678   0.23730   0.15673   0.00000  Uiso   1.00
H214   H     0.76016   0.21421   0.47371   0.00000  Uiso   1.00
H215   H     0.84939   0.56988   0.36898   0.00000  Uiso   1.00
H216   H     0.01117   0.53643   0.40521   0.00000  Uiso   1.00
H217   H     0.70619   0.60944   0.27641   0.00000  Uiso   1.00
H218   H     0.83584   0.59849   0.42673   0.00000  Uiso   1.00
H219   H     0.18253   0.44461   0.44310   0.00000  Uiso   1.00
H220   H     0.53944   0.59856   0.17153   0.00000  Uiso   1.00
H221   H     0.81283   0.57547   0.48851   0.00000  Uiso   1.00
O222   O     0.26149   0.23437   0.45921   0.00000  Uiso   1.00
O223   O     0.41778   0.43635   0.10291   0.00000  Uiso   1.00
O224   O     0.77646   0.40605   0.51878   0.00000  Uiso   1.00
N225   N     0.12006   0.17296   0.42682   0.00000  Uiso   1.00
N226   N     0.51883   0.31689   0.17292   0.00000  Uiso   1.00
N227   N     0.77439   0.29531   0.46925   0.00000  Uiso   1.00
N228   N     0.14840   0.36735   0.43479   0.00000  Uiso   1.00
N229   N     0.54716   0.51128   0.18088   0.00000  Uiso   1.00
N230   N     0.80273   0.48970   0.47722   0.00000  Uiso   1.00
C231   C     0.30198   0.74460   0.35566   0.00000  Uiso   1.00
C232   C     0.39658   0.77236   0.37722   0.00000  Uiso   1.00
C233   C     0.46032   0.68742   0.39091   0.00000  Uiso   1.00
C234   C     0.54291   0.73109   0.40989   0.00000  Uiso   1.00
C235   C     0.68701   0.75531   0.44259   0.00000  Uiso   1.00
C236   C     0.23088   0.81203   0.30724   0.00000  Uiso   1.00
C237   C     0.15530   0.76044   0.26210   0.00000  Uiso   1.00
C238   C     0.09839   0.83751   0.22217   0.00000  Uiso   1.00
C239   C     0.98521   0.92332   0.14622   0.00000  Uiso   1.00
C240   C     0.30133   0.80608   0.38892   0.00000  Uiso   1.00
C241   C     0.28496   0.74949   0.41244   0.00000  Uiso   1.00
C242   C     0.28734   0.82155   0.44126   0.00000  Uiso   1.00
C243   C     0.28355   0.89812   0.49213   0.00000  Uiso   1.00
C244   C     0.33530   0.97320   0.36502   0.00000  Uiso   1.00
C245   C     0.41467   0.89653   0.38231   0.00000  Uiso   1.00
C246   C     0.49719   0.94034   0.40128   0.00000  Uiso   1.00
C247   C     0.56104   0.85548   0.41499   0.00000  Uiso   1.00
C248   C     0.24897   0.93619   0.31233   0.00000  Uiso   1.00
C249   C     0.19216   0.01336   0.27246   0.00000  Uiso   1.00
C250   C     0.11652   0.96190   0.22726   0.00000  Uiso   1.00
C251   C     0.31943   0.93024   0.39401   0.00000  Uiso   1.00
C252   C     0.32183   0.00241   0.42280   0.00000  Uiso   1.00
C253   C     0.30547   0.94594   0.44636   0.00000  Uiso   1.00
H254   H     0.28789   0.64794   0.35169   0.00000  Uiso   1.00
H255   H     0.44628   0.59134   0.38697   0.00000  Uiso   1.00
H256   H     0.14130   0.66435   0.25817   0.00000  Uiso   1.00
H257   H     0.27095   0.65340   0.40849   0.00000  Uiso   1.00
H258   H     0.62986   0.58335   0.42830   0.00000  Uiso   1.00
H259   H     0.98678   0.73730   0.15673   0.00000  Uiso   1.00
H260   H     0.26016   0.71421   0.47371   0.00000  Uiso   1.00
H261   H     0.34939   0.06988   0.36898   0.00000  Uiso   1.00
H262   H     0.51117   0.03643   0.40521   0.00000  Uiso   1.00
H263   H     0.20619   0.10944   0.27641   0.00000  Uiso   1.00
H264   H     0.33584   0.09849   0.42673   0.00000  Uiso   1.00
H265   H     0.68253   0.94461   0.44310   0.00000  Uiso   1.00
H266   H     0.03944   0.09856   0.17153   0.00000  Uiso   1.00
H267   H     0.31283   0.07547   0.48851   0.00000  Uiso   1.00
O268   O     0.76149   0.73437   0.45921   0.00000  Uiso   1.00
O269   O     0.91778   0.93635   0.10291   0.00000  Uiso   1.00
O270   O     0.27646   0.90605   0.51878   0.00000  Uiso   1.00
N271   N     0.62006   0.67296   0.42682   0.00000  Uiso   1.00
N272   N     0.01883   0.81689   0.17292   0.00000  Uiso   1.00
N273   N     0.27439   0.79531   0.46925   0.00000  Uiso   1.00
N274   N     0.64840   0.86735   0.43479   0.00000  Uiso   1.00
N275   N     0.04716   0.01128   0.18088   0.00000  Uiso   1.00
N276   N     0.30273   0.98970   0.47722   0.00000  Uiso   1.00
C277   C     0.19802   0.24460   0.14434   0.00000  Uiso   1.00
C278   C     0.10342   0.27236   0.12278   0.00000  Uiso   1.00
C279   C     0.03968   0.18742   0.10909   0.00000  Uiso   1.00
C280   C     0.95709   0.23109   0.09011   0.00000  Uiso   1.00
C281   C     0.81299   0.25531   0.05741   0.00000  Uiso   1.00
C282   C     0.26912   0.31203   0.19276   0.00000  Uiso   1.00
C283   C     0.34470   0.26044   0.23790   0.00000  Uiso   1.00
C284   C     0.40161   0.33751   0.27783   0.00000  Uiso   1.00
C285   C     0.51479   0.42332   0.35378   0.00000  Uiso   1.00
C286   C     0.19867   0.30608   0.11108   0.00000  Uiso   1.00
C287   C     0.21504   0.24949   0.08756   0.00000  Uiso   1.00
C288   C     0.21266   0.32155   0.05874   0.00000  Uiso   1.00
C289   C     0.21645   0.39812   0.00787   0.00000  Uiso   1.00
C290   C     0.16470   0.47320   0.13498   0.00000  Uiso   1.00
C291   C     0.08533   0.39653   0.11769   0.00000  Uiso   1.00
C292   C     0.00281   0.44034   0.09872   0.00000  Uiso   1.00
C293   C     0.93896   0.35548   0.08501   0.00000  Uiso   1.00
C294   C     0.25103   0.43619   0.18767   0.00000  Uiso   1.00
C295   C     0.30784   0.51336   0.22754   0.00000  Uiso   1.00
C296   C     0.38348   0.46190   0.27274   0.00000  Uiso   1.00
C297   C     0.18057   0.43024   0.10599   0.00000  Uiso   1.00
C298   C     0.17817   0.50241   0.07720   0.00000  Uiso   1.00
C299   C     0.19453   0.44594   0.05364   0.00000  Uiso   1.00
H300   H     0.21211   0.14794   0.14831   0.00000  Uiso   1.00
H301   H     0.05372   0.09134   0.11303   0.00000  Uiso   1.00
H302   H     0.35870   0.16435   0.24183   0.00000  Uiso   1.00
H303   H     0.22905   0.15340   0.09151   0.00000  Uiso   1.00
H304   H     0.87014   0.08335   0.07170   0.00000  Uiso   1.00
H305   H     0.51322   0.23730   0.34327   0.00000  Uiso   1.00
H306   H     0.23984   0.21421   0.02629   0.00000  Uiso   1.00
H307   H     0.15061   0.56988   0.13102   0.00000  Uiso   1.00
H308   H     0.98883   0.53643   0.09479   0.00000  Uiso   1.00
H309   H     0.29381   0.60944   0.22359   0.00000  Uiso   1.00
H310   H     0.16416   0.59849   0.07327   0.00000  Uiso   1.00
H311   H     0.81747   0.44461   0.05690   0.00000  Uiso   1.00
H312   H     0.46056   0.59856   0.32847   0.00000  Uiso   1.00
H313   H     0.18717   0.57547   0.01149   0.00000  Uiso   1.00
O314   O     0.73851   0.23437   0.04079   0.00000  Uiso   1.00
O315   O     0.58222   0.43635   0.39709   0.00000  Uiso   1.00
O316   O     0.22354   0.40605   0.98122   0.00000  Uiso   1.00
N317   N     0.87994   0.17296   0.07318   0.00000  Uiso   1.00
N318   N     0.48117   0.31689   0.32708   0.00000  Uiso   1.00
N319   N     0.22561   0.29531   0.03075   0.00000  Uiso   1.00
N320   N     0.85160   0.36735   0.06521   0.00000  Uiso   1.00
N321   N     0.45284   0.51128   0.31912   0.00000  Uiso   1.00
N322   N     0.19727   0.48970   0.02278   0.00000  Uiso   1.00
C323   C     0.69802   0.74460   0.14434   0.00000  Uiso   1.00
C324   C     0.60342   0.77236   0.12278   0.00000  Uiso   1.00
C325   C     0.53968   0.68742   0.10909   0.00000  Uiso   1.00
C326   C     0.45709   0.73109   0.09011   0.00000  Uiso   1.00
C327   C     0.31299   0.75531   0.05741   0.00000  Uiso   1.00
C328   C     0.76912   0.81203   0.19276   0.00000  Uiso   1.00
C329   C     0.84470   0.76044   0.23790   0.00000  Uiso   1.00
C330   C     0.90161   0.83751   0.27783   0.00000  Uiso   1.00
C331   C     0.01479   0.92332   0.35378   0.00000  Uiso   1.00
C332   C     0.69867   0.80608   0.11108   0.00000  Uiso   1.00
C333   C     0.71504   0.74949   0.08756   0.00000  Uiso   1.00
C334   C     0.71266   0.82155   0.05874   0.00000  Uiso   1.00
C335   C     0.71645   0.89812   0.00787   0.00000  Uiso   1.00
C336   C     0.66470   0.97320   0.13498   0.00000  Uiso   1.00
C337   C     0.58533   0.89653   0.11769   0.00000  Uiso   1.00
C338   C     0.50281   0.94034   0.09872   0.00000  Uiso   1.00
C339   C     0.43896   0.85548   0.08501   0.00000  Uiso   1.00
C340   C     0.75103   0.93619   0.18767   0.00000  Uiso   1.00
C341   C     0.80784   0.01336   0.22754   0.00000  Uiso   1.00
C342   C     0.88348   0.96190   0.27274   0.00000  Uiso   1.00
C343   C     0.68057   0.93024   0.10599   0.00000  Uiso   1.00
C344   C     0.67817   0.00241   0.07720   0.00000  Uiso   1.00
C345   C     0.69453   0.94594   0.05364   0.00000  Uiso   1.00
H346   H     0.71211   0.64794   0.14831   0.00000  Uiso   1.00
H347   H     0.55372   0.59134   0.11303   0.00000  Uiso   1.00
H348   H     0.85870   0.66435   0.24183   0.00000  Uiso   1.00
H349   H     0.72905   0.65340   0.09151   0.00000  Uiso   1.00
H350   H     0.37014   0.58335   0.07170   0.00000  Uiso   1.00
H351   H     0.01322   0.73730   0.34327   0.00000  Uiso   1.00
H352   H     0.73984   0.71421   0.02629   0.00000  Uiso   1.00
H353   H     0.65061   0.06988   0.13102   0.00000  Uiso   1.00
H354   H     0.48883   0.03643   0.09479   0.00000  Uiso   1.00
H355   H     0.79381   0.10944   0.22359   0.00000  Uiso   1.00
H356   H     0.66416   0.09849   0.07327   0.00000  Uiso   1.00
H357   H     0.31747   0.94461   0.05690   0.00000  Uiso   1.00
H358   H     0.96056   0.09856   0.32847   0.00000  Uiso   1.00
H359   H     0.68717   0.07547   0.01149   0.00000  Uiso   1.00
O360   O     0.23851   0.73437   0.04079   0.00000  Uiso   1.00
O361   O     0.08222   0.93635   0.39709   0.00000  Uiso   1.00
O362   O     0.72354   0.90605   0.98122   0.00000  Uiso   1.00
N363   N     0.37994   0.67296   0.07318   0.00000  Uiso   1.00
N364   N     0.98117   0.81689   0.32708   0.00000  Uiso   1.00
N365   N     0.72561   0.79531   0.03075   0.00000  Uiso   1.00
N366   N     0.35160   0.86735   0.06521   0.00000  Uiso   1.00
N367   N     0.95284   0.01128   0.31912   0.00000  Uiso   1.00
N368   N     0.69727   0.98970   0.02278   0.00000  Uiso   1.00
