data_job_02645
_audit_creation_date              2018-12-19
_audit_creation_method            'Materials Studio'
_symmetry_space_group_name_H-M    'P1'
_symmetry_Int_Tables_number       1
_symmetry_cell_setting            triclinic
loop_
_symmetry_equiv_pos_as_xyz
  x,y,z
_cell_length_a                    12.8580
_cell_length_b                    12.8737
_cell_length_c                    29.1117
_cell_angle_alpha                 91.2086
_cell_angle_beta                  91.3119
_cell_angle_gamma                 118.4908
loop_
_atom_site_label
_atom_site_type_symbol
_atom_site_fract_x
_atom_site_fract_y
_atom_site_fract_z
_atom_site_U_iso_or_equiv
_atom_site_adp_type
_atom_site_occupancy
C1     C     0.32401   0.08831   0.02040   0.00000  Uiso   1.00
C2     C     0.45879   0.15968   0.02164   0.00000  Uiso   1.00
C3     C     0.53317   0.18007   0.05994   0.00000  Uiso   1.00
C4     C     0.65394   0.24760   0.05400   0.00000  Uiso   1.00
C5     C     0.85642   0.35156   0.06243   0.00000  Uiso   1.00
C6     C     0.27886   0.17072   0.00268   0.00000  Uiso   1.00
C7     C     0.20196   0.20038   0.02504   0.00000  Uiso   1.00
C8     C     0.17125   0.27719   0.00314   0.00000  Uiso   1.00
C9     C     0.09433   0.39822   0.98212   0.00000  Uiso   1.00
C10    C     0.29070   0.99189   0.98299   0.00000  Uiso   1.00
C11    C     0.22372   0.87117   0.98877   0.00000  Uiso   1.00
C12    C     0.20295   0.79741   0.95028   0.00000  Uiso   1.00
C13    C     0.14441   0.64077   0.89868   0.00000  Uiso   1.00
C14    C     0.40620   0.17199   0.94176   0.00000  Uiso   1.00
C15    C     0.50343   0.20514   0.97893   0.00000  Uiso   1.00
C16    C     0.62411   0.27265   0.97293   0.00000  Uiso   1.00
C17    C     0.69867   0.29313   0.01121   0.00000  Uiso   1.00
C18    C     0.32351   0.21618   0.95997   0.00000  Uiso   1.00
C19    C     0.29290   0.29296   0.93803   0.00000  Uiso   1.00
C20    C     0.21598   0.32272   0.96035   0.00000  Uiso   1.00
C21    C     0.33535   0.03734   0.94027   0.00000  Uiso   1.00
C22    C     0.31467   0.96375   0.90176   0.00000  Uiso   1.00
C23    C     0.24768   0.84295   0.90749   0.00000  Uiso   1.00
H24    H     0.28924   0.05293   0.05366   0.00000  Uiso   1.00
H25    H     0.49858   0.14489   0.09299   0.00000  Uiso   1.00
H26    H     0.16741   0.16518   0.05809   0.00000  Uiso   1.00
H27    H     0.18918   0.83603   0.02183   0.00000  Uiso   1.00
H28    H     0.75036   0.26692   0.11777   0.00000  Uiso   1.00
H29    H     0.05204   0.30968   0.04417   0.00000  Uiso   1.00
H30    H     0.09794   0.61559   0.96771   0.00000  Uiso   1.00
H31    H     0.44096   0.20738   0.90850   0.00000  Uiso   1.00
H32    H     0.65864   0.30781   0.93987   0.00000  Uiso   1.00
H33    H     0.32747   0.32810   0.90497   0.00000  Uiso   1.00
H34    H     0.34924   0.99895   0.86871   0.00000  Uiso   1.00
H35    H     0.88027   0.39916   0.99349   0.00000  Uiso   1.00
H36    H     0.18194   0.44191   0.91989   0.00000  Uiso   1.00
H37    H     0.22785   0.74783   0.84344   0.00000  Uiso   1.00
O38    O     0.95577   0.39636   0.07889   0.00000  Uiso   1.00
O39    O     0.03958   0.45243   0.98233   0.00000  Uiso   1.00
O40    O     0.09981   0.54181   0.88202   0.00000  Uiso   1.00
N41    N     0.75107   0.28424   0.08421   0.00000  Uiso   1.00
N42    N     0.09819   0.32423   0.01541   0.00000  Uiso   1.00
N43    N     0.14107   0.67532   0.94392   0.00000  Uiso   1.00
N44    N     0.82097   0.35540   0.01734   0.00000  Uiso   1.00
N45    N     0.16809   0.39538   0.94854   0.00000  Uiso   1.00
N46    N     0.21098   0.74648   0.87705   0.00000  Uiso   1.00
C47    C     0.00983   0.20366   0.69283   0.00000  Uiso   1.00
C48    C     0.94068   0.27205   0.69669   0.00000  Uiso   1.00
C49    C     0.93303   0.33026   0.73609   0.00000  Uiso   1.00
C50    C     0.86533   0.38768   0.73257   0.00000  Uiso   1.00
C51    C     0.76672   0.49395   0.74488   0.00000  Uiso   1.00
C52    C     0.92072   0.07915   0.67544   0.00000  Uiso   1.00
C53    C     0.89631   0.97518   0.69696   0.00000  Uiso   1.00
C54    C     0.81182   0.87022   0.67554   0.00000  Uiso   1.00
C55    C     0.68229   0.67701   0.65483   0.00000  Uiso   1.00
C56    C     0.09500   0.25872   0.65406   0.00000  Uiso   1.00
C57    C     0.21713   0.30570   0.65761   0.00000  Uiso   1.00
C58    C     0.27937   0.35190   0.61819   0.00000  Uiso   1.00
C59    C     0.42044   0.43749   0.56430   0.00000  Uiso   1.00
C60    C     0.90321   0.20212   0.61652   0.00000  Uiso   1.00
C61    C     0.88277   0.27121   0.65524   0.00000  Uiso   1.00
C62    C     0.81507   0.32856   0.65166   0.00000  Uiso   1.00
C63    C     0.80732   0.38685   0.69104   0.00000  Uiso   1.00
C64    C     0.86281   0.07831   0.63399   0.00000  Uiso   1.00
C65    C     0.77835   0.97348   0.61253   0.00000  Uiso   1.00
C66    C     0.75380   0.86938   0.63402   0.00000  Uiso   1.00
C67    C     0.03709   0.25789   0.61261   0.00000  Uiso   1.00
C68    C     0.09916   0.30401   0.57318   0.00000  Uiso   1.00
C69    C     0.22136   0.35106   0.57667   0.00000  Uiso   1.00
H70    H     0.05491   0.20430   0.72510   0.00000  Uiso   1.00
H71    H     0.97785   0.33088   0.76816   0.00000  Uiso   1.00
H72    H     0.94114   0.97586   0.72903   0.00000  Uiso   1.00
H73    H     0.26191   0.30633   0.68969   0.00000  Uiso   1.00
H74    H     0.86684   0.47080   0.79763   0.00000  Uiso   1.00
H75    H     0.78947   0.72222   0.71512   0.00000  Uiso   1.00
H76    H     0.46587   0.41909   0.63215   0.00000  Uiso   1.00
H77    H     0.85812   0.20147   0.58425   0.00000  Uiso   1.00
H78    H     0.77026   0.32790   0.61958   0.00000  Uiso   1.00
H79    H     0.73356   0.97287   0.58046   0.00000  Uiso   1.00
H80    H     0.05432   0.30335   0.54111   0.00000  Uiso   1.00
H81    H     0.69835   0.46838   0.67704   0.00000  Uiso   1.00
H82    H     0.62099   0.71979   0.59453   0.00000  Uiso   1.00
H83    H     0.29738   0.41666   0.51156   0.00000  Uiso   1.00
O84    O     0.72832   0.55278   0.76312   0.00000  Uiso   1.00
O85    O     0.62684   0.57066   0.65487   0.00000  Uiso   1.00
O86    O     0.51425   0.48494   0.54602   0.00000  Uiso   1.00
N87    N     0.83926   0.45290   0.76439   0.00000  Uiso   1.00
N88    N     0.76692   0.75302   0.68726   0.00000  Uiso   1.00
N89    N     0.39929   0.40451   0.60969   0.00000  Uiso   1.00
N90    N     0.74860   0.45160   0.69951   0.00000  Uiso   1.00
N91    N     0.67626   0.75172   0.62237   0.00000  Uiso   1.00
N92    N     0.30863   0.40320   0.54480   0.00000  Uiso   1.00
C93    C     0.90167   0.68354   0.34723   0.00000  Uiso   1.00
C94    C     0.84132   0.54976   0.35180   0.00000  Uiso   1.00
C95    C     0.79060   0.48959   0.39113   0.00000  Uiso   1.00
C96    C     0.73981   0.36716   0.38833   0.00000  Uiso   1.00
C97    C     0.64616   0.16856   0.40162   0.00000  Uiso   1.00
C98    C     0.02620   0.71935   0.33147   0.00000  Uiso   1.00
C99    C     0.13092   0.80178   0.35371   0.00000  Uiso   1.00
C100   C     0.23577   0.82212   0.33379   0.00000  Uiso   1.00
C101   C     0.42915   0.88687   0.31550   0.00000  Uiso   1.00
C102   C     0.83749   0.70582   0.30708   0.00000  Uiso   1.00
C103   C     0.78357   0.77692   0.30880   0.00000  Uiso   1.00
C104   C     0.72955   0.78589   0.26834   0.00000  Uiso   1.00
C105   C     0.62993   0.82965   0.21218   0.00000  Uiso   1.00
C106   C     0.90167   0.57309   0.27231   0.00000  Uiso   1.00
C107   C     0.84133   0.48977   0.31111   0.00000  Uiso   1.00
C108   C     0.79059   0.36739   0.30824   0.00000  Uiso   1.00
C109   C     0.73980   0.30706   0.34756   0.00000  Uiso   1.00
C110   C     0.02621   0.65936   0.29078   0.00000  Uiso   1.00
C111   C     0.13092   0.67958   0.27082   0.00000  Uiso   1.00
C112   C     0.23577   0.76202   0.29302   0.00000  Uiso   1.00
C113   C     0.83749   0.64583   0.26639   0.00000  Uiso   1.00
C114   C     0.78356   0.65470   0.22592   0.00000  Uiso   1.00
C115   C     0.72956   0.72579   0.22758   0.00000  Uiso   1.00
H116   H     0.90167   0.73025   0.37891   0.00000  Uiso   1.00
H117   H     0.79062   0.53606   0.42262   0.00000  Uiso   1.00
H118   H     0.13089   0.84820   0.38519   0.00000  Uiso   1.00
H119   H     0.78358   0.82333   0.34030   0.00000  Uiso   1.00
H120   H     0.66754   0.29430   0.45313   0.00000  Uiso   1.00
H121   H     0.38502   0.95251   0.37422   0.00000  Uiso   1.00
H122   H     0.65265   0.90007   0.27954   0.00000  Uiso   1.00
H123   H     0.90167   0.52638   0.24063   0.00000  Uiso   1.00
H124   H     0.79061   0.32099   0.27675   0.00000  Uiso   1.00
H125   H     0.13089   0.63314   0.23933   0.00000  Uiso   1.00
H126   H     0.78358   0.60827   0.19443   0.00000  Uiso   1.00
H127   H     0.66754   0.11974   0.33474   0.00000  Uiso   1.00
H128   H     0.38502   0.77796   0.25583   0.00000  Uiso   1.00
H129   H     0.65265   0.72551   0.16115   0.00000  Uiso   1.00
O130   O     0.59452   0.07559   0.42020   0.00000  Uiso   1.00
O131   O     0.53581   0.93916   0.31666   0.00000  Uiso   1.00
O132   O     0.57497   0.87034   0.19245   0.00000  Uiso   1.00
N133   N     0.68276   0.28140   0.42031   0.00000  Uiso   1.00
N134   N     0.35356   0.89678   0.34653   0.00000  Uiso   1.00
N135   N     0.66889   0.84777   0.25802   0.00000  Uiso   1.00
N136   N     0.68275   0.18748   0.35661   0.00000  Uiso   1.00
N137   N     0.35355   0.80285   0.28283   0.00000  Uiso   1.00
N138   N     0.66888   0.75385   0.19431   0.00000  Uiso   1.00
C139   C     0.69502   0.86822   0.96831   0.00000  Uiso   1.00
C140   C     0.58918   0.81184   0.99914   0.00000  Uiso   1.00
C141   C     0.59173   0.83221   0.04626   0.00000  Uiso   1.00
C142   C     0.48547   0.77202   0.06824   0.00000  Uiso   1.00
C143   C     0.33711   0.69625   0.11982   0.00000  Uiso   1.00
C144   C     0.70285   0.76605   0.94415   0.00000  Uiso   1.00
C145   C     0.80097   0.74794   0.94503   0.00000  Uiso   1.00
C146   C     0.79040   0.64921   0.92072   0.00000  Uiso   1.00
C147   C     0.81853   0.50240   0.88689   0.00000  Uiso   1.00
C148   C     0.66061   0.92869   0.93097   0.00000  Uiso   1.00
C149   C     0.72323   0.04732   0.92076   0.00000  Uiso   1.00
C150   C     0.67712   0.08552   0.88535   0.00000  Uiso   1.00
C151   C     0.63968   0.19123   0.83106   0.00000  Uiso   1.00
C152   C     0.50179   0.72510   0.92357   0.00000  Uiso   1.00
C153   C     0.48423   0.73410   0.97484   0.00000  Uiso   1.00
C154   C     0.37794   0.67386   0.99676   0.00000  Uiso   1.00
C155   C     0.38033   0.69414   0.04390   0.00000  Uiso   1.00
C156   C     0.59790   0.68831   0.91985   0.00000  Uiso   1.00
C157   C     0.58718   0.58959   0.89553   0.00000  Uiso   1.00
C158   C     0.68525   0.57133   0.89637   0.00000  Uiso   1.00
C159   C     0.55566   0.85095   0.90667   0.00000  Uiso   1.00
C160   C     0.50944   0.88897   0.87126   0.00000  Uiso   1.00
C161   C     0.57198   0.00764   0.86100   0.00000  Uiso   1.00
H162   H     0.77673   0.92874   0.98723   0.00000  Uiso   1.00
H163   H     0.67297   0.89237   0.06505   0.00000  Uiso   1.00
H164   H     0.88218   0.80812   0.96384   0.00000  Uiso   1.00
H165   H     0.80445   0.10745   0.93958   0.00000  Uiso   1.00
H166   H     0.51165   0.81773   0.14062   0.00000  Uiso   1.00
H167   H     0.95279   0.64010   0.92719   0.00000  Uiso   1.00
H168   H     0.78889   0.27131   0.87603   0.00000  Uiso   1.00
H169   H     0.42008   0.66457   0.90464   0.00000  Uiso   1.00
H170   H     0.29674   0.61371   0.97794   0.00000  Uiso   1.00
H171   H     0.50595   0.52945   0.87672   0.00000  Uiso   1.00
H172   H     0.42822   0.82879   0.85246   0.00000  Uiso   1.00
H173   H     0.20629   0.59155   0.06992   0.00000  Uiso   1.00
H174   H     0.64744   0.41392   0.85648   0.00000  Uiso   1.00
H175   H     0.48353   0.04513   0.80532   0.00000  Uiso   1.00
O176   O     0.28428   0.67592   0.15498   0.00000  Uiso   1.00
O177   O     0.86305   0.44289   0.87496   0.00000  Uiso   1.00
O178   O     0.64801   0.27102   0.80784   0.00000  Uiso   1.00
N179   N     0.45670   0.77150   0.11392   0.00000  Uiso   1.00
N180   N     0.86914   0.60541   0.91438   0.00000  Uiso   1.00
N181   N     0.71593   0.19554   0.86654   0.00000  Uiso   1.00
N182   N     0.29239   0.64980   0.07588   0.00000  Uiso   1.00
N183   N     0.70483   0.48371   0.87634   0.00000  Uiso   1.00
N184   N     0.55161   0.07383   0.82850   0.00000  Uiso   1.00
C185   C     0.35354   0.27874   0.33746   0.00000  Uiso   1.00
C186   C     0.41339   0.40032   0.36185   0.00000  Uiso   1.00
C187   C     0.45069   0.42333   0.40781   0.00000  Uiso   1.00
C188   C     0.50350   0.54053   0.42358   0.00000  Uiso   1.00
C189   C     0.59412   0.71549   0.46590   0.00000  Uiso   1.00
C190   C     0.23651   0.26309   0.31696   0.00000  Uiso   1.00
C191   C     0.12510   0.17069   0.32516   0.00000  Uiso   1.00
C192   C     0.02902   0.17236   0.30313   0.00000  Uiso   1.00
C193   C     0.84503   0.13421   0.27572   0.00000  Uiso   1.00
C194   C     0.42952   0.28743   0.29676   0.00000  Uiso   1.00
C195   C     0.48036   0.21548   0.28797   0.00000  Uiso   1.00
C196   C     0.54675   0.23764   0.24893   0.00000  Uiso   1.00
C197   C     0.66244   0.23728   0.19016   0.00000  Uiso   1.00
C198   C     0.38101   0.44599   0.28375   0.00000  Uiso   1.00
C199   C     0.42831   0.49117   0.33268   0.00000  Uiso   1.00
C200   C     0.48109   0.60837   0.34838   0.00000  Uiso   1.00
C201   C     0.51846   0.63154   0.39435   0.00000  Uiso   1.00
C202   C     0.25143   0.35393   0.28778   0.00000  Uiso   1.00
C203   C     0.15550   0.35573   0.26573   0.00000  Uiso   1.00
C204   C     0.04396   0.26337   0.27390   0.00000  Uiso   1.00
C205   C     0.44444   0.37828   0.26758   0.00000  Uiso   1.00
C206   C     0.51076   0.40054   0.22854   0.00000  Uiso   1.00
C207   C     0.56170   0.32864   0.21970   0.00000  Uiso   1.00
H208   H     0.34191   0.20801   0.36017   0.00000  Uiso   1.00
H209   H     0.43911   0.35300   0.43038   0.00000  Uiso   1.00
H210   H     0.11358   0.10039   0.34773   0.00000  Uiso   1.00
H211   H     0.46879   0.14519   0.31055   0.00000  Uiso   1.00
H212   H     0.55342   0.55380   0.49535   0.00000  Uiso   1.00
H213   H     0.86702   0.02114   0.32108   0.00000  Uiso   1.00
H214   H     0.61605   0.11560   0.24268   0.00000  Uiso   1.00
H215   H     0.39263   0.51672   0.26103   0.00000  Uiso   1.00
H216   H     0.49262   0.67865   0.32580   0.00000  Uiso   1.00
H217   H     0.16708   0.42604   0.24315   0.00000  Uiso   1.00
H218   H     0.52229   0.47084   0.20597   0.00000  Uiso   1.00
H219   H     0.59685   0.81811   0.41047   0.00000  Uiso   1.00
H220   H     0.91044   0.28545   0.23620   0.00000  Uiso   1.00
H221   H     0.65947   0.37992   0.15780   0.00000  Uiso   1.00
O222   O     0.63996   0.78690   0.49731   0.00000  Uiso   1.00
O223   O     0.73943   0.08807   0.26866   0.00000  Uiso   1.00
O224   O     0.72214   0.21201   0.16581   0.00000  Uiso   1.00
N225   N     0.54994   0.59378   0.46648   0.00000  Uiso   1.00
N226   N     0.90819   0.09579   0.30356   0.00000  Uiso   1.00
N227   N     0.60845   0.18409   0.23025   0.00000  Uiso   1.00
N228   N     0.57331   0.73601   0.42081   0.00000  Uiso   1.00
N229   N     0.93156   0.23802   0.25788   0.00000  Uiso   1.00
N230   N     0.63181   0.32631   0.18458   0.00000  Uiso   1.00
C231   C     0.11682   0.73966   0.67931   0.00000  Uiso   1.00
C232   C     0.16765   0.66999   0.70428   0.00000  Uiso   1.00
C233   C     0.14878   0.63639   0.74961   0.00000  Uiso   1.00
C234   C     0.20314   0.57308   0.76608   0.00000  Uiso   1.00
C235   C     0.27137   0.46930   0.80912   0.00000  Uiso   1.00
C236   C     0.22272   0.84861   0.66167   0.00000  Uiso   1.00
C237   C     0.25014   0.96519   0.67116   0.00000  Uiso   1.00
C238   C     0.35085   0.05223   0.65175   0.00000  Uiso   1.00
C239   C     0.50453   0.22576   0.62859   0.00000  Uiso   1.00
C240   C     0.04924   0.66428   0.63678   0.00000  Uiso   1.00
C241   C     0.93081   0.62590   0.62533   0.00000  Uiso   1.00
C242   C     0.88547   0.55777   0.58496   0.00000  Uiso   1.00
C243   C     0.76980   0.44510   0.52315   0.00000  Uiso   1.00
C244   C     0.24690   0.68696   0.62795   0.00000  Uiso   1.00
C245   C     0.23831   0.64137   0.67639   0.00000  Uiso   1.00
C246   C     0.29271   0.57809   0.69279   0.00000  Uiso   1.00
C247   C     0.27393   0.54439   0.73814   0.00000  Uiso   1.00
C248   C     0.29338   0.81999   0.63377   0.00000  Uiso   1.00
C249   C     0.39407   0.90688   0.61434   0.00000  Uiso   1.00
C250   C     0.42164   0.02355   0.62380   0.00000  Uiso   1.00
C251   C     0.11990   0.63565   0.60888   0.00000  Uiso   1.00
C252   C     0.07474   0.56759   0.56852   0.00000  Uiso   1.00
C253   C     0.95626   0.52910   0.55701   0.00000  Uiso   1.00
H254   H     0.06181   0.76196   0.70102   0.00000  Uiso   1.00
H255   H     0.09410   0.65857   0.77119   0.00000  Uiso   1.00
H256   H     0.19544   0.98731   0.69274   0.00000  Uiso   1.00
H257   H     0.87616   0.64807   0.64693   0.00000  Uiso   1.00
H258   H     0.16110   0.53136   0.83669   0.00000  Uiso   1.00
H259   H     0.37475   0.22453   0.67126   0.00000  Uiso   1.00
H260   H     0.70148   0.50917   0.57465   0.00000  Uiso   1.00
H261   H     0.30192   0.66468   0.60623   0.00000  Uiso   1.00
H262   H     0.34739   0.55595   0.67120   0.00000  Uiso   1.00
H263   H     0.44872   0.88469   0.59275   0.00000  Uiso   1.00
H264   H     0.12944   0.54545   0.54694   0.00000  Uiso   1.00
H265   H     0.36668   0.44808   0.75553   0.00000  Uiso   1.00
H266   H     0.58032   0.14124   0.59011   0.00000  Uiso   1.00
H267   H     0.90706   0.42589   0.49350   0.00000  Uiso   1.00
O268   O     0.28950   0.41999   0.84056   0.00000  Uiso   1.00
O269   O     0.56978   0.32938   0.62353   0.00000  Uiso   1.00
O270   O     0.68648   0.39085   0.49677   0.00000  Uiso   1.00
N271   N     0.20323   0.52666   0.80867   0.00000  Uiso   1.00
N272   N     0.40298   0.17473   0.65401   0.00000  Uiso   1.00
N273   N     0.77354   0.50596   0.56368   0.00000  Uiso   1.00
N274   N     0.31384   0.48185   0.76500   0.00000  Uiso   1.00
N275   N     0.51360   0.12991   0.61034   0.00000  Uiso   1.00
N276   N     0.88416   0.46114   0.52001   0.00000  Uiso   1.00
