data_job_04965
_audit_creation_date              2018-12-19
_audit_creation_method            'Materials Studio'
_symmetry_space_group_name_H-M    'P1'
_symmetry_Int_Tables_number       1
_symmetry_cell_setting            triclinic
loop_
_symmetry_equiv_pos_as_xyz
  x,y,z
_cell_length_a                    15.1085
_cell_length_b                    35.6395
_cell_length_c                    10.0283
_cell_angle_alpha                 90.0000
_cell_angle_beta                  90.0000
_cell_angle_gamma                 90.0000
loop_
_atom_site_label
_atom_site_type_symbol
_atom_site_fract_x
_atom_site_fract_y
_atom_site_fract_z
_atom_site_U_iso_or_equiv
_atom_site_adp_type
_atom_site_occupancy
C1     C     0.83550   0.88222   0.90580   0.00000  Uiso   1.00
C2     C     0.92864   0.89290   0.95045   0.00000  Uiso   1.00
C3     C     0.96936   0.88141   0.06758   0.00000  Uiso   1.00
C4     C     0.05481   0.89424   0.09026   0.00000  Uiso   1.00
C5     C     0.19285   0.90727   0.17351   0.00000  Uiso   1.00
C6     C     0.78653   0.91909   0.88321   0.00000  Uiso   1.00
C7     C     0.70777   0.92962   0.94380   0.00000  Uiso   1.00
C8     C     0.67359   0.96450   0.90987   0.00000  Uiso   1.00
C9     C     0.59099   0.01818   0.88865   0.00000  Uiso   1.00
C10    C     0.84570   0.86428   0.76860   0.00000  Uiso   1.00
C11    C     0.81666   0.82874   0.73281   0.00000  Uiso   1.00
C12    C     0.83227   0.81748   0.60237   0.00000  Uiso   1.00
C13    C     0.84152   0.78606   0.40320   0.00000  Uiso   1.00
C14    C     0.91484   0.92543   0.73778   0.00000  Uiso   1.00
C15    C     0.97173   0.91637   0.85919   0.00000  Uiso   1.00
C16    C     0.05714   0.92922   0.88169   0.00000  Uiso   1.00
C17    C     0.09798   0.91776   0.99884   0.00000  Uiso   1.00
C18    C     0.82962   0.94256   0.79196   0.00000  Uiso   1.00
C19    C     0.79555   0.97743   0.75791   0.00000  Uiso   1.00
C20    C     0.71676   0.98801   0.81844   0.00000  Uiso   1.00
C21    C     0.88879   0.88775   0.67734   0.00000  Uiso   1.00
C22    C     0.90444   0.87655   0.54692   0.00000  Uiso   1.00
C23    C     0.87544   0.84099   0.51094   0.00000  Uiso   1.00
H24    H     0.80194   0.86394   0.97685   0.00000  Uiso   1.00
H25    H     0.93598   0.86325   0.13819   0.00000  Uiso   1.00
H26    H     0.67443   0.91145   0.01441   0.00000  Uiso   1.00
H27    H     0.78331   0.81058   0.80346   0.00000  Uiso   1.00
H28    H     0.10358   0.87284   0.27684   0.00000  Uiso   1.00
H29    H     0.55208   0.97447   0.01582   0.00000  Uiso   1.00
H30    H     0.78166   0.76177   0.57098   0.00000  Uiso   1.00
H31    H     0.94839   0.94370   0.66673   0.00000  Uiso   1.00
H32    H     0.09047   0.94738   0.81105   0.00000  Uiso   1.00
H33    H     0.82892   0.99558   0.68728   0.00000  Uiso   1.00
H34    H     0.93779   0.89472   0.47633   0.00000  Uiso   1.00
H35    H     0.22897   0.94113   0.01133   0.00000  Uiso   1.00
H36    H     0.67746   0.04276   0.75031   0.00000  Uiso   1.00
H37    H     0.90704   0.83006   0.30547   0.00000  Uiso   1.00
O38    O     0.25709   0.90798   0.24464   0.00000  Uiso   1.00
O39    O     0.53352   0.04130   0.90218   0.00000  Uiso   1.00
O40    O     0.83474   0.76225   0.31856   0.00000  Uiso   1.00
N41    N     0.11360   0.88840   0.19453   0.00000  Uiso   1.00
N42    N     0.59798   0.98342   0.95051   0.00000  Uiso   1.00
N43    N     0.81260   0.78457   0.53461   0.00000  Uiso   1.00
N44    N     0.18107   0.92515   0.05166   0.00000  Uiso   1.00
N45    N     0.66545   0.02016   0.80764   0.00000  Uiso   1.00
N46    N     0.88007   0.82131   0.39174   0.00000  Uiso   1.00
C47    C     0.66450   0.11778   0.40580   0.00000  Uiso   1.00
C48    C     0.57136   0.10710   0.45045   0.00000  Uiso   1.00
C49    C     0.53064   0.11859   0.56758   0.00000  Uiso   1.00
C50    C     0.44519   0.10576   0.59026   0.00000  Uiso   1.00
C51    C     0.30715   0.09273   0.67351   0.00000  Uiso   1.00
C52    C     0.71347   0.08091   0.38321   0.00000  Uiso   1.00
C53    C     0.79223   0.07038   0.44380   0.00000  Uiso   1.00
C54    C     0.82641   0.03550   0.40987   0.00000  Uiso   1.00
C55    C     0.90901   0.98182   0.38865   0.00000  Uiso   1.00
C56    C     0.65430   0.13572   0.26860   0.00000  Uiso   1.00
C57    C     0.68334   0.17126   0.23281   0.00000  Uiso   1.00
C58    C     0.66773   0.18252   0.10237   0.00000  Uiso   1.00
C59    C     0.65848   0.21394   0.90320   0.00000  Uiso   1.00
C60    C     0.58516   0.07457   0.23778   0.00000  Uiso   1.00
C61    C     0.52827   0.08363   0.35919   0.00000  Uiso   1.00
C62    C     0.44286   0.07078   0.38169   0.00000  Uiso   1.00
C63    C     0.40202   0.08224   0.49884   0.00000  Uiso   1.00
C64    C     0.67038   0.05744   0.29196   0.00000  Uiso   1.00
C65    C     0.70445   0.02257   0.25791   0.00000  Uiso   1.00
C66    C     0.78324   0.01199   0.31844   0.00000  Uiso   1.00
C67    C     0.61121   0.11225   0.17734   0.00000  Uiso   1.00
C68    C     0.59556   0.12345   0.04692   0.00000  Uiso   1.00
C69    C     0.62456   0.15901   0.01094   0.00000  Uiso   1.00
H70    H     0.69806   0.13606   0.47685   0.00000  Uiso   1.00
H71    H     0.56402   0.13675   0.63819   0.00000  Uiso   1.00
H72    H     0.82557   0.08855   0.51441   0.00000  Uiso   1.00
H73    H     0.71669   0.18942   0.30346   0.00000  Uiso   1.00
H74    H     0.39642   0.12716   0.77684   0.00000  Uiso   1.00
H75    H     0.94792   0.02553   0.51582   0.00000  Uiso   1.00
H76    H     0.71834   0.23823   0.07098   0.00000  Uiso   1.00
H77    H     0.55161   0.05630   0.16673   0.00000  Uiso   1.00
H78    H     0.40953   0.05262   0.31105   0.00000  Uiso   1.00
H79    H     0.67108   0.00442   0.18728   0.00000  Uiso   1.00
H80    H     0.56221   0.10528   0.97633   0.00000  Uiso   1.00
H81    H     0.27103   0.05887   0.51133   0.00000  Uiso   1.00
H82    H     0.82254   0.95724   0.25031   0.00000  Uiso   1.00
H83    H     0.59296   0.16994   0.80547   0.00000  Uiso   1.00
O84    O     0.24291   0.09202   0.74464   0.00000  Uiso   1.00
O85    O     0.96648   0.95870   0.40218   0.00000  Uiso   1.00
O86    O     0.66526   0.23775   0.81856   0.00000  Uiso   1.00
N87    N     0.38640   0.11160   0.69453   0.00000  Uiso   1.00
N88    N     0.90202   0.01658   0.45051   0.00000  Uiso   1.00
N89    N     0.68740   0.21543   0.03461   0.00000  Uiso   1.00
N90    N     0.31893   0.07485   0.55166   0.00000  Uiso   1.00
N91    N     0.83455   0.97984   0.30764   0.00000  Uiso   1.00
N92    N     0.61993   0.17869   0.89174   0.00000  Uiso   1.00
C93    C     0.16450   0.38222   0.59420   0.00000  Uiso   1.00
C94    C     0.07136   0.39290   0.54955   0.00000  Uiso   1.00
C95    C     0.03064   0.38141   0.43242   0.00000  Uiso   1.00
C96    C     0.94519   0.39424   0.40974   0.00000  Uiso   1.00
C97    C     0.80715   0.40727   0.32649   0.00000  Uiso   1.00
C98    C     0.21347   0.41909   0.61679   0.00000  Uiso   1.00
C99    C     0.29223   0.42962   0.55620   0.00000  Uiso   1.00
C100   C     0.32641   0.46450   0.59013   0.00000  Uiso   1.00
C101   C     0.40901   0.51818   0.61135   0.00000  Uiso   1.00
C102   C     0.15430   0.36428   0.73140   0.00000  Uiso   1.00
C103   C     0.18334   0.32874   0.76719   0.00000  Uiso   1.00
C104   C     0.16773   0.31748   0.89763   0.00000  Uiso   1.00
C105   C     0.15848   0.28606   0.09680   0.00000  Uiso   1.00
C106   C     0.08516   0.42543   0.76222   0.00000  Uiso   1.00
C107   C     0.02827   0.41637   0.64081   0.00000  Uiso   1.00
C108   C     0.94286   0.42922   0.61831   0.00000  Uiso   1.00
C109   C     0.90202   0.41776   0.50116   0.00000  Uiso   1.00
C110   C     0.17038   0.44256   0.70804   0.00000  Uiso   1.00
C111   C     0.20445   0.47743   0.74209   0.00000  Uiso   1.00
C112   C     0.28324   0.48801   0.68156   0.00000  Uiso   1.00
C113   C     0.11121   0.38775   0.82266   0.00000  Uiso   1.00
C114   C     0.09556   0.37655   0.95308   0.00000  Uiso   1.00
C115   C     0.12456   0.34099   0.98906   0.00000  Uiso   1.00
H116   H     0.19806   0.36394   0.52315   0.00000  Uiso   1.00
H117   H     0.06402   0.36325   0.36181   0.00000  Uiso   1.00
H118   H     0.32557   0.41145   0.48559   0.00000  Uiso   1.00
H119   H     0.21669   0.31058   0.69654   0.00000  Uiso   1.00
H120   H     0.89642   0.37284   0.22316   0.00000  Uiso   1.00
H121   H     0.44792   0.47447   0.48418   0.00000  Uiso   1.00
H122   H     0.21834   0.26177   0.92902   0.00000  Uiso   1.00
H123   H     0.05161   0.44370   0.83327   0.00000  Uiso   1.00
H124   H     0.90953   0.44738   0.68895   0.00000  Uiso   1.00
H125   H     0.17108   0.49558   0.81272   0.00000  Uiso   1.00
H126   H     0.06221   0.39472   0.02367   0.00000  Uiso   1.00
H127   H     0.77103   0.44113   0.48867   0.00000  Uiso   1.00
H128   H     0.32254   0.54276   0.74969   0.00000  Uiso   1.00
H129   H     0.09296   0.33006   0.19453   0.00000  Uiso   1.00
O130   O     0.74291   0.40798   0.25536   0.00000  Uiso   1.00
O131   O     0.46648   0.54130   0.59782   0.00000  Uiso   1.00
O132   O     0.16526   0.26225   0.18144   0.00000  Uiso   1.00
N133   N     0.88640   0.38840   0.30547   0.00000  Uiso   1.00
N134   N     0.40202   0.48342   0.54949   0.00000  Uiso   1.00
N135   N     0.18740   0.28457   0.96539   0.00000  Uiso   1.00
N136   N     0.81893   0.42515   0.44834   0.00000  Uiso   1.00
N137   N     0.33455   0.52016   0.69236   0.00000  Uiso   1.00
N138   N     0.11993   0.32131   0.10826   0.00000  Uiso   1.00
C139   C     0.33550   0.61778   0.09420   0.00000  Uiso   1.00
C140   C     0.42864   0.60710   0.04955   0.00000  Uiso   1.00
C141   C     0.46936   0.61859   0.93242   0.00000  Uiso   1.00
C142   C     0.55481   0.60576   0.90974   0.00000  Uiso   1.00
C143   C     0.69285   0.59273   0.82649   0.00000  Uiso   1.00
C144   C     0.28653   0.58091   0.11679   0.00000  Uiso   1.00
C145   C     0.20777   0.57038   0.05620   0.00000  Uiso   1.00
C146   C     0.17359   0.53550   0.09013   0.00000  Uiso   1.00
C147   C     0.09099   0.48182   0.11135   0.00000  Uiso   1.00
C148   C     0.34570   0.63572   0.23140   0.00000  Uiso   1.00
C149   C     0.31666   0.67126   0.26719   0.00000  Uiso   1.00
C150   C     0.33227   0.68252   0.39763   0.00000  Uiso   1.00
C151   C     0.34152   0.71394   0.59680   0.00000  Uiso   1.00
C152   C     0.41484   0.57457   0.26222   0.00000  Uiso   1.00
C153   C     0.47173   0.58363   0.14081   0.00000  Uiso   1.00
C154   C     0.55714   0.57078   0.11831   0.00000  Uiso   1.00
C155   C     0.59798   0.58224   0.00116   0.00000  Uiso   1.00
C156   C     0.32962   0.55744   0.20804   0.00000  Uiso   1.00
C157   C     0.29555   0.52257   0.24209   0.00000  Uiso   1.00
C158   C     0.21676   0.51199   0.18156   0.00000  Uiso   1.00
C159   C     0.38879   0.61225   0.32266   0.00000  Uiso   1.00
C160   C     0.40444   0.62345   0.45308   0.00000  Uiso   1.00
C161   C     0.37544   0.65901   0.48906   0.00000  Uiso   1.00
H162   H     0.30194   0.63606   0.02315   0.00000  Uiso   1.00
H163   H     0.43598   0.63675   0.86181   0.00000  Uiso   1.00
H164   H     0.17443   0.58855   0.98559   0.00000  Uiso   1.00
H165   H     0.28331   0.68942   0.19654   0.00000  Uiso   1.00
H166   H     0.60358   0.62716   0.72316   0.00000  Uiso   1.00
H167   H     0.05208   0.52553   0.98418   0.00000  Uiso   1.00
H168   H     0.28166   0.73823   0.42902   0.00000  Uiso   1.00
H169   H     0.44839   0.55630   0.33327   0.00000  Uiso   1.00
H170   H     0.59047   0.55262   0.18895   0.00000  Uiso   1.00
H171   H     0.32892   0.50442   0.31272   0.00000  Uiso   1.00
H172   H     0.43779   0.60528   0.52367   0.00000  Uiso   1.00
H173   H     0.72897   0.55887   0.98867   0.00000  Uiso   1.00
H174   H     0.17746   0.45724   0.24969   0.00000  Uiso   1.00
H175   H     0.40704   0.66994   0.69453   0.00000  Uiso   1.00
O176   O     0.75709   0.59202   0.75536   0.00000  Uiso   1.00
O177   O     0.03352   0.45870   0.09782   0.00000  Uiso   1.00
O178   O     0.33474   0.73775   0.68144   0.00000  Uiso   1.00
N179   N     0.61360   0.61160   0.80547   0.00000  Uiso   1.00
N180   N     0.09798   0.51658   0.04949   0.00000  Uiso   1.00
N181   N     0.31260   0.71543   0.46539   0.00000  Uiso   1.00
N182   N     0.68107   0.57485   0.94834   0.00000  Uiso   1.00
N183   N     0.16545   0.47984   0.19236   0.00000  Uiso   1.00
N184   N     0.38007   0.67869   0.60826   0.00000  Uiso   1.00
C185   C     0.16450   0.11778   0.09420   0.00000  Uiso   1.00
C186   C     0.07136   0.10710   0.04955   0.00000  Uiso   1.00
C187   C     0.03064   0.11859   0.93242   0.00000  Uiso   1.00
C188   C     0.94519   0.10576   0.90974   0.00000  Uiso   1.00
C189   C     0.80715   0.09273   0.82649   0.00000  Uiso   1.00
C190   C     0.21347   0.08091   0.11679   0.00000  Uiso   1.00
C191   C     0.29223   0.07038   0.05620   0.00000  Uiso   1.00
C192   C     0.32641   0.03550   0.09013   0.00000  Uiso   1.00
C193   C     0.40901   0.98182   0.11135   0.00000  Uiso   1.00
C194   C     0.15430   0.13572   0.23140   0.00000  Uiso   1.00
C195   C     0.18334   0.17126   0.26719   0.00000  Uiso   1.00
C196   C     0.16773   0.18252   0.39763   0.00000  Uiso   1.00
C197   C     0.15848   0.21394   0.59680   0.00000  Uiso   1.00
C198   C     0.08516   0.07457   0.26222   0.00000  Uiso   1.00
C199   C     0.02827   0.08363   0.14081   0.00000  Uiso   1.00
C200   C     0.94286   0.07078   0.11831   0.00000  Uiso   1.00
C201   C     0.90202   0.08224   0.00116   0.00000  Uiso   1.00
C202   C     0.17038   0.05744   0.20804   0.00000  Uiso   1.00
C203   C     0.20445   0.02257   0.24209   0.00000  Uiso   1.00
C204   C     0.28324   0.01199   0.18156   0.00000  Uiso   1.00
C205   C     0.11121   0.11225   0.32266   0.00000  Uiso   1.00
C206   C     0.09556   0.12345   0.45308   0.00000  Uiso   1.00
C207   C     0.12456   0.15901   0.48906   0.00000  Uiso   1.00
H208   H     0.19806   0.13606   0.02315   0.00000  Uiso   1.00
H209   H     0.06402   0.13675   0.86181   0.00000  Uiso   1.00
H210   H     0.32557   0.08855   0.98559   0.00000  Uiso   1.00
H211   H     0.21669   0.18942   0.19654   0.00000  Uiso   1.00
H212   H     0.89642   0.12716   0.72316   0.00000  Uiso   1.00
H213   H     0.44792   0.02553   0.98418   0.00000  Uiso   1.00
H214   H     0.21834   0.23823   0.42902   0.00000  Uiso   1.00
H215   H     0.05161   0.05630   0.33327   0.00000  Uiso   1.00
H216   H     0.90953   0.05262   0.18895   0.00000  Uiso   1.00
H217   H     0.17108   0.00442   0.31272   0.00000  Uiso   1.00
H218   H     0.06221   0.10528   0.52367   0.00000  Uiso   1.00
H219   H     0.77103   0.05887   0.98867   0.00000  Uiso   1.00
H220   H     0.32254   0.95724   0.24969   0.00000  Uiso   1.00
H221   H     0.09296   0.16994   0.69453   0.00000  Uiso   1.00
O222   O     0.74291   0.09202   0.75536   0.00000  Uiso   1.00
O223   O     0.46648   0.95870   0.09782   0.00000  Uiso   1.00
O224   O     0.16526   0.23775   0.68144   0.00000  Uiso   1.00
N225   N     0.88640   0.11160   0.80547   0.00000  Uiso   1.00
N226   N     0.40202   0.01658   0.04949   0.00000  Uiso   1.00
N227   N     0.18740   0.21543   0.46539   0.00000  Uiso   1.00
N228   N     0.81893   0.07485   0.94834   0.00000  Uiso   1.00
N229   N     0.33455   0.97984   0.19236   0.00000  Uiso   1.00
N230   N     0.11993   0.17869   0.60826   0.00000  Uiso   1.00
C231   C     0.33550   0.88222   0.59420   0.00000  Uiso   1.00
C232   C     0.42864   0.89290   0.54955   0.00000  Uiso   1.00
C233   C     0.46936   0.88141   0.43242   0.00000  Uiso   1.00
C234   C     0.55481   0.89424   0.40974   0.00000  Uiso   1.00
C235   C     0.69285   0.90727   0.32649   0.00000  Uiso   1.00
C236   C     0.28653   0.91909   0.61679   0.00000  Uiso   1.00
C237   C     0.20777   0.92962   0.55620   0.00000  Uiso   1.00
C238   C     0.17359   0.96450   0.59013   0.00000  Uiso   1.00
C239   C     0.09099   0.01818   0.61135   0.00000  Uiso   1.00
C240   C     0.34570   0.86428   0.73140   0.00000  Uiso   1.00
C241   C     0.31666   0.82874   0.76719   0.00000  Uiso   1.00
C242   C     0.33227   0.81748   0.89763   0.00000  Uiso   1.00
C243   C     0.34152   0.78606   0.09680   0.00000  Uiso   1.00
C244   C     0.41484   0.92543   0.76222   0.00000  Uiso   1.00
C245   C     0.47173   0.91637   0.64081   0.00000  Uiso   1.00
C246   C     0.55714   0.92922   0.61831   0.00000  Uiso   1.00
C247   C     0.59798   0.91776   0.50116   0.00000  Uiso   1.00
C248   C     0.32962   0.94256   0.70804   0.00000  Uiso   1.00
C249   C     0.29555   0.97743   0.74209   0.00000  Uiso   1.00
C250   C     0.21676   0.98801   0.68156   0.00000  Uiso   1.00
C251   C     0.38879   0.88775   0.82266   0.00000  Uiso   1.00
C252   C     0.40444   0.87655   0.95308   0.00000  Uiso   1.00
C253   C     0.37544   0.84099   0.98906   0.00000  Uiso   1.00
H254   H     0.30194   0.86394   0.52315   0.00000  Uiso   1.00
H255   H     0.43598   0.86325   0.36181   0.00000  Uiso   1.00
H256   H     0.17443   0.91145   0.48559   0.00000  Uiso   1.00
H257   H     0.28331   0.81058   0.69654   0.00000  Uiso   1.00
H258   H     0.60358   0.87284   0.22316   0.00000  Uiso   1.00
H259   H     0.05208   0.97447   0.48418   0.00000  Uiso   1.00
H260   H     0.28166   0.76177   0.92902   0.00000  Uiso   1.00
H261   H     0.44839   0.94370   0.83327   0.00000  Uiso   1.00
H262   H     0.59047   0.94738   0.68895   0.00000  Uiso   1.00
H263   H     0.32892   0.99558   0.81272   0.00000  Uiso   1.00
H264   H     0.43779   0.89472   0.02367   0.00000  Uiso   1.00
H265   H     0.72897   0.94113   0.48867   0.00000  Uiso   1.00
H266   H     0.17746   0.04276   0.74969   0.00000  Uiso   1.00
H267   H     0.40704   0.83006   0.19453   0.00000  Uiso   1.00
O268   O     0.75709   0.90798   0.25536   0.00000  Uiso   1.00
O269   O     0.03352   0.04130   0.59782   0.00000  Uiso   1.00
O270   O     0.33474   0.76225   0.18144   0.00000  Uiso   1.00
N271   N     0.61360   0.88840   0.30547   0.00000  Uiso   1.00
N272   N     0.09798   0.98342   0.54949   0.00000  Uiso   1.00
N273   N     0.31260   0.78457   0.96539   0.00000  Uiso   1.00
N274   N     0.68107   0.92515   0.44834   0.00000  Uiso   1.00
N275   N     0.16545   0.02016   0.69236   0.00000  Uiso   1.00
N276   N     0.38007   0.82131   0.10826   0.00000  Uiso   1.00
C277   C     0.83550   0.61778   0.40580   0.00000  Uiso   1.00
C278   C     0.92864   0.60710   0.45045   0.00000  Uiso   1.00
C279   C     0.96936   0.61859   0.56758   0.00000  Uiso   1.00
C280   C     0.05481   0.60576   0.59026   0.00000  Uiso   1.00
C281   C     0.19285   0.59273   0.67351   0.00000  Uiso   1.00
C282   C     0.78653   0.58091   0.38321   0.00000  Uiso   1.00
C283   C     0.70777   0.57038   0.44380   0.00000  Uiso   1.00
C284   C     0.67359   0.53550   0.40987   0.00000  Uiso   1.00
C285   C     0.59099   0.48182   0.38865   0.00000  Uiso   1.00
C286   C     0.84570   0.63572   0.26860   0.00000  Uiso   1.00
C287   C     0.81666   0.67126   0.23281   0.00000  Uiso   1.00
C288   C     0.83227   0.68252   0.10237   0.00000  Uiso   1.00
C289   C     0.84152   0.71394   0.90320   0.00000  Uiso   1.00
C290   C     0.91484   0.57457   0.23778   0.00000  Uiso   1.00
C291   C     0.97173   0.58363   0.35919   0.00000  Uiso   1.00
C292   C     0.05714   0.57078   0.38169   0.00000  Uiso   1.00
C293   C     0.09798   0.58224   0.49884   0.00000  Uiso   1.00
C294   C     0.82962   0.55744   0.29196   0.00000  Uiso   1.00
C295   C     0.79555   0.52257   0.25791   0.00000  Uiso   1.00
C296   C     0.71676   0.51199   0.31844   0.00000  Uiso   1.00
C297   C     0.88879   0.61225   0.17734   0.00000  Uiso   1.00
C298   C     0.90444   0.62345   0.04692   0.00000  Uiso   1.00
C299   C     0.87544   0.65901   0.01094   0.00000  Uiso   1.00
H300   H     0.80194   0.63606   0.47685   0.00000  Uiso   1.00
H301   H     0.93598   0.63675   0.63819   0.00000  Uiso   1.00
H302   H     0.67443   0.58855   0.51441   0.00000  Uiso   1.00
H303   H     0.78331   0.68942   0.30346   0.00000  Uiso   1.00
H304   H     0.10358   0.62716   0.77684   0.00000  Uiso   1.00
H305   H     0.55208   0.52553   0.51582   0.00000  Uiso   1.00
H306   H     0.78166   0.73823   0.07098   0.00000  Uiso   1.00
H307   H     0.94839   0.55630   0.16673   0.00000  Uiso   1.00
H308   H     0.09047   0.55262   0.31105   0.00000  Uiso   1.00
H309   H     0.82892   0.50442   0.18728   0.00000  Uiso   1.00
H310   H     0.93779   0.60528   0.97633   0.00000  Uiso   1.00
H311   H     0.22897   0.55887   0.51133   0.00000  Uiso   1.00
H312   H     0.67746   0.45724   0.25031   0.00000  Uiso   1.00
H313   H     0.90704   0.66994   0.80547   0.00000  Uiso   1.00
O314   O     0.25709   0.59202   0.74464   0.00000  Uiso   1.00
O315   O     0.53352   0.45870   0.40218   0.00000  Uiso   1.00
O316   O     0.83474   0.73775   0.81856   0.00000  Uiso   1.00
N317   N     0.11360   0.61160   0.69453   0.00000  Uiso   1.00
N318   N     0.59798   0.51658   0.45051   0.00000  Uiso   1.00
N319   N     0.81260   0.71543   0.03461   0.00000  Uiso   1.00
N320   N     0.18107   0.57485   0.55166   0.00000  Uiso   1.00
N321   N     0.66545   0.47984   0.30764   0.00000  Uiso   1.00
N322   N     0.88007   0.67869   0.89174   0.00000  Uiso   1.00
C323   C     0.66450   0.38222   0.90580   0.00000  Uiso   1.00
C324   C     0.57136   0.39290   0.95045   0.00000  Uiso   1.00
C325   C     0.53064   0.38141   0.06758   0.00000  Uiso   1.00
C326   C     0.44519   0.39424   0.09026   0.00000  Uiso   1.00
C327   C     0.30715   0.40727   0.17351   0.00000  Uiso   1.00
C328   C     0.71347   0.41909   0.88321   0.00000  Uiso   1.00
C329   C     0.79223   0.42962   0.94380   0.00000  Uiso   1.00
C330   C     0.82641   0.46450   0.90987   0.00000  Uiso   1.00
C331   C     0.90901   0.51818   0.88865   0.00000  Uiso   1.00
C332   C     0.65430   0.36428   0.76860   0.00000  Uiso   1.00
C333   C     0.68334   0.32874   0.73281   0.00000  Uiso   1.00
C334   C     0.66773   0.31748   0.60237   0.00000  Uiso   1.00
C335   C     0.65848   0.28606   0.40320   0.00000  Uiso   1.00
C336   C     0.58516   0.42543   0.73778   0.00000  Uiso   1.00
C337   C     0.52827   0.41637   0.85919   0.00000  Uiso   1.00
C338   C     0.44286   0.42922   0.88169   0.00000  Uiso   1.00
C339   C     0.40202   0.41776   0.99884   0.00000  Uiso   1.00
C340   C     0.67038   0.44256   0.79196   0.00000  Uiso   1.00
C341   C     0.70445   0.47743   0.75791   0.00000  Uiso   1.00
C342   C     0.78324   0.48801   0.81844   0.00000  Uiso   1.00
C343   C     0.61121   0.38775   0.67734   0.00000  Uiso   1.00
C344   C     0.59556   0.37655   0.54692   0.00000  Uiso   1.00
C345   C     0.62456   0.34099   0.51094   0.00000  Uiso   1.00
H346   H     0.69806   0.36394   0.97685   0.00000  Uiso   1.00
H347   H     0.56402   0.36325   0.13819   0.00000  Uiso   1.00
H348   H     0.82557   0.41145   0.01441   0.00000  Uiso   1.00
H349   H     0.71669   0.31058   0.80346   0.00000  Uiso   1.00
H350   H     0.39642   0.37284   0.27684   0.00000  Uiso   1.00
H351   H     0.94792   0.47447   0.01582   0.00000  Uiso   1.00
H352   H     0.71834   0.26177   0.57098   0.00000  Uiso   1.00
H353   H     0.55161   0.44370   0.66673   0.00000  Uiso   1.00
H354   H     0.40953   0.44738   0.81105   0.00000  Uiso   1.00
H355   H     0.67108   0.49558   0.68728   0.00000  Uiso   1.00
H356   H     0.56221   0.39472   0.47633   0.00000  Uiso   1.00
H357   H     0.27103   0.44113   0.01133   0.00000  Uiso   1.00
H358   H     0.82254   0.54276   0.75031   0.00000  Uiso   1.00
H359   H     0.59296   0.33006   0.30547   0.00000  Uiso   1.00
O360   O     0.24291   0.40798   0.24464   0.00000  Uiso   1.00
O361   O     0.96648   0.54130   0.90218   0.00000  Uiso   1.00
O362   O     0.66526   0.26225   0.31856   0.00000  Uiso   1.00
N363   N     0.38640   0.38840   0.19453   0.00000  Uiso   1.00
N364   N     0.90202   0.48342   0.95051   0.00000  Uiso   1.00
N365   N     0.68740   0.28457   0.53461   0.00000  Uiso   1.00
N366   N     0.31893   0.42515   0.05166   0.00000  Uiso   1.00
N367   N     0.83455   0.52016   0.80764   0.00000  Uiso   1.00
N368   N     0.61993   0.32131   0.39174   0.00000  Uiso   1.00
