data_job_01756
_audit_creation_date              2018-12-19
_audit_creation_method            'Materials Studio'
_symmetry_space_group_name_H-M    'P1'
_symmetry_Int_Tables_number       1
_symmetry_cell_setting            triclinic
loop_
_symmetry_equiv_pos_as_xyz
  x,y,z
_cell_length_a                    20.1320
_cell_length_b                    14.5671
_cell_length_c                    31.6442
_cell_angle_alpha                 90.0000
_cell_angle_beta                  44.4696
_cell_angle_gamma                 90.0000
loop_
_atom_site_label
_atom_site_type_symbol
_atom_site_fract_x
_atom_site_fract_y
_atom_site_fract_z
_atom_site_U_iso_or_equiv
_atom_site_adp_type
_atom_site_occupancy
C1     C     0.01144   0.51741   0.65032   0.00000  Uiso   1.00
C2     C     0.97258   0.42551   0.65271   0.00000  Uiso   1.00
C3     C     0.88571   0.38785   0.70327   0.00000  Uiso   1.00
C4     C     0.86316   0.30305   0.69618   0.00000  Uiso   1.00
C5     C     0.79339   0.16725   0.70837   0.00000  Uiso   1.00
C6     C     0.10707   0.49652   0.62722   0.00000  Uiso   1.00
C7     C     0.13329   0.51858   0.65636   0.00000  Uiso   1.00
C8     C     0.22397   0.49357   0.62781   0.00000  Uiso   1.00
C9     C     0.36303   0.46807   0.60040   0.00000  Uiso   1.00
C10    C     0.03308   0.57289   0.60079   0.00000  Uiso   1.00
C11    C     0.99710   0.65916   0.60768   0.00000  Uiso   1.00
C12    C     0.02551   0.69845   0.55687   0.00000  Uiso   1.00
C13    C     0.04968   0.79152   0.48842   0.00000  Uiso   1.00
C14    C     0.12587   0.43379   0.54781   0.00000  Uiso   1.00
C15    C     0.03474   0.38010   0.59703   0.00000  Uiso   1.00
C16    C     0.01232   0.29533   0.58986   0.00000  Uiso   1.00
C17    C     0.92543   0.25755   0.64040   0.00000  Uiso   1.00
C18    C     0.16923   0.45111   0.57155   0.00000  Uiso   1.00
C19    C     0.25990   0.42606   0.54294   0.00000  Uiso   1.00
C20    C     0.28624   0.44807   0.57203   0.00000  Uiso   1.00
C21    C     0.09524   0.52747   0.54511   0.00000  Uiso   1.00
C22    C     0.12371   0.56664   0.49427   0.00000  Uiso   1.00
C23    C     0.08778   0.65295   0.50109   0.00000  Uiso   1.00
H24    H     0.96305   0.55277   0.69367   0.00000  Uiso   1.00
H25    H     0.83763   0.42302   0.74636   0.00000  Uiso   1.00
H26    H     0.08518   0.55373   0.69944   0.00000  Uiso   1.00
H27    H     0.94901   0.69429   0.65078   0.00000  Uiso   1.00
H28    H     0.72600   0.25911   0.78022   0.00000  Uiso   1.00
H29    H     0.24798   0.53476   0.68129   0.00000  Uiso   1.00
H30    H     0.96084   0.83116   0.57867   0.00000  Uiso   1.00
H31    H     0.17427   0.39843   0.50446   0.00000  Uiso   1.00
H32    H     0.06043   0.26020   0.54677   0.00000  Uiso   1.00
H33    H     0.30798   0.39092   0.49986   0.00000  Uiso   1.00
H34    H     0.17181   0.53147   0.45119   0.00000  Uiso   1.00
H35    H     0.90684   0.12697   0.61823   0.00000  Uiso   1.00
H36    H     0.42882   0.40262   0.51930   0.00000  Uiso   1.00
H37    H     0.14168   0.69901   0.41668   0.00000  Uiso   1.00
O38    O     0.73774   0.10488   0.73047   0.00000  Uiso   1.00
O39    O     0.42256   0.46654   0.60068   0.00000  Uiso   1.00
O40    O     0.04583   0.85539   0.46604   0.00000  Uiso   1.00
N41    N     0.78418   0.24699   0.73629   0.00000  Uiso   1.00
N42    N     0.27219   0.50469   0.64380   0.00000  Uiso   1.00
N43    N     0.00376   0.78181   0.54785   0.00000  Uiso   1.00
N44    N     0.88148   0.17588   0.64912   0.00000  Uiso   1.00
N45    N     0.36950   0.43359   0.55663   0.00000  Uiso   1.00
N46    N     0.10106   0.71070   0.46069   0.00000  Uiso   1.00
C47    C     0.51144   0.01741   0.65032   0.00000  Uiso   1.00
C48    C     0.47258   0.92551   0.65271   0.00000  Uiso   1.00
C49    C     0.38571   0.88785   0.70327   0.00000  Uiso   1.00
C50    C     0.36316   0.80305   0.69618   0.00000  Uiso   1.00
C51    C     0.29339   0.66725   0.70837   0.00000  Uiso   1.00
C52    C     0.60707   0.99652   0.62722   0.00000  Uiso   1.00
C53    C     0.63329   0.01858   0.65636   0.00000  Uiso   1.00
C54    C     0.72397   0.99357   0.62781   0.00000  Uiso   1.00
C55    C     0.86303   0.96807   0.60040   0.00000  Uiso   1.00
C56    C     0.53308   0.07289   0.60079   0.00000  Uiso   1.00
C57    C     0.49710   0.15916   0.60768   0.00000  Uiso   1.00
C58    C     0.52551   0.19845   0.55687   0.00000  Uiso   1.00
C59    C     0.54968   0.29152   0.48842   0.00000  Uiso   1.00
C60    C     0.62587   0.93379   0.54781   0.00000  Uiso   1.00
C61    C     0.53474   0.88010   0.59703   0.00000  Uiso   1.00
C62    C     0.51232   0.79533   0.58986   0.00000  Uiso   1.00
C63    C     0.42543   0.75755   0.64040   0.00000  Uiso   1.00
C64    C     0.66923   0.95111   0.57155   0.00000  Uiso   1.00
C65    C     0.75990   0.92606   0.54294   0.00000  Uiso   1.00
C66    C     0.78624   0.94807   0.57203   0.00000  Uiso   1.00
C67    C     0.59524   0.02747   0.54511   0.00000  Uiso   1.00
C68    C     0.62371   0.06664   0.49427   0.00000  Uiso   1.00
C69    C     0.58778   0.15295   0.50109   0.00000  Uiso   1.00
H70    H     0.46305   0.05277   0.69367   0.00000  Uiso   1.00
H71    H     0.33763   0.92302   0.74636   0.00000  Uiso   1.00
H72    H     0.58518   0.05373   0.69944   0.00000  Uiso   1.00
H73    H     0.44901   0.19429   0.65078   0.00000  Uiso   1.00
H74    H     0.22600   0.75911   0.78022   0.00000  Uiso   1.00
H75    H     0.74798   0.03476   0.68129   0.00000  Uiso   1.00
H76    H     0.46084   0.33116   0.57867   0.00000  Uiso   1.00
H77    H     0.67427   0.89843   0.50446   0.00000  Uiso   1.00
H78    H     0.56043   0.76020   0.54677   0.00000  Uiso   1.00
H79    H     0.80798   0.89092   0.49986   0.00000  Uiso   1.00
H80    H     0.67181   0.03147   0.45119   0.00000  Uiso   1.00
H81    H     0.40684   0.62697   0.61823   0.00000  Uiso   1.00
H82    H     0.92882   0.90262   0.51930   0.00000  Uiso   1.00
H83    H     0.64168   0.19901   0.41668   0.00000  Uiso   1.00
O84    O     0.23774   0.60488   0.73047   0.00000  Uiso   1.00
O85    O     0.92256   0.96654   0.60068   0.00000  Uiso   1.00
O86    O     0.54583   0.35539   0.46604   0.00000  Uiso   1.00
N87    N     0.28418   0.74699   0.73629   0.00000  Uiso   1.00
N88    N     0.77219   0.00469   0.64380   0.00000  Uiso   1.00
N89    N     0.50376   0.28181   0.54785   0.00000  Uiso   1.00
N90    N     0.38148   0.67588   0.64912   0.00000  Uiso   1.00
N91    N     0.86950   0.93359   0.55663   0.00000  Uiso   1.00
N92    N     0.60106   0.21070   0.46069   0.00000  Uiso   1.00
C93    C     0.98856   0.51741   0.84968   0.00000  Uiso   1.00
C94    C     0.02742   0.42551   0.84729   0.00000  Uiso   1.00
C95    C     0.11429   0.38785   0.79673   0.00000  Uiso   1.00
C96    C     0.13684   0.30305   0.80382   0.00000  Uiso   1.00
C97    C     0.20661   0.16725   0.79163   0.00000  Uiso   1.00
C98    C     0.89293   0.49652   0.87278   0.00000  Uiso   1.00
C99    C     0.86671   0.51858   0.84364   0.00000  Uiso   1.00
C100   C     0.77603   0.49357   0.87219   0.00000  Uiso   1.00
C101   C     0.63697   0.46807   0.89960   0.00000  Uiso   1.00
C102   C     0.96692   0.57289   0.89921   0.00000  Uiso   1.00
C103   C     0.00290   0.65916   0.89232   0.00000  Uiso   1.00
C104   C     0.97449   0.69845   0.94313   0.00000  Uiso   1.00
C105   C     0.95032   0.79152   0.01158   0.00000  Uiso   1.00
C106   C     0.87413   0.43379   0.95219   0.00000  Uiso   1.00
C107   C     0.96526   0.38010   0.90297   0.00000  Uiso   1.00
C108   C     0.98768   0.29533   0.91014   0.00000  Uiso   1.00
C109   C     0.07457   0.25755   0.85960   0.00000  Uiso   1.00
C110   C     0.83077   0.45111   0.92845   0.00000  Uiso   1.00
C111   C     0.74010   0.42606   0.95706   0.00000  Uiso   1.00
C112   C     0.71376   0.44807   0.92797   0.00000  Uiso   1.00
C113   C     0.90476   0.52747   0.95489   0.00000  Uiso   1.00
C114   C     0.87629   0.56664   0.00573   0.00000  Uiso   1.00
C115   C     0.91222   0.65295   0.99891   0.00000  Uiso   1.00
H116   H     0.03695   0.55277   0.80633   0.00000  Uiso   1.00
H117   H     0.16237   0.42302   0.75364   0.00000  Uiso   1.00
H118   H     0.91482   0.55373   0.80056   0.00000  Uiso   1.00
H119   H     0.05099   0.69429   0.84922   0.00000  Uiso   1.00
H120   H     0.27400   0.25911   0.71978   0.00000  Uiso   1.00
H121   H     0.75202   0.53476   0.81871   0.00000  Uiso   1.00
H122   H     0.03916   0.83116   0.92133   0.00000  Uiso   1.00
H123   H     0.82573   0.39843   0.99554   0.00000  Uiso   1.00
H124   H     0.93957   0.26020   0.95323   0.00000  Uiso   1.00
H125   H     0.69202   0.39092   0.00014   0.00000  Uiso   1.00
H126   H     0.82819   0.53147   0.04881   0.00000  Uiso   1.00
H127   H     0.09316   0.12697   0.88177   0.00000  Uiso   1.00
H128   H     0.57118   0.40262   0.98070   0.00000  Uiso   1.00
H129   H     0.85832   0.69901   0.08332   0.00000  Uiso   1.00
O130   O     0.26226   0.10488   0.76953   0.00000  Uiso   1.00
O131   O     0.57744   0.46654   0.89932   0.00000  Uiso   1.00
O132   O     0.95417   0.85539   0.03396   0.00000  Uiso   1.00
N133   N     0.21582   0.24699   0.76371   0.00000  Uiso   1.00
N134   N     0.72781   0.50469   0.85620   0.00000  Uiso   1.00
N135   N     0.99624   0.78181   0.95215   0.00000  Uiso   1.00
N136   N     0.11852   0.17588   0.85088   0.00000  Uiso   1.00
N137   N     0.63050   0.43359   0.94337   0.00000  Uiso   1.00
N138   N     0.89894   0.71070   0.03931   0.00000  Uiso   1.00
C139   C     0.48856   0.01741   0.84968   0.00000  Uiso   1.00
C140   C     0.52742   0.92551   0.84729   0.00000  Uiso   1.00
C141   C     0.61429   0.88785   0.79673   0.00000  Uiso   1.00
C142   C     0.63684   0.80305   0.80382   0.00000  Uiso   1.00
C143   C     0.70661   0.66725   0.79163   0.00000  Uiso   1.00
C144   C     0.39293   0.99652   0.87278   0.00000  Uiso   1.00
C145   C     0.36671   0.01858   0.84364   0.00000  Uiso   1.00
C146   C     0.27603   0.99357   0.87219   0.00000  Uiso   1.00
C147   C     0.13697   0.96807   0.89960   0.00000  Uiso   1.00
C148   C     0.46692   0.07289   0.89921   0.00000  Uiso   1.00
C149   C     0.50290   0.15916   0.89232   0.00000  Uiso   1.00
C150   C     0.47449   0.19845   0.94313   0.00000  Uiso   1.00
C151   C     0.45032   0.29152   0.01158   0.00000  Uiso   1.00
C152   C     0.37413   0.93379   0.95219   0.00000  Uiso   1.00
C153   C     0.46526   0.88010   0.90297   0.00000  Uiso   1.00
C154   C     0.48768   0.79533   0.91014   0.00000  Uiso   1.00
C155   C     0.57457   0.75755   0.85960   0.00000  Uiso   1.00
C156   C     0.33077   0.95111   0.92845   0.00000  Uiso   1.00
C157   C     0.24010   0.92606   0.95706   0.00000  Uiso   1.00
C158   C     0.21376   0.94807   0.92797   0.00000  Uiso   1.00
C159   C     0.40476   0.02747   0.95489   0.00000  Uiso   1.00
C160   C     0.37629   0.06664   0.00573   0.00000  Uiso   1.00
C161   C     0.41222   0.15295   0.99891   0.00000  Uiso   1.00
H162   H     0.53695   0.05277   0.80633   0.00000  Uiso   1.00
H163   H     0.66237   0.92302   0.75364   0.00000  Uiso   1.00
H164   H     0.41482   0.05373   0.80056   0.00000  Uiso   1.00
H165   H     0.55099   0.19429   0.84922   0.00000  Uiso   1.00
H166   H     0.77400   0.75911   0.71978   0.00000  Uiso   1.00
H167   H     0.25202   0.03476   0.81871   0.00000  Uiso   1.00
H168   H     0.53916   0.33116   0.92133   0.00000  Uiso   1.00
H169   H     0.32573   0.89843   0.99554   0.00000  Uiso   1.00
H170   H     0.43957   0.76020   0.95323   0.00000  Uiso   1.00
H171   H     0.19202   0.89092   0.00014   0.00000  Uiso   1.00
H172   H     0.32819   0.03147   0.04881   0.00000  Uiso   1.00
H173   H     0.59316   0.62697   0.88177   0.00000  Uiso   1.00
H174   H     0.07118   0.90262   0.98070   0.00000  Uiso   1.00
H175   H     0.35832   0.19901   0.08332   0.00000  Uiso   1.00
O176   O     0.76226   0.60488   0.76953   0.00000  Uiso   1.00
O177   O     0.07744   0.96654   0.89932   0.00000  Uiso   1.00
O178   O     0.45417   0.35539   0.03396   0.00000  Uiso   1.00
N179   N     0.71582   0.74699   0.76371   0.00000  Uiso   1.00
N180   N     0.22781   0.00469   0.85620   0.00000  Uiso   1.00
N181   N     0.49624   0.28181   0.95215   0.00000  Uiso   1.00
N182   N     0.61852   0.67588   0.85088   0.00000  Uiso   1.00
N183   N     0.13050   0.93359   0.94337   0.00000  Uiso   1.00
N184   N     0.39894   0.21070   0.03931   0.00000  Uiso   1.00
C185   C     0.98856   0.48259   0.34968   0.00000  Uiso   1.00
C186   C     0.02742   0.57449   0.34729   0.00000  Uiso   1.00
C187   C     0.11429   0.61215   0.29673   0.00000  Uiso   1.00
C188   C     0.13684   0.69695   0.30382   0.00000  Uiso   1.00
C189   C     0.20661   0.83275   0.29163   0.00000  Uiso   1.00
C190   C     0.89293   0.50348   0.37278   0.00000  Uiso   1.00
C191   C     0.86671   0.48142   0.34364   0.00000  Uiso   1.00
C192   C     0.77603   0.50643   0.37219   0.00000  Uiso   1.00
C193   C     0.63697   0.53193   0.39960   0.00000  Uiso   1.00
C194   C     0.96692   0.42711   0.39921   0.00000  Uiso   1.00
C195   C     0.00290   0.34084   0.39232   0.00000  Uiso   1.00
C196   C     0.97449   0.30155   0.44313   0.00000  Uiso   1.00
C197   C     0.95032   0.20848   0.51158   0.00000  Uiso   1.00
C198   C     0.87413   0.56621   0.45219   0.00000  Uiso   1.00
C199   C     0.96526   0.61990   0.40297   0.00000  Uiso   1.00
C200   C     0.98768   0.70467   0.41014   0.00000  Uiso   1.00
C201   C     0.07457   0.74245   0.35960   0.00000  Uiso   1.00
C202   C     0.83077   0.54889   0.42845   0.00000  Uiso   1.00
C203   C     0.74010   0.57394   0.45706   0.00000  Uiso   1.00
C204   C     0.71376   0.55193   0.42797   0.00000  Uiso   1.00
C205   C     0.90476   0.47253   0.45489   0.00000  Uiso   1.00
C206   C     0.87629   0.43336   0.50573   0.00000  Uiso   1.00
C207   C     0.91222   0.34705   0.49891   0.00000  Uiso   1.00
H208   H     0.03695   0.44723   0.30633   0.00000  Uiso   1.00
H209   H     0.16237   0.57698   0.25364   0.00000  Uiso   1.00
H210   H     0.91482   0.44627   0.30056   0.00000  Uiso   1.00
H211   H     0.05099   0.30571   0.34922   0.00000  Uiso   1.00
H212   H     0.27400   0.74089   0.21978   0.00000  Uiso   1.00
H213   H     0.75202   0.46524   0.31871   0.00000  Uiso   1.00
H214   H     0.03916   0.16884   0.42133   0.00000  Uiso   1.00
H215   H     0.82573   0.60157   0.49554   0.00000  Uiso   1.00
H216   H     0.93957   0.73980   0.45323   0.00000  Uiso   1.00
H217   H     0.69202   0.60908   0.50014   0.00000  Uiso   1.00
H218   H     0.82819   0.46853   0.54881   0.00000  Uiso   1.00
H219   H     0.09316   0.87303   0.38177   0.00000  Uiso   1.00
H220   H     0.57118   0.59738   0.48070   0.00000  Uiso   1.00
H221   H     0.85832   0.30099   0.58332   0.00000  Uiso   1.00
O222   O     0.26226   0.89512   0.26953   0.00000  Uiso   1.00
O223   O     0.57744   0.53346   0.39932   0.00000  Uiso   1.00
O224   O     0.95417   0.14461   0.53396   0.00000  Uiso   1.00
N225   N     0.21582   0.75301   0.26371   0.00000  Uiso   1.00
N226   N     0.72781   0.49531   0.35620   0.00000  Uiso   1.00
N227   N     0.99624   0.21819   0.45215   0.00000  Uiso   1.00
N228   N     0.11852   0.82412   0.35088   0.00000  Uiso   1.00
N229   N     0.63050   0.56641   0.44337   0.00000  Uiso   1.00
N230   N     0.89894   0.28930   0.53931   0.00000  Uiso   1.00
C231   C     0.48856   0.98259   0.34968   0.00000  Uiso   1.00
C232   C     0.52742   0.07449   0.34729   0.00000  Uiso   1.00
C233   C     0.61429   0.11215   0.29673   0.00000  Uiso   1.00
C234   C     0.63684   0.19695   0.30382   0.00000  Uiso   1.00
C235   C     0.70661   0.33275   0.29163   0.00000  Uiso   1.00
C236   C     0.39293   0.00348   0.37278   0.00000  Uiso   1.00
C237   C     0.36671   0.98142   0.34364   0.00000  Uiso   1.00
C238   C     0.27603   0.00643   0.37219   0.00000  Uiso   1.00
C239   C     0.13697   0.03193   0.39960   0.00000  Uiso   1.00
C240   C     0.46692   0.92711   0.39921   0.00000  Uiso   1.00
C241   C     0.50290   0.84084   0.39232   0.00000  Uiso   1.00
C242   C     0.47449   0.80155   0.44313   0.00000  Uiso   1.00
C243   C     0.45032   0.70848   0.51158   0.00000  Uiso   1.00
C244   C     0.37413   0.06621   0.45219   0.00000  Uiso   1.00
C245   C     0.46526   0.11990   0.40297   0.00000  Uiso   1.00
C246   C     0.48768   0.20467   0.41014   0.00000  Uiso   1.00
C247   C     0.57457   0.24245   0.35960   0.00000  Uiso   1.00
C248   C     0.33077   0.04889   0.42845   0.00000  Uiso   1.00
C249   C     0.24010   0.07394   0.45706   0.00000  Uiso   1.00
C250   C     0.21376   0.05193   0.42797   0.00000  Uiso   1.00
C251   C     0.40476   0.97253   0.45489   0.00000  Uiso   1.00
C252   C     0.37629   0.93336   0.50573   0.00000  Uiso   1.00
C253   C     0.41222   0.84705   0.49891   0.00000  Uiso   1.00
H254   H     0.53695   0.94723   0.30633   0.00000  Uiso   1.00
H255   H     0.66237   0.07698   0.25364   0.00000  Uiso   1.00
H256   H     0.41482   0.94627   0.30056   0.00000  Uiso   1.00
H257   H     0.55099   0.80571   0.34922   0.00000  Uiso   1.00
H258   H     0.77400   0.24089   0.21978   0.00000  Uiso   1.00
H259   H     0.25202   0.96524   0.31871   0.00000  Uiso   1.00
H260   H     0.53916   0.66884   0.42133   0.00000  Uiso   1.00
H261   H     0.32573   0.10157   0.49554   0.00000  Uiso   1.00
H262   H     0.43957   0.23980   0.45323   0.00000  Uiso   1.00
H263   H     0.19202   0.10908   0.50014   0.00000  Uiso   1.00
H264   H     0.32819   0.96853   0.54881   0.00000  Uiso   1.00
H265   H     0.59316   0.37303   0.38177   0.00000  Uiso   1.00
H266   H     0.07118   0.09738   0.48070   0.00000  Uiso   1.00
H267   H     0.35832   0.80099   0.58332   0.00000  Uiso   1.00
O268   O     0.76226   0.39512   0.26953   0.00000  Uiso   1.00
O269   O     0.07744   0.03346   0.39932   0.00000  Uiso   1.00
O270   O     0.45417   0.64461   0.53396   0.00000  Uiso   1.00
N271   N     0.71582   0.25301   0.26371   0.00000  Uiso   1.00
N272   N     0.22781   0.99531   0.35620   0.00000  Uiso   1.00
N273   N     0.49624   0.71819   0.45215   0.00000  Uiso   1.00
N274   N     0.61852   0.32412   0.35088   0.00000  Uiso   1.00
N275   N     0.13050   0.06641   0.44337   0.00000  Uiso   1.00
N276   N     0.39894   0.78930   0.53931   0.00000  Uiso   1.00
C277   C     0.01144   0.48259   0.15032   0.00000  Uiso   1.00
C278   C     0.97258   0.57449   0.15271   0.00000  Uiso   1.00
C279   C     0.88571   0.61215   0.20327   0.00000  Uiso   1.00
C280   C     0.86316   0.69695   0.19618   0.00000  Uiso   1.00
C281   C     0.79339   0.83275   0.20837   0.00000  Uiso   1.00
C282   C     0.10707   0.50348   0.12722   0.00000  Uiso   1.00
C283   C     0.13329   0.48142   0.15636   0.00000  Uiso   1.00
C284   C     0.22397   0.50643   0.12781   0.00000  Uiso   1.00
C285   C     0.36303   0.53193   0.10040   0.00000  Uiso   1.00
C286   C     0.03308   0.42711   0.10079   0.00000  Uiso   1.00
C287   C     0.99710   0.34084   0.10768   0.00000  Uiso   1.00
C288   C     0.02551   0.30155   0.05687   0.00000  Uiso   1.00
C289   C     0.04968   0.20848   0.98842   0.00000  Uiso   1.00
C290   C     0.12587   0.56621   0.04781   0.00000  Uiso   1.00
C291   C     0.03474   0.61990   0.09703   0.00000  Uiso   1.00
C292   C     0.01232   0.70467   0.08986   0.00000  Uiso   1.00
C293   C     0.92543   0.74245   0.14040   0.00000  Uiso   1.00
C294   C     0.16923   0.54889   0.07155   0.00000  Uiso   1.00
C295   C     0.25990   0.57394   0.04294   0.00000  Uiso   1.00
C296   C     0.28624   0.55193   0.07203   0.00000  Uiso   1.00
C297   C     0.09524   0.47253   0.04511   0.00000  Uiso   1.00
C298   C     0.12371   0.43336   0.99427   0.00000  Uiso   1.00
C299   C     0.08778   0.34705   0.00109   0.00000  Uiso   1.00
H300   H     0.96305   0.44723   0.19367   0.00000  Uiso   1.00
H301   H     0.83763   0.57698   0.24636   0.00000  Uiso   1.00
H302   H     0.08518   0.44627   0.19944   0.00000  Uiso   1.00
H303   H     0.94901   0.30571   0.15078   0.00000  Uiso   1.00
H304   H     0.72600   0.74089   0.28022   0.00000  Uiso   1.00
H305   H     0.24798   0.46524   0.18129   0.00000  Uiso   1.00
H306   H     0.96084   0.16884   0.07867   0.00000  Uiso   1.00
H307   H     0.17427   0.60157   0.00446   0.00000  Uiso   1.00
H308   H     0.06043   0.73980   0.04677   0.00000  Uiso   1.00
H309   H     0.30798   0.60908   0.99986   0.00000  Uiso   1.00
H310   H     0.17181   0.46853   0.95119   0.00000  Uiso   1.00
H311   H     0.90684   0.87303   0.11823   0.00000  Uiso   1.00
H312   H     0.42882   0.59738   0.01930   0.00000  Uiso   1.00
H313   H     0.14168   0.30099   0.91668   0.00000  Uiso   1.00
O314   O     0.73774   0.89512   0.23047   0.00000  Uiso   1.00
O315   O     0.42256   0.53346   0.10068   0.00000  Uiso   1.00
O316   O     0.04583   0.14461   0.96604   0.00000  Uiso   1.00
N317   N     0.78418   0.75301   0.23629   0.00000  Uiso   1.00
N318   N     0.27219   0.49531   0.14380   0.00000  Uiso   1.00
N319   N     0.00376   0.21819   0.04785   0.00000  Uiso   1.00
N320   N     0.88148   0.82412   0.14912   0.00000  Uiso   1.00
N321   N     0.36950   0.56641   0.05663   0.00000  Uiso   1.00
N322   N     0.10106   0.28930   0.96069   0.00000  Uiso   1.00
C323   C     0.51144   0.98259   0.15032   0.00000  Uiso   1.00
C324   C     0.47258   0.07449   0.15271   0.00000  Uiso   1.00
C325   C     0.38571   0.11215   0.20327   0.00000  Uiso   1.00
C326   C     0.36316   0.19695   0.19618   0.00000  Uiso   1.00
C327   C     0.29339   0.33275   0.20837   0.00000  Uiso   1.00
C328   C     0.60707   0.00348   0.12722   0.00000  Uiso   1.00
C329   C     0.63329   0.98142   0.15636   0.00000  Uiso   1.00
C330   C     0.72397   0.00643   0.12781   0.00000  Uiso   1.00
C331   C     0.86303   0.03193   0.10040   0.00000  Uiso   1.00
C332   C     0.53308   0.92711   0.10079   0.00000  Uiso   1.00
C333   C     0.49710   0.84084   0.10768   0.00000  Uiso   1.00
C334   C     0.52551   0.80155   0.05687   0.00000  Uiso   1.00
C335   C     0.54968   0.70848   0.98842   0.00000  Uiso   1.00
C336   C     0.62587   0.06621   0.04781   0.00000  Uiso   1.00
C337   C     0.53474   0.11990   0.09703   0.00000  Uiso   1.00
C338   C     0.51232   0.20467   0.08986   0.00000  Uiso   1.00
C339   C     0.42543   0.24245   0.14040   0.00000  Uiso   1.00
C340   C     0.66923   0.04889   0.07155   0.00000  Uiso   1.00
C341   C     0.75990   0.07394   0.04294   0.00000  Uiso   1.00
C342   C     0.78624   0.05193   0.07203   0.00000  Uiso   1.00
C343   C     0.59524   0.97253   0.04511   0.00000  Uiso   1.00
C344   C     0.62371   0.93336   0.99427   0.00000  Uiso   1.00
C345   C     0.58778   0.84705   0.00109   0.00000  Uiso   1.00
H346   H     0.46305   0.94723   0.19367   0.00000  Uiso   1.00
H347   H     0.33763   0.07698   0.24636   0.00000  Uiso   1.00
H348   H     0.58518   0.94627   0.19944   0.00000  Uiso   1.00
H349   H     0.44901   0.80571   0.15078   0.00000  Uiso   1.00
H350   H     0.22600   0.24089   0.28022   0.00000  Uiso   1.00
H351   H     0.74798   0.96524   0.18129   0.00000  Uiso   1.00
H352   H     0.46084   0.66884   0.07867   0.00000  Uiso   1.00
H353   H     0.67427   0.10157   0.00446   0.00000  Uiso   1.00
H354   H     0.56043   0.23980   0.04677   0.00000  Uiso   1.00
H355   H     0.80798   0.10908   0.99986   0.00000  Uiso   1.00
H356   H     0.67181   0.96853   0.95119   0.00000  Uiso   1.00
H357   H     0.40684   0.37303   0.11823   0.00000  Uiso   1.00
H358   H     0.92882   0.09738   0.01930   0.00000  Uiso   1.00
H359   H     0.64168   0.80099   0.91668   0.00000  Uiso   1.00
O360   O     0.23774   0.39512   0.23047   0.00000  Uiso   1.00
O361   O     0.92256   0.03346   0.10068   0.00000  Uiso   1.00
O362   O     0.54583   0.64461   0.96604   0.00000  Uiso   1.00
N363   N     0.28418   0.25301   0.23629   0.00000  Uiso   1.00
N364   N     0.77219   0.99531   0.14380   0.00000  Uiso   1.00
N365   N     0.50376   0.71819   0.04785   0.00000  Uiso   1.00
N366   N     0.38148   0.32412   0.14912   0.00000  Uiso   1.00
N367   N     0.86950   0.06641   0.05663   0.00000  Uiso   1.00
N368   N     0.60106   0.78930   0.96069   0.00000  Uiso   1.00
