data_job_05847
_audit_creation_date              2018-12-19
_audit_creation_method            'Materials Studio'
_symmetry_space_group_name_H-M    'P1'
_symmetry_Int_Tables_number       1
_symmetry_cell_setting            triclinic
loop_
_symmetry_equiv_pos_as_xyz
  x,y,z
_cell_length_a                    15.6660
_cell_length_b                    7.5431
_cell_length_c                    25.4262
_cell_angle_alpha                 90.0000
_cell_angle_beta                  100.7190
_cell_angle_gamma                 90.0000
loop_
_atom_site_label
_atom_site_type_symbol
_atom_site_fract_x
_atom_site_fract_y
_atom_site_fract_z
_atom_site_U_iso_or_equiv
_atom_site_adp_type
_atom_site_occupancy
C1     C     0.12490   0.45757   0.63700   0.00000  Uiso   1.00
C2     C     0.20205   0.46126   0.60823   0.00000  Uiso   1.00
C3     C     0.22966   0.32142   0.58012   0.00000  Uiso   1.00
C4     C     0.30160   0.35132   0.55664   0.00000  Uiso   1.00
C5     C     0.41492   0.33209   0.51130   0.00000  Uiso   1.00
C6     C     0.16078   0.50854   0.69493   0.00000  Uiso   1.00
C7     C     0.15368   0.40845   0.73972   0.00000  Uiso   1.00
C8     C     0.19087   0.47816   0.78923   0.00000  Uiso   1.00
C9     C     0.24006   0.53239   0.87850   0.00000  Uiso   1.00
C10    C     0.06578   0.60970   0.61353   0.00000  Uiso   1.00
C11    C     0.97881   0.59469   0.58988   0.00000  Uiso   1.00
C12    C     0.93601   0.74959   0.57087   0.00000  Uiso   1.00
C13    C     0.83771   0.96089   0.53375   0.00000  Uiso   1.00
C14    C     0.20355   0.75935   0.64529   0.00000  Uiso   1.00
C15    C     0.24476   0.62518   0.61274   0.00000  Uiso   1.00
C16    C     0.31668   0.65530   0.58929   0.00000  Uiso   1.00
C17    C     0.34439   0.51553   0.56115   0.00000  Uiso   1.00
C18    C     0.20349   0.67245   0.69944   0.00000  Uiso   1.00
C19    C     0.24069   0.74233   0.74889   0.00000  Uiso   1.00
C20    C     0.23367   0.64237   0.79374   0.00000  Uiso   1.00
C21    C     0.10850   0.77362   0.61803   0.00000  Uiso   1.00
C22    C     0.06583   0.92857   0.59905   0.00000  Uiso   1.00
C23    C     0.97881   0.91380   0.57538   0.00000  Uiso   1.00
H24    H     0.09164   0.32996   0.63350   0.00000  Uiso   1.00
H25    H     0.19659   0.19458   0.57664   0.00000  Uiso   1.00
H26    H     0.12061   0.28162   0.73622   0.00000  Uiso   1.00
H27    H     0.94577   0.46782   0.58640   0.00000  Uiso   1.00
H28    H     0.33180   0.11677   0.51561   0.00000  Uiso   1.00
H29    H     0.17157   0.30030   0.85209   0.00000  Uiso   1.00
H30    H     0.80289   0.69296   0.53618   0.00000  Uiso   1.00
H31    H     0.23681   0.88697   0.64880   0.00000  Uiso   1.00
H32    H     0.34972   0.78216   0.59278   0.00000  Uiso   1.00
H33    H     0.27374   0.86919   0.75236   0.00000  Uiso   1.00
H34    H     0.09890   0.05539   0.60255   0.00000  Uiso   1.00
H35    H     0.45609   0.59366   0.52872   0.00000  Uiso   1.00
H36    H     0.29586   0.77720   0.86519   0.00000  Uiso   1.00
H37    H     0.92717   0.16985   0.54928   0.00000  Uiso   1.00
O38    O     0.46562   0.27620   0.48505   0.00000  Uiso   1.00
O39    O     0.25539   0.51701   0.92650   0.00000  Uiso   1.00
O40    O     0.77169   0.03215   0.51202   0.00000  Uiso   1.00
N41    N     0.34555   0.24340   0.52638   0.00000  Uiso   1.00
N42    N     0.19576   0.41498   0.84096   0.00000  Uiso   1.00
N43    N     0.85106   0.78209   0.54562   0.00000  Uiso   1.00
N44    N     0.41242   0.50001   0.53342   0.00000  Uiso   1.00
N45    N     0.26263   0.67159   0.84801   0.00000  Uiso   1.00
N46    N     0.91793   0.03870   0.55267   0.00000  Uiso   1.00
C47    C     0.87510   0.45757   0.86300   0.00000  Uiso   1.00
C48    C     0.79795   0.46126   0.89177   0.00000  Uiso   1.00
C49    C     0.77034   0.32142   0.91988   0.00000  Uiso   1.00
C50    C     0.69840   0.35132   0.94336   0.00000  Uiso   1.00
C51    C     0.58508   0.33209   0.98870   0.00000  Uiso   1.00
C52    C     0.83922   0.50854   0.80507   0.00000  Uiso   1.00
C53    C     0.84632   0.40845   0.76028   0.00000  Uiso   1.00
C54    C     0.80913   0.47816   0.71077   0.00000  Uiso   1.00
C55    C     0.75994   0.53239   0.62150   0.00000  Uiso   1.00
C56    C     0.93422   0.60970   0.88647   0.00000  Uiso   1.00
C57    C     0.02119   0.59469   0.91012   0.00000  Uiso   1.00
C58    C     0.06399   0.74959   0.92913   0.00000  Uiso   1.00
C59    C     0.16229   0.96089   0.96625   0.00000  Uiso   1.00
C60    C     0.79645   0.75935   0.85471   0.00000  Uiso   1.00
C61    C     0.75524   0.62518   0.88726   0.00000  Uiso   1.00
C62    C     0.68332   0.65530   0.91071   0.00000  Uiso   1.00
C63    C     0.65561   0.51553   0.93885   0.00000  Uiso   1.00
C64    C     0.79651   0.67245   0.80056   0.00000  Uiso   1.00
C65    C     0.75931   0.74233   0.75111   0.00000  Uiso   1.00
C66    C     0.76633   0.64237   0.70626   0.00000  Uiso   1.00
C67    C     0.89150   0.77362   0.88197   0.00000  Uiso   1.00
C68    C     0.93417   0.92857   0.90095   0.00000  Uiso   1.00
C69    C     0.02119   0.91380   0.92462   0.00000  Uiso   1.00
H70    H     0.90836   0.32996   0.86650   0.00000  Uiso   1.00
H71    H     0.80341   0.19458   0.92336   0.00000  Uiso   1.00
H72    H     0.87939   0.28162   0.76378   0.00000  Uiso   1.00
H73    H     0.05423   0.46782   0.91360   0.00000  Uiso   1.00
H74    H     0.66820   0.11677   0.98439   0.00000  Uiso   1.00
H75    H     0.82843   0.30030   0.64791   0.00000  Uiso   1.00
H76    H     0.19711   0.69296   0.96382   0.00000  Uiso   1.00
H77    H     0.76319   0.88697   0.85120   0.00000  Uiso   1.00
H78    H     0.65028   0.78216   0.90722   0.00000  Uiso   1.00
H79    H     0.72626   0.86919   0.74764   0.00000  Uiso   1.00
H80    H     0.90110   0.05539   0.89745   0.00000  Uiso   1.00
H81    H     0.54391   0.59366   0.97128   0.00000  Uiso   1.00
H82    H     0.70414   0.77720   0.63481   0.00000  Uiso   1.00
H83    H     0.07283   0.16985   0.95072   0.00000  Uiso   1.00
O84    O     0.53438   0.27620   0.01495   0.00000  Uiso   1.00
O85    O     0.74461   0.51701   0.57350   0.00000  Uiso   1.00
O86    O     0.22831   0.03215   0.98798   0.00000  Uiso   1.00
N87    N     0.65445   0.24340   0.97362   0.00000  Uiso   1.00
N88    N     0.80424   0.41498   0.65904   0.00000  Uiso   1.00
N89    N     0.14894   0.78209   0.95438   0.00000  Uiso   1.00
N90    N     0.58758   0.50001   0.96658   0.00000  Uiso   1.00
N91    N     0.73737   0.67159   0.65199   0.00000  Uiso   1.00
N92    N     0.08207   0.03870   0.94733   0.00000  Uiso   1.00
C93    C     0.87510   0.54243   0.36300   0.00000  Uiso   1.00
C94    C     0.79795   0.53874   0.39177   0.00000  Uiso   1.00
C95    C     0.77034   0.67858   0.41988   0.00000  Uiso   1.00
C96    C     0.69840   0.64868   0.44336   0.00000  Uiso   1.00
C97    C     0.58508   0.66791   0.48870   0.00000  Uiso   1.00
C98    C     0.83922   0.49146   0.30507   0.00000  Uiso   1.00
C99    C     0.84632   0.59155   0.26028   0.00000  Uiso   1.00
C100   C     0.80913   0.52184   0.21077   0.00000  Uiso   1.00
C101   C     0.75994   0.46761   0.12150   0.00000  Uiso   1.00
C102   C     0.93422   0.39030   0.38647   0.00000  Uiso   1.00
C103   C     0.02119   0.40531   0.41012   0.00000  Uiso   1.00
C104   C     0.06399   0.25041   0.42913   0.00000  Uiso   1.00
C105   C     0.16229   0.03911   0.46625   0.00000  Uiso   1.00
C106   C     0.79645   0.24065   0.35471   0.00000  Uiso   1.00
C107   C     0.75524   0.37482   0.38726   0.00000  Uiso   1.00
C108   C     0.68332   0.34470   0.41071   0.00000  Uiso   1.00
C109   C     0.65561   0.48447   0.43885   0.00000  Uiso   1.00
C110   C     0.79651   0.32755   0.30056   0.00000  Uiso   1.00
C111   C     0.75931   0.25767   0.25111   0.00000  Uiso   1.00
C112   C     0.76633   0.35763   0.20626   0.00000  Uiso   1.00
C113   C     0.89150   0.22638   0.38197   0.00000  Uiso   1.00
C114   C     0.93417   0.07143   0.40095   0.00000  Uiso   1.00
C115   C     0.02119   0.08620   0.42462   0.00000  Uiso   1.00
H116   H     0.90836   0.67004   0.36650   0.00000  Uiso   1.00
H117   H     0.80341   0.80542   0.42336   0.00000  Uiso   1.00
H118   H     0.87939   0.71838   0.26378   0.00000  Uiso   1.00
H119   H     0.05423   0.53218   0.41360   0.00000  Uiso   1.00
H120   H     0.66820   0.88323   0.48439   0.00000  Uiso   1.00
H121   H     0.82843   0.69970   0.14791   0.00000  Uiso   1.00
H122   H     0.19711   0.30704   0.46382   0.00000  Uiso   1.00
H123   H     0.76319   0.11303   0.35120   0.00000  Uiso   1.00
H124   H     0.65028   0.21784   0.40722   0.00000  Uiso   1.00
H125   H     0.72626   0.13081   0.24764   0.00000  Uiso   1.00
H126   H     0.90110   0.94461   0.39745   0.00000  Uiso   1.00
H127   H     0.54391   0.40634   0.47128   0.00000  Uiso   1.00
H128   H     0.70414   0.22280   0.13481   0.00000  Uiso   1.00
H129   H     0.07283   0.83015   0.45072   0.00000  Uiso   1.00
O130   O     0.53438   0.72380   0.51495   0.00000  Uiso   1.00
O131   O     0.74461   0.48299   0.07350   0.00000  Uiso   1.00
O132   O     0.22831   0.96785   0.48798   0.00000  Uiso   1.00
N133   N     0.65445   0.75660   0.47362   0.00000  Uiso   1.00
N134   N     0.80424   0.58502   0.15904   0.00000  Uiso   1.00
N135   N     0.14894   0.21791   0.45438   0.00000  Uiso   1.00
N136   N     0.58758   0.49999   0.46658   0.00000  Uiso   1.00
N137   N     0.73737   0.32841   0.15199   0.00000  Uiso   1.00
N138   N     0.08207   0.96130   0.44733   0.00000  Uiso   1.00
C139   C     0.12490   0.54243   0.13700   0.00000  Uiso   1.00
C140   C     0.20205   0.53874   0.10823   0.00000  Uiso   1.00
C141   C     0.22966   0.67858   0.08012   0.00000  Uiso   1.00
C142   C     0.30160   0.64868   0.05664   0.00000  Uiso   1.00
C143   C     0.41492   0.66791   0.01130   0.00000  Uiso   1.00
C144   C     0.16078   0.49146   0.19493   0.00000  Uiso   1.00
C145   C     0.15368   0.59155   0.23972   0.00000  Uiso   1.00
C146   C     0.19087   0.52184   0.28923   0.00000  Uiso   1.00
C147   C     0.24006   0.46761   0.37850   0.00000  Uiso   1.00
C148   C     0.06578   0.39030   0.11353   0.00000  Uiso   1.00
C149   C     0.97881   0.40531   0.08988   0.00000  Uiso   1.00
C150   C     0.93601   0.25041   0.07087   0.00000  Uiso   1.00
C151   C     0.83771   0.03911   0.03375   0.00000  Uiso   1.00
C152   C     0.20355   0.24065   0.14529   0.00000  Uiso   1.00
C153   C     0.24476   0.37482   0.11274   0.00000  Uiso   1.00
C154   C     0.31668   0.34470   0.08929   0.00000  Uiso   1.00
C155   C     0.34439   0.48447   0.06115   0.00000  Uiso   1.00
C156   C     0.20349   0.32755   0.19944   0.00000  Uiso   1.00
C157   C     0.24069   0.25767   0.24889   0.00000  Uiso   1.00
C158   C     0.23367   0.35763   0.29374   0.00000  Uiso   1.00
C159   C     0.10850   0.22638   0.11803   0.00000  Uiso   1.00
C160   C     0.06583   0.07143   0.09905   0.00000  Uiso   1.00
C161   C     0.97881   0.08620   0.07538   0.00000  Uiso   1.00
H162   H     0.09164   0.67004   0.13350   0.00000  Uiso   1.00
H163   H     0.19659   0.80542   0.07664   0.00000  Uiso   1.00
H164   H     0.12061   0.71838   0.23622   0.00000  Uiso   1.00
H165   H     0.94577   0.53218   0.08640   0.00000  Uiso   1.00
H166   H     0.33180   0.88323   0.01561   0.00000  Uiso   1.00
H167   H     0.17157   0.69970   0.35209   0.00000  Uiso   1.00
H168   H     0.80289   0.30704   0.03618   0.00000  Uiso   1.00
H169   H     0.23681   0.11303   0.14880   0.00000  Uiso   1.00
H170   H     0.34972   0.21784   0.09278   0.00000  Uiso   1.00
H171   H     0.27374   0.13081   0.25236   0.00000  Uiso   1.00
H172   H     0.09890   0.94461   0.10255   0.00000  Uiso   1.00
H173   H     0.45609   0.40634   0.02872   0.00000  Uiso   1.00
H174   H     0.29586   0.22280   0.36519   0.00000  Uiso   1.00
H175   H     0.92717   0.83015   0.04928   0.00000  Uiso   1.00
O176   O     0.46562   0.72380   0.98505   0.00000  Uiso   1.00
O177   O     0.25539   0.48299   0.42650   0.00000  Uiso   1.00
O178   O     0.77169   0.96785   0.01202   0.00000  Uiso   1.00
N179   N     0.34555   0.75660   0.02638   0.00000  Uiso   1.00
N180   N     0.19576   0.58502   0.34096   0.00000  Uiso   1.00
N181   N     0.85106   0.21791   0.04562   0.00000  Uiso   1.00
N182   N     0.41242   0.49999   0.03342   0.00000  Uiso   1.00
N183   N     0.26263   0.32841   0.34801   0.00000  Uiso   1.00
N184   N     0.91793   0.96130   0.05267   0.00000  Uiso   1.00
