data_job_01401
_audit_creation_date              2018-12-19
_audit_creation_method            'Materials Studio'
_symmetry_space_group_name_H-M    'P1'
_symmetry_Int_Tables_number       1
_symmetry_cell_setting            triclinic
loop_
_symmetry_equiv_pos_as_xyz
  x,y,z
_cell_length_a                    9.4481
_cell_length_b                    23.0817
_cell_length_c                    16.2497
_cell_angle_alpha                 90.0000
_cell_angle_beta                  123.7078
_cell_angle_gamma                 90.0000
loop_
_atom_site_label
_atom_site_type_symbol
_atom_site_fract_x
_atom_site_fract_y
_atom_site_fract_z
_atom_site_U_iso_or_equiv
_atom_site_adp_type
_atom_site_occupancy
C1     C     0.41192   0.08825   0.68058   0.00000  Uiso   1.00
C2     C     0.33696   0.14154   0.69838   0.00000  Uiso   1.00
C3     C     0.26189   0.18828   0.63458   0.00000  Uiso   1.00
C4     C     0.20107   0.23279   0.66434   0.00000  Uiso   1.00
C5     C     0.08266   0.31588   0.67827   0.00000  Uiso   1.00
C6     C     0.59591   0.08422   0.76917   0.00000  Uiso   1.00
C7     C     0.73854   0.08276   0.76489   0.00000  Uiso   1.00
C8     C     0.89571   0.07901   0.85425   0.00000  Uiso   1.00
C9     C     0.17930   0.07307   0.97807   0.00000  Uiso   1.00
C10    C     0.32038   0.03619   0.68815   0.00000  Uiso   1.00
C11    C     0.23138   0.99434   0.61576   0.00000  Uiso   1.00
C12    C     0.15660   0.95014   0.63692   0.00000  Uiso   1.00
C13    C     0.01238   0.86963   0.63495   0.00000  Uiso   1.00
C14    C     0.43742   0.08416   0.84689   0.00000  Uiso   1.00
C15    C     0.35082   0.13931   0.78872   0.00000  Uiso   1.00
C16    C     0.29010   0.18376   0.81858   0.00000  Uiso   1.00
C17    C     0.21494   0.23056   0.75484   0.00000  Uiso   1.00
C18    C     0.60976   0.08200   0.85950   0.00000  Uiso   1.00
C19    C     0.76675   0.07824   0.94889   0.00000  Uiso   1.00
C20    C     0.90958   0.07678   0.94474   0.00000  Uiso   1.00
C21    C     0.33422   0.03397   0.77849   0.00000  Uiso   1.00
C22    C     0.25958   0.98982   0.79976   0.00000  Uiso   1.00
C23    C     0.17047   0.94791   0.72741   0.00000  Uiso   1.00
H24    H     0.40115   0.08998   0.61025   0.00000  Uiso   1.00
H25    H     0.25121   0.18999   0.56468   0.00000  Uiso   1.00
H26    H     0.72778   0.08448   0.69497   0.00000  Uiso   1.00
H27    H     0.22069   0.99608   0.54587   0.00000  Uiso   1.00
H28    H     0.09114   0.29990   0.55402   0.00000  Uiso   1.00
H29    H     0.09602   0.07741   0.82873   0.00000  Uiso   1.00
H30    H     0.02671   0.89099   0.51431   0.00000  Uiso   1.00
H31    H     0.44820   0.08243   0.91722   0.00000  Uiso   1.00
H32    H     0.30083   0.18202   0.88849   0.00000  Uiso   1.00
H33    H     0.77742   0.07652   0.01878   0.00000  Uiso   1.00
H34    H     0.27032   0.98811   0.86967   0.00000  Uiso   1.00
H35    H     0.13142   0.29344   0.81683   0.00000  Uiso   1.00
H36    H     0.13631   0.07094   0.09155   0.00000  Uiso   1.00
H37    H     0.06700   0.88453   0.77713   0.00000  Uiso   1.00
O38    O     0.01354   0.36233   0.66100   0.00000  Uiso   1.00
O39    O     0.33190   0.07042   0.02142   0.00000  Uiso   1.00
O40    O     0.92899   0.82585   0.60890   0.00000  Uiso   1.00
N41    N     0.12081   0.28470   0.61980   0.00000  Uiso   1.00
N42    N     0.06032   0.07670   0.87665   0.00000  Uiso   1.00
N43    N     0.06065   0.90240   0.58270   0.00000  Uiso   1.00
N44    N     0.14248   0.28123   0.76122   0.00000  Uiso   1.00
N45    N     0.08199   0.07322   0.01807   0.00000  Uiso   1.00
N46    N     0.08232   0.89892   0.72412   0.00000  Uiso   1.00
C47    C     0.58808   0.58825   0.81942   0.00000  Uiso   1.00
C48    C     0.66304   0.64154   0.80162   0.00000  Uiso   1.00
C49    C     0.73811   0.68828   0.86542   0.00000  Uiso   1.00
C50    C     0.79893   0.73279   0.83566   0.00000  Uiso   1.00
C51    C     0.91734   0.81588   0.82173   0.00000  Uiso   1.00
C52    C     0.40409   0.58422   0.73083   0.00000  Uiso   1.00
C53    C     0.26146   0.58276   0.73511   0.00000  Uiso   1.00
C54    C     0.10429   0.57901   0.64575   0.00000  Uiso   1.00
C55    C     0.82070   0.57307   0.52193   0.00000  Uiso   1.00
C56    C     0.67962   0.53619   0.81185   0.00000  Uiso   1.00
C57    C     0.76862   0.49434   0.88424   0.00000  Uiso   1.00
C58    C     0.84340   0.45014   0.86308   0.00000  Uiso   1.00
C59    C     0.98762   0.36963   0.86505   0.00000  Uiso   1.00
C60    C     0.56258   0.58416   0.65311   0.00000  Uiso   1.00
C61    C     0.64918   0.63931   0.71128   0.00000  Uiso   1.00
C62    C     0.70990   0.68376   0.68142   0.00000  Uiso   1.00
C63    C     0.78506   0.73056   0.74516   0.00000  Uiso   1.00
C64    C     0.39024   0.58200   0.64050   0.00000  Uiso   1.00
C65    C     0.23325   0.57824   0.55111   0.00000  Uiso   1.00
C66    C     0.09042   0.57678   0.55526   0.00000  Uiso   1.00
C67    C     0.66578   0.53397   0.72151   0.00000  Uiso   1.00
C68    C     0.74042   0.48982   0.70024   0.00000  Uiso   1.00
C69    C     0.82953   0.44791   0.77259   0.00000  Uiso   1.00
H70    H     0.59885   0.58998   0.88975   0.00000  Uiso   1.00
H71    H     0.74879   0.68999   0.93532   0.00000  Uiso   1.00
H72    H     0.27222   0.58448   0.80503   0.00000  Uiso   1.00
H73    H     0.77931   0.49608   0.95413   0.00000  Uiso   1.00
H74    H     0.90886   0.79990   0.94598   0.00000  Uiso   1.00
H75    H     0.90398   0.57741   0.67127   0.00000  Uiso   1.00
H76    H     0.97329   0.39099   0.98569   0.00000  Uiso   1.00
H77    H     0.55180   0.58243   0.58278   0.00000  Uiso   1.00
H78    H     0.69917   0.68202   0.61151   0.00000  Uiso   1.00
H79    H     0.22258   0.57652   0.48122   0.00000  Uiso   1.00
H80    H     0.72968   0.48811   0.63033   0.00000  Uiso   1.00
H81    H     0.86858   0.79344   0.68317   0.00000  Uiso   1.00
H82    H     0.86369   0.57094   0.40845   0.00000  Uiso   1.00
H83    H     0.93300   0.38453   0.72287   0.00000  Uiso   1.00
O84    O     0.98646   0.86233   0.83900   0.00000  Uiso   1.00
O85    O     0.66810   0.57042   0.47858   0.00000  Uiso   1.00
O86    O     0.07101   0.32585   0.89110   0.00000  Uiso   1.00
N87    N     0.87919   0.78470   0.88020   0.00000  Uiso   1.00
N88    N     0.93968   0.57670   0.62335   0.00000  Uiso   1.00
N89    N     0.93935   0.40240   0.91730   0.00000  Uiso   1.00
N90    N     0.85752   0.78123   0.73878   0.00000  Uiso   1.00
N91    N     0.91801   0.57322   0.48193   0.00000  Uiso   1.00
N92    N     0.91768   0.39892   0.77588   0.00000  Uiso   1.00
C93    C     0.58808   0.91175   0.31942   0.00000  Uiso   1.00
C94    C     0.66304   0.85846   0.30162   0.00000  Uiso   1.00
C95    C     0.73811   0.81172   0.36542   0.00000  Uiso   1.00
C96    C     0.79893   0.76721   0.33566   0.00000  Uiso   1.00
C97    C     0.91734   0.68412   0.32173   0.00000  Uiso   1.00
C98    C     0.40409   0.91578   0.23083   0.00000  Uiso   1.00
C99    C     0.26146   0.91724   0.23511   0.00000  Uiso   1.00
C100   C     0.10429   0.92099   0.14575   0.00000  Uiso   1.00
C101   C     0.82070   0.92693   0.02193   0.00000  Uiso   1.00
C102   C     0.67962   0.96381   0.31185   0.00000  Uiso   1.00
C103   C     0.76862   0.00566   0.38424   0.00000  Uiso   1.00
C104   C     0.84340   0.04986   0.36308   0.00000  Uiso   1.00
C105   C     0.98762   0.13037   0.36505   0.00000  Uiso   1.00
C106   C     0.56258   0.91584   0.15311   0.00000  Uiso   1.00
C107   C     0.64918   0.86069   0.21128   0.00000  Uiso   1.00
C108   C     0.70990   0.81624   0.18142   0.00000  Uiso   1.00
C109   C     0.78506   0.76944   0.24516   0.00000  Uiso   1.00
C110   C     0.39024   0.91800   0.14050   0.00000  Uiso   1.00
C111   C     0.23325   0.92176   0.05111   0.00000  Uiso   1.00
C112   C     0.09042   0.92322   0.05526   0.00000  Uiso   1.00
C113   C     0.66578   0.96603   0.22151   0.00000  Uiso   1.00
C114   C     0.74042   0.01018   0.20024   0.00000  Uiso   1.00
C115   C     0.82953   0.05209   0.27259   0.00000  Uiso   1.00
H116   H     0.59885   0.91002   0.38975   0.00000  Uiso   1.00
H117   H     0.74879   0.81001   0.43532   0.00000  Uiso   1.00
H118   H     0.27222   0.91552   0.30503   0.00000  Uiso   1.00
H119   H     0.77931   0.00392   0.45413   0.00000  Uiso   1.00
H120   H     0.90886   0.70010   0.44598   0.00000  Uiso   1.00
H121   H     0.90398   0.92259   0.17127   0.00000  Uiso   1.00
H122   H     0.97329   0.10901   0.48569   0.00000  Uiso   1.00
H123   H     0.55180   0.91757   0.08278   0.00000  Uiso   1.00
H124   H     0.69917   0.81798   0.11151   0.00000  Uiso   1.00
H125   H     0.22258   0.92348   0.98122   0.00000  Uiso   1.00
H126   H     0.72968   0.01189   0.13033   0.00000  Uiso   1.00
H127   H     0.86858   0.70656   0.18317   0.00000  Uiso   1.00
H128   H     0.86369   0.92906   0.90845   0.00000  Uiso   1.00
H129   H     0.93300   0.11547   0.22287   0.00000  Uiso   1.00
O130   O     0.98646   0.63767   0.33900   0.00000  Uiso   1.00
O131   O     0.66810   0.92958   0.97858   0.00000  Uiso   1.00
O132   O     0.07101   0.17415   0.39110   0.00000  Uiso   1.00
N133   N     0.87919   0.71530   0.38020   0.00000  Uiso   1.00
N134   N     0.93968   0.92330   0.12335   0.00000  Uiso   1.00
N135   N     0.93935   0.09760   0.41730   0.00000  Uiso   1.00
N136   N     0.85752   0.71877   0.23878   0.00000  Uiso   1.00
N137   N     0.91801   0.92678   0.98193   0.00000  Uiso   1.00
N138   N     0.91768   0.10108   0.27588   0.00000  Uiso   1.00
C139   C     0.41192   0.41175   0.18058   0.00000  Uiso   1.00
C140   C     0.33696   0.35846   0.19838   0.00000  Uiso   1.00
C141   C     0.26189   0.31172   0.13458   0.00000  Uiso   1.00
C142   C     0.20107   0.26721   0.16434   0.00000  Uiso   1.00
C143   C     0.08266   0.18412   0.17827   0.00000  Uiso   1.00
C144   C     0.59591   0.41578   0.26917   0.00000  Uiso   1.00
C145   C     0.73854   0.41724   0.26489   0.00000  Uiso   1.00
C146   C     0.89571   0.42099   0.35425   0.00000  Uiso   1.00
C147   C     0.17930   0.42693   0.47807   0.00000  Uiso   1.00
C148   C     0.32038   0.46381   0.18815   0.00000  Uiso   1.00
C149   C     0.23138   0.50566   0.11576   0.00000  Uiso   1.00
C150   C     0.15660   0.54986   0.13692   0.00000  Uiso   1.00
C151   C     0.01238   0.63037   0.13495   0.00000  Uiso   1.00
C152   C     0.43742   0.41584   0.34689   0.00000  Uiso   1.00
C153   C     0.35082   0.36069   0.28872   0.00000  Uiso   1.00
C154   C     0.29010   0.31624   0.31858   0.00000  Uiso   1.00
C155   C     0.21494   0.26944   0.25484   0.00000  Uiso   1.00
C156   C     0.60976   0.41800   0.35950   0.00000  Uiso   1.00
C157   C     0.76675   0.42176   0.44889   0.00000  Uiso   1.00
C158   C     0.90958   0.42322   0.44474   0.00000  Uiso   1.00
C159   C     0.33422   0.46603   0.27849   0.00000  Uiso   1.00
C160   C     0.25958   0.51018   0.29976   0.00000  Uiso   1.00
C161   C     0.17047   0.55209   0.22741   0.00000  Uiso   1.00
H162   H     0.40115   0.41002   0.11025   0.00000  Uiso   1.00
H163   H     0.25121   0.31001   0.06468   0.00000  Uiso   1.00
H164   H     0.72778   0.41552   0.19497   0.00000  Uiso   1.00
H165   H     0.22069   0.50392   0.04587   0.00000  Uiso   1.00
H166   H     0.09114   0.20010   0.05402   0.00000  Uiso   1.00
H167   H     0.09602   0.42259   0.32873   0.00000  Uiso   1.00
H168   H     0.02671   0.60901   0.01431   0.00000  Uiso   1.00
H169   H     0.44820   0.41757   0.41722   0.00000  Uiso   1.00
H170   H     0.30083   0.31798   0.38849   0.00000  Uiso   1.00
H171   H     0.77742   0.42348   0.51878   0.00000  Uiso   1.00
H172   H     0.27032   0.51189   0.36967   0.00000  Uiso   1.00
H173   H     0.13142   0.20656   0.31683   0.00000  Uiso   1.00
H174   H     0.13631   0.42906   0.59155   0.00000  Uiso   1.00
H175   H     0.06700   0.61547   0.27713   0.00000  Uiso   1.00
O176   O     0.01354   0.13767   0.16100   0.00000  Uiso   1.00
O177   O     0.33190   0.42958   0.52142   0.00000  Uiso   1.00
O178   O     0.92899   0.67415   0.10890   0.00000  Uiso   1.00
N179   N     0.12081   0.21530   0.11980   0.00000  Uiso   1.00
N180   N     0.06032   0.42330   0.37665   0.00000  Uiso   1.00
N181   N     0.06065   0.59760   0.08270   0.00000  Uiso   1.00
N182   N     0.14248   0.21877   0.26122   0.00000  Uiso   1.00
N183   N     0.08199   0.42678   0.51807   0.00000  Uiso   1.00
N184   N     0.08232   0.60108   0.22412   0.00000  Uiso   1.00
