data_job_02932
_audit_creation_date              2018-12-19
_audit_creation_method            'Materials Studio'
_symmetry_space_group_name_H-M    'P1'
_symmetry_Int_Tables_number       1
_symmetry_cell_setting            triclinic
loop_
_symmetry_equiv_pos_as_xyz
  x,y,z
_cell_length_a                    14.7292
_cell_length_b                    12.2988
_cell_length_c                    14.0805
_cell_angle_alpha                 90.0000
_cell_angle_beta                  90.0000
_cell_angle_gamma                 90.0000
loop_
_atom_site_label
_atom_site_type_symbol
_atom_site_fract_x
_atom_site_fract_y
_atom_site_fract_z
_atom_site_U_iso_or_equiv
_atom_site_adp_type
_atom_site_occupancy
C1     C     0.79341   0.77878   0.69962   0.00000  Uiso   1.00
C2     C     0.74296   0.86351   0.75849   0.00000  Uiso   1.00
C3     C     0.77762   0.96297   0.78767   0.00000  Uiso   1.00
C4     C     0.72070   0.02901   0.84107   0.00000  Uiso   1.00
C5     C     0.65582   0.16547   0.92898   0.00000  Uiso   1.00
C6     C     0.79111   0.67400   0.75747   0.00000  Uiso   1.00
C7     C     0.86626   0.61413   0.78577   0.00000  Uiso   1.00
C8     C     0.84987   0.52062   0.83830   0.00000  Uiso   1.00
C9     C     0.85974   0.36283   0.92456   0.00000  Uiso   1.00
C10    C     0.73466   0.75798   0.61232   0.00000  Uiso   1.00
C11    C     0.76235   0.76868   0.51857   0.00000  Uiso   1.00
C12    C     0.69843   0.74585   0.44889   0.00000  Uiso   1.00
C13    C     0.62066   0.71844   0.30978   0.00000  Uiso   1.00
C14    C     0.63069   0.71917   0.74256   0.00000  Uiso   1.00
C15    C     0.65458   0.83113   0.78182   0.00000  Uiso   1.00
C16    C     0.59759   0.89703   0.83518   0.00000  Uiso   1.00
C17    C     0.63216   0.99657   0.86443   0.00000  Uiso   1.00
C18    C     0.70273   0.64162   0.78080   0.00000  Uiso   1.00
C19    C     0.68622   0.54818   0.83328   0.00000  Uiso   1.00
C20    C     0.76132   0.48818   0.86166   0.00000  Uiso   1.00
C21    C     0.64627   0.72560   0.63564   0.00000  Uiso   1.00
C22    C     0.58231   0.70274   0.56609   0.00000  Uiso   1.00
C23    C     0.60989   0.71341   0.47225   0.00000  Uiso   1.00
H24    H     0.86223   0.80398   0.68146   0.00000  Uiso   1.00
H25    H     0.84603   0.98800   0.76961   0.00000  Uiso   1.00
H26    H     0.93465   0.63920   0.76770   0.00000  Uiso   1.00
H27    H     0.83075   0.79374   0.50055   0.00000  Uiso   1.00
H28    H     0.78910   0.17772   0.87766   0.00000  Uiso   1.00
H29    H     0.97596   0.44224   0.87361   0.00000  Uiso   1.00
H30    H     0.75687   0.76810   0.31026   0.00000  Uiso   1.00
H31    H     0.56188   0.69396   0.76072   0.00000  Uiso   1.00
H32    H     0.52919   0.87195   0.85322   0.00000  Uiso   1.00
H33    H     0.61782   0.52314   0.85132   0.00000  Uiso   1.00
H34    H     0.51392   0.67768   0.58416   0.00000  Uiso   1.00
H35    H     0.53195   0.08353   0.94553   0.00000  Uiso   1.00
H36    H     0.71881   0.34804   0.94147   0.00000  Uiso   1.00
H37    H     0.49972   0.67391   0.37813   0.00000  Uiso   1.00
O38    O     0.64446   0.24968   0.97104   0.00000  Uiso   1.00
O39    O     0.88960   0.28474   0.96571   0.00000  Uiso   1.00
O40    O     0.60217   0.71228   0.22661   0.00000  Uiso   1.00
N41    N     0.73306   0.13113   0.88092   0.00000  Uiso   1.00
N42    N     0.90776   0.44351   0.87715   0.00000  Uiso   1.00
N43    N     0.70294   0.74814   0.35046   0.00000  Uiso   1.00
N44    N     0.59469   0.08045   0.91744   0.00000  Uiso   1.00
N45    N     0.76939   0.39283   0.91367   0.00000  Uiso   1.00
N46    N     0.56457   0.69746   0.38698   0.00000  Uiso   1.00
C47    C     0.20659   0.22122   0.19962   0.00000  Uiso   1.00
C48    C     0.25704   0.13649   0.25849   0.00000  Uiso   1.00
C49    C     0.22238   0.03703   0.28767   0.00000  Uiso   1.00
C50    C     0.27930   0.97099   0.34107   0.00000  Uiso   1.00
C51    C     0.34418   0.83453   0.42898   0.00000  Uiso   1.00
C52    C     0.20889   0.32600   0.25747   0.00000  Uiso   1.00
C53    C     0.13374   0.38587   0.28577   0.00000  Uiso   1.00
C54    C     0.15013   0.47938   0.33830   0.00000  Uiso   1.00
C55    C     0.14026   0.63717   0.42456   0.00000  Uiso   1.00
C56    C     0.26534   0.24202   0.11232   0.00000  Uiso   1.00
C57    C     0.23765   0.23132   0.01857   0.00000  Uiso   1.00
C58    C     0.30157   0.25415   0.94889   0.00000  Uiso   1.00
C59    C     0.37934   0.28156   0.80978   0.00000  Uiso   1.00
C60    C     0.36931   0.28083   0.24256   0.00000  Uiso   1.00
C61    C     0.34542   0.16887   0.28182   0.00000  Uiso   1.00
C62    C     0.40241   0.10297   0.33518   0.00000  Uiso   1.00
C63    C     0.36784   0.00343   0.36443   0.00000  Uiso   1.00
C64    C     0.29727   0.35838   0.28080   0.00000  Uiso   1.00
C65    C     0.31378   0.45182   0.33328   0.00000  Uiso   1.00
C66    C     0.23868   0.51182   0.36166   0.00000  Uiso   1.00
C67    C     0.35373   0.27440   0.13564   0.00000  Uiso   1.00
C68    C     0.41769   0.29726   0.06609   0.00000  Uiso   1.00
C69    C     0.39011   0.28659   0.97225   0.00000  Uiso   1.00
H70    H     0.13777   0.19602   0.18146   0.00000  Uiso   1.00
H71    H     0.15397   0.01200   0.26961   0.00000  Uiso   1.00
H72    H     0.06535   0.36080   0.26770   0.00000  Uiso   1.00
H73    H     0.16925   0.20626   0.00055   0.00000  Uiso   1.00
H74    H     0.21090   0.82228   0.37766   0.00000  Uiso   1.00
H75    H     0.02404   0.55776   0.37361   0.00000  Uiso   1.00
H76    H     0.24313   0.23190   0.81026   0.00000  Uiso   1.00
H77    H     0.43812   0.30604   0.26072   0.00000  Uiso   1.00
H78    H     0.47081   0.12805   0.35322   0.00000  Uiso   1.00
H79    H     0.38218   0.47686   0.35132   0.00000  Uiso   1.00
H80    H     0.48608   0.32232   0.08416   0.00000  Uiso   1.00
H81    H     0.46805   0.91647   0.44553   0.00000  Uiso   1.00
H82    H     0.28119   0.65196   0.44147   0.00000  Uiso   1.00
H83    H     0.50028   0.32609   0.87813   0.00000  Uiso   1.00
O84    O     0.35554   0.75032   0.47104   0.00000  Uiso   1.00
O85    O     0.11040   0.71526   0.46571   0.00000  Uiso   1.00
O86    O     0.39783   0.28772   0.72661   0.00000  Uiso   1.00
N87    N     0.26694   0.86887   0.38092   0.00000  Uiso   1.00
N88    N     0.09224   0.55649   0.37715   0.00000  Uiso   1.00
N89    N     0.29706   0.25186   0.85046   0.00000  Uiso   1.00
N90    N     0.40531   0.91955   0.41744   0.00000  Uiso   1.00
N91    N     0.23061   0.60717   0.41367   0.00000  Uiso   1.00
N92    N     0.43543   0.30254   0.88698   0.00000  Uiso   1.00
C93    C     0.20659   0.77878   0.80038   0.00000  Uiso   1.00
C94    C     0.25704   0.86351   0.74151   0.00000  Uiso   1.00
C95    C     0.22238   0.96297   0.71233   0.00000  Uiso   1.00
C96    C     0.27930   0.02901   0.65893   0.00000  Uiso   1.00
C97    C     0.34418   0.16547   0.57102   0.00000  Uiso   1.00
C98    C     0.20889   0.67400   0.74253   0.00000  Uiso   1.00
C99    C     0.13374   0.61413   0.71423   0.00000  Uiso   1.00
C100   C     0.15013   0.52062   0.66170   0.00000  Uiso   1.00
C101   C     0.14026   0.36283   0.57544   0.00000  Uiso   1.00
C102   C     0.26534   0.75798   0.88768   0.00000  Uiso   1.00
C103   C     0.23765   0.76868   0.98143   0.00000  Uiso   1.00
C104   C     0.30157   0.74585   0.05111   0.00000  Uiso   1.00
C105   C     0.37934   0.71844   0.19022   0.00000  Uiso   1.00
C106   C     0.36931   0.71917   0.75744   0.00000  Uiso   1.00
C107   C     0.34542   0.83113   0.71818   0.00000  Uiso   1.00
C108   C     0.40241   0.89703   0.66482   0.00000  Uiso   1.00
C109   C     0.36784   0.99657   0.63557   0.00000  Uiso   1.00
C110   C     0.29727   0.64162   0.71920   0.00000  Uiso   1.00
C111   C     0.31378   0.54818   0.66672   0.00000  Uiso   1.00
C112   C     0.23868   0.48818   0.63834   0.00000  Uiso   1.00
C113   C     0.35373   0.72560   0.86436   0.00000  Uiso   1.00
C114   C     0.41769   0.70274   0.93391   0.00000  Uiso   1.00
C115   C     0.39011   0.71341   0.02775   0.00000  Uiso   1.00
H116   H     0.13777   0.80398   0.81854   0.00000  Uiso   1.00
H117   H     0.15397   0.98800   0.73039   0.00000  Uiso   1.00
H118   H     0.06535   0.63920   0.73230   0.00000  Uiso   1.00
H119   H     0.16925   0.79374   0.99945   0.00000  Uiso   1.00
H120   H     0.21090   0.17772   0.62234   0.00000  Uiso   1.00
H121   H     0.02404   0.44224   0.62639   0.00000  Uiso   1.00
H122   H     0.24313   0.76810   0.18974   0.00000  Uiso   1.00
H123   H     0.43812   0.69396   0.73928   0.00000  Uiso   1.00
H124   H     0.47081   0.87195   0.64678   0.00000  Uiso   1.00
H125   H     0.38218   0.52314   0.64868   0.00000  Uiso   1.00
H126   H     0.48608   0.67768   0.91584   0.00000  Uiso   1.00
H127   H     0.46805   0.08353   0.55447   0.00000  Uiso   1.00
H128   H     0.28119   0.34804   0.55853   0.00000  Uiso   1.00
H129   H     0.50028   0.67391   0.12187   0.00000  Uiso   1.00
O130   O     0.35554   0.24968   0.52896   0.00000  Uiso   1.00
O131   O     0.11040   0.28474   0.53429   0.00000  Uiso   1.00
O132   O     0.39783   0.71228   0.27339   0.00000  Uiso   1.00
N133   N     0.26694   0.13113   0.61908   0.00000  Uiso   1.00
N134   N     0.09224   0.44351   0.62285   0.00000  Uiso   1.00
N135   N     0.29706   0.74814   0.14954   0.00000  Uiso   1.00
N136   N     0.40531   0.08045   0.58256   0.00000  Uiso   1.00
N137   N     0.23061   0.39283   0.58633   0.00000  Uiso   1.00
N138   N     0.43543   0.69746   0.11302   0.00000  Uiso   1.00
C139   C     0.79341   0.22122   0.30038   0.00000  Uiso   1.00
C140   C     0.74296   0.13649   0.24151   0.00000  Uiso   1.00
C141   C     0.77762   0.03703   0.21233   0.00000  Uiso   1.00
C142   C     0.72070   0.97099   0.15893   0.00000  Uiso   1.00
C143   C     0.65582   0.83453   0.07102   0.00000  Uiso   1.00
C144   C     0.79111   0.32600   0.24253   0.00000  Uiso   1.00
C145   C     0.86626   0.38587   0.21423   0.00000  Uiso   1.00
C146   C     0.84987   0.47938   0.16170   0.00000  Uiso   1.00
C147   C     0.85974   0.63717   0.07544   0.00000  Uiso   1.00
C148   C     0.73466   0.24202   0.38768   0.00000  Uiso   1.00
C149   C     0.76235   0.23132   0.48143   0.00000  Uiso   1.00
C150   C     0.69843   0.25415   0.55111   0.00000  Uiso   1.00
C151   C     0.62066   0.28156   0.69022   0.00000  Uiso   1.00
C152   C     0.63069   0.28083   0.25744   0.00000  Uiso   1.00
C153   C     0.65458   0.16887   0.21818   0.00000  Uiso   1.00
C154   C     0.59759   0.10297   0.16482   0.00000  Uiso   1.00
C155   C     0.63216   0.00343   0.13557   0.00000  Uiso   1.00
C156   C     0.70273   0.35838   0.21920   0.00000  Uiso   1.00
C157   C     0.68622   0.45182   0.16672   0.00000  Uiso   1.00
C158   C     0.76132   0.51182   0.13834   0.00000  Uiso   1.00
C159   C     0.64627   0.27440   0.36436   0.00000  Uiso   1.00
C160   C     0.58231   0.29726   0.43391   0.00000  Uiso   1.00
C161   C     0.60989   0.28659   0.52775   0.00000  Uiso   1.00
H162   H     0.86223   0.19602   0.31854   0.00000  Uiso   1.00
H163   H     0.84603   0.01200   0.23039   0.00000  Uiso   1.00
H164   H     0.93465   0.36080   0.23230   0.00000  Uiso   1.00
H165   H     0.83075   0.20626   0.49945   0.00000  Uiso   1.00
H166   H     0.78910   0.82228   0.12234   0.00000  Uiso   1.00
H167   H     0.97596   0.55776   0.12639   0.00000  Uiso   1.00
H168   H     0.75687   0.23190   0.68974   0.00000  Uiso   1.00
H169   H     0.56188   0.30604   0.23928   0.00000  Uiso   1.00
H170   H     0.52919   0.12805   0.14678   0.00000  Uiso   1.00
H171   H     0.61782   0.47686   0.14868   0.00000  Uiso   1.00
H172   H     0.51392   0.32232   0.41584   0.00000  Uiso   1.00
H173   H     0.53195   0.91647   0.05447   0.00000  Uiso   1.00
H174   H     0.71881   0.65196   0.05853   0.00000  Uiso   1.00
H175   H     0.49972   0.32609   0.62187   0.00000  Uiso   1.00
O176   O     0.64446   0.75032   0.02896   0.00000  Uiso   1.00
O177   O     0.88960   0.71526   0.03429   0.00000  Uiso   1.00
O178   O     0.60217   0.28772   0.77339   0.00000  Uiso   1.00
N179   N     0.73306   0.86887   0.11908   0.00000  Uiso   1.00
N180   N     0.90776   0.55649   0.12285   0.00000  Uiso   1.00
N181   N     0.70294   0.25186   0.64954   0.00000  Uiso   1.00
N182   N     0.59469   0.91955   0.08256   0.00000  Uiso   1.00
N183   N     0.76939   0.60717   0.08633   0.00000  Uiso   1.00
N184   N     0.56457   0.30254   0.61302   0.00000  Uiso   1.00
