data_job_06465
_audit_creation_date              2018-12-19
_audit_creation_method            'Materials Studio'
_symmetry_space_group_name_H-M    'P1'
_symmetry_Int_Tables_number       1
_symmetry_cell_setting            triclinic
loop_
_symmetry_equiv_pos_as_xyz
  x,y,z
_cell_length_a                    17.0861
_cell_length_b                    21.4248
_cell_length_c                    21.8588
_cell_angle_alpha                 107.4830
_cell_angle_beta                  98.9631
_cell_angle_gamma                 111.9463
loop_
_atom_site_label
_atom_site_type_symbol
_atom_site_fract_x
_atom_site_fract_y
_atom_site_fract_z
_atom_site_U_iso_or_equiv
_atom_site_adp_type
_atom_site_occupancy
C1     C     0.53946   0.38151   0.33655   0.00000  Uiso   1.00
C2     C     0.55008   0.36882   0.40172   0.00000  Uiso   1.00
C3     C     0.57243   0.42088   0.46575   0.00000  Uiso   1.00
C4     C     0.57888   0.39844   0.51889   0.00000  Uiso   1.00
C5     C     0.59777   0.38968   0.62170   0.00000  Uiso   1.00
C6     C     0.60260   0.35959   0.30346   0.00000  Uiso   1.00
C7     C     0.66910   0.40389   0.28487   0.00000  Uiso   1.00
C8     C     0.71975   0.37367   0.25529   0.00000  Uiso   1.00
C9     C     0.82012   0.35057   0.20551   0.00000  Uiso   1.00
C10    C     0.44631   0.32538   0.29110   0.00000  Uiso   1.00
C11    C     0.38139   0.34091   0.26209   0.00000  Uiso   1.00
C12    C     0.30045   0.28189   0.22208   0.00000  Uiso   1.00
C13    C     0.15815   0.20567   0.15310   0.00000  Uiso   1.00
C14    C     0.51116   0.24910   0.31705   0.00000  Uiso   1.00
C15    C     0.53472   0.29690   0.39113   0.00000  Uiso   1.00
C16    C     0.54113   0.27438   0.44418   0.00000  Uiso   1.00
C17    C     0.56348   0.32639   0.50828   0.00000  Uiso   1.00
C18    C     0.58723   0.28768   0.29287   0.00000  Uiso   1.00
C19    C     0.63779   0.25739   0.26330   0.00000  Uiso   1.00
C20    C     0.70435   0.30162   0.24468   0.00000  Uiso   1.00
C21    C     0.43093   0.25346   0.28050   0.00000  Uiso   1.00
C22    C     0.35008   0.19441   0.24053   0.00000  Uiso   1.00
C23    C     0.28506   0.20983   0.21147   0.00000  Uiso   1.00
H24    H     0.55143   0.43751   0.34479   0.00000  Uiso   1.00
H25    H     0.58433   0.47653   0.47393   0.00000  Uiso   1.00
H26    H     0.68097   0.45954   0.29307   0.00000  Uiso   1.00
H27    H     0.39331   0.39657   0.27030   0.00000  Uiso   1.00
H28    H     0.61407   0.48809   0.61243   0.00000  Uiso   1.00
H29    H     0.81782   0.45225   0.23106   0.00000  Uiso   1.00
H30    H     0.21122   0.31946   0.18304   0.00000  Uiso   1.00
H31    H     0.49920   0.19310   0.30880   0.00000  Uiso   1.00
H32    H     0.52923   0.21872   0.43597   0.00000  Uiso   1.00
H33    H     0.62587   0.20173   0.25511   0.00000  Uiso   1.00
H34    H     0.33821   0.13876   0.23234   0.00000  Uiso   1.00
H35    H     0.56935   0.27884   0.58163   0.00000  Uiso   1.00
H36    H     0.77310   0.24300   0.20025   0.00000  Uiso   1.00
H37    H     0.16651   0.11021   0.15224   0.00000  Uiso   1.00
O38    O     0.61244   0.40473   0.68134   0.00000  Uiso   1.00
O39    O     0.87974   0.35771   0.18098   0.00000  Uiso   1.00
O40    O     0.08390   0.18350   0.11799   0.00000  Uiso   1.00
N41    N     0.59940   0.43532   0.58773   0.00000  Uiso   1.00
N42    N     0.78991   0.40182   0.23118   0.00000  Uiso   1.00
N43    N     0.22280   0.27768   0.18627   0.00000  Uiso   1.00
N44    N     0.57534   0.32272   0.57115   0.00000  Uiso   1.00
N45    N     0.76584   0.28922   0.21460   0.00000  Uiso   1.00
N46    N     0.19874   0.16508   0.16970   0.00000  Uiso   1.00
C47    C     0.11301   0.57791   0.06275   0.00000  Uiso   1.00
C48    C     0.06312   0.50987   0.99760   0.00000  Uiso   1.00
C49    C     0.01120   0.43986   0.99261   0.00000  Uiso   1.00
C50    C     0.97108   0.38498   0.92843   0.00000  Uiso   1.00
C51    C     0.89191   0.27709   0.83595   0.00000  Uiso   1.00
C52    C     0.20968   0.60920   0.06403   0.00000  Uiso   1.00
C53    C     0.28099   0.62271   0.11491   0.00000  Uiso   1.00
C54    C     0.36426   0.65145   0.10665   0.00000  Uiso   1.00
C55    C     0.51264   0.69781   0.11734   0.00000  Uiso   1.00
C56    C     0.08067   0.63319   0.05458   0.00000  Uiso   1.00
C57    C     0.04353   0.66689   0.09752   0.00000  Uiso   1.00
C58    C     0.01819   0.71584   0.08131   0.00000  Uiso   1.00
C59    C     0.96626   0.79945   0.07732   0.00000  Uiso   1.00
C60    C     0.13408   0.60494   0.95762   0.00000  Uiso   1.00
C61    C     0.07456   0.52455   0.94049   0.00000  Uiso   1.00
C62    C     0.03451   0.46976   0.87630   0.00000  Uiso   1.00
C63    C     0.98254   0.39968   0.87122   0.00000  Uiso   1.00
C64    C     0.22113   0.62388   0.00693   0.00000  Uiso   1.00
C65    C     0.30431   0.65261   0.99859   0.00000  Uiso   1.00
C66    C     0.37572   0.66615   0.04944   0.00000  Uiso   1.00
C67    C     0.09211   0.64787   0.99747   0.00000  Uiso   1.00
C68    C     0.06683   0.69679   0.98120   0.00000  Uiso   1.00
C69    C     0.02965   0.73055   0.02410   0.00000  Uiso   1.00
H70    H     0.10410   0.56649   0.10721   0.00000  Uiso   1.00
H71    H     0.00237   0.42852   0.03682   0.00000  Uiso   1.00
H72    H     0.27212   0.61135   0.15910   0.00000  Uiso   1.00
H73    H     0.03468   0.65551   0.14170   0.00000  Uiso   1.00
H74    H     0.89464   0.28203   0.93360   0.00000  Uiso   1.00
H75    H     0.46344   0.66755   0.19144   0.00000  Uiso   1.00
H76    H     0.96276   0.76069   0.15477   0.00000  Uiso   1.00
H77    H     0.14299   0.61637   0.91316   0.00000  Uiso   1.00
H78    H     0.04338   0.48114   0.83212   0.00000  Uiso   1.00
H79    H     0.31314   0.66397   0.95440   0.00000  Uiso   1.00
H80    H     0.07570   0.70813   0.93700   0.00000  Uiso   1.00
H81    H     0.92794   0.32474   0.76745   0.00000  Uiso   1.00
H82    H     0.49673   0.71026   0.02530   0.00000  Uiso   1.00
H83    H     0.99605   0.80340   0.98862   0.00000  Uiso   1.00
O84    O     0.84509   0.21352   0.80072   0.00000  Uiso   1.00
O85    O     0.59132   0.71932   0.13901   0.00000  Uiso   1.00
O86    O     0.93444   0.84151   0.09088   0.00000  Uiso   1.00
N87    N     0.91613   0.31064   0.90562   0.00000  Uiso   1.00
N88    N     0.44792   0.67107   0.14668   0.00000  Uiso   1.00
N89    N     0.97985   0.75816   0.11240   0.00000  Uiso   1.00
N90    N     0.93405   0.33362   0.81622   0.00000  Uiso   1.00
N91    N     0.46583   0.69405   0.05728   0.00000  Uiso   1.00
N92    N     0.99776   0.78114   0.02300   0.00000  Uiso   1.00
C93    C     0.01919   0.83089   0.58451   0.00000  Uiso   1.00
C94    C     0.03582   0.90709   0.58793   0.00000  Uiso   1.00
C95    C     0.97451   0.92490   0.55725   0.00000  Uiso   1.00
C96    C     0.00263   0.99772   0.56640   0.00000  Uiso   1.00
C97    C     0.01533   0.10797   0.56583   0.00000  Uiso   1.00
C98    C     0.08930   0.81488   0.55689   0.00000  Uiso   1.00
C99    C     0.07295   0.75515   0.50012   0.00000  Uiso   1.00
C100   C     0.14609   0.75036   0.48315   0.00000  Uiso   1.00
C101   C     0.24182   0.71742   0.43440   0.00000  Uiso   1.00
C102   C     0.04139   0.83762   0.65724   0.00000  Uiso   1.00
C103   C     0.98476   0.79700   0.68485   0.00000  Uiso   1.00
C104   C     0.01758   0.81133   0.75237   0.00000  Uiso   1.00
C105   C     0.03892   0.81370   0.85944   0.00000  Uiso   1.00
C106   C     0.17815   0.92857   0.65531   0.00000  Uiso   1.00
C107   C     0.12216   0.96015   0.62638   0.00000  Uiso   1.00
C108   C     0.15038   0.03297   0.63558   0.00000  Uiso   1.00
C109   C     0.08913   0.05088   0.60493   0.00000  Uiso   1.00
C110   C     0.17564   0.86794   0.59534   0.00000  Uiso   1.00
C111   C     0.24882   0.86323   0.57845   0.00000  Uiso   1.00
C112   C     0.23259   0.80351   0.52167   0.00000  Uiso   1.00
C113   C     0.12773   0.89068   0.69570   0.00000  Uiso   1.00
C114   C     0.16064   0.90507   0.76318   0.00000  Uiso   1.00
C115   C     0.10408   0.86448   0.79089   0.00000  Uiso   1.00
H116   H     0.95197   0.78958   0.55457   0.00000  Uiso   1.00
H117   H     0.90769   0.88382   0.52749   0.00000  Uiso   1.00
H118   H     0.00612   0.71410   0.47037   0.00000  Uiso   1.00
H119   H     0.91795   0.75594   0.65508   0.00000  Uiso   1.00
H120   H     0.89670   0.01170   0.51441   0.00000  Uiso   1.00
H121   H     0.10424   0.65382   0.39398   0.00000  Uiso   1.00
H122   H     0.91831   0.74205   0.78347   0.00000  Uiso   1.00
H123   H     0.24538   0.96987   0.68525   0.00000  Uiso   1.00
H124   H     0.21721   0.07401   0.66534   0.00000  Uiso   1.00
H125   H     0.31563   0.90429   0.60822   0.00000  Uiso   1.00
H126   H     0.22746   0.94614   0.79292   0.00000  Uiso   1.00
H127   H     0.14791   0.16606   0.62629   0.00000  Uiso   1.00
H128   H     0.35545   0.80818   0.50586   0.00000  Uiso   1.00
H129   H     0.16952   0.89642   0.89535   0.00000  Uiso   1.00
O130   O     0.99849   0.15413   0.55488   0.00000  Uiso   1.00
O131   O     0.27077   0.68460   0.39689   0.00000  Uiso   1.00
O132   O     0.02684   0.80036   0.90788   0.00000  Uiso   1.00
N133   N     0.95968   0.03374   0.54348   0.00000  Uiso   1.00
N134   N     0.15372   0.69915   0.43088   0.00000  Uiso   1.00
N135   N     0.97990   0.78162   0.79501   0.00000  Uiso   1.00
N136   N     0.09486   0.11680   0.60369   0.00000  Uiso   1.00
N137   N     0.28889   0.78222   0.49109   0.00000  Uiso   1.00
N138   N     0.11508   0.86469   0.85522   0.00000  Uiso   1.00
C139   C     0.54624   0.51245   0.92464   0.00000  Uiso   1.00
C140   C     0.56651   0.52576   0.99915   0.00000  Uiso   1.00
C141   C     0.52290   0.47674   0.02604   0.00000  Uiso   1.00
C142   C     0.55136   0.49922   0.09547   0.00000  Uiso   1.00
C143   C     0.57228   0.50936   0.20492   0.00000  Uiso   1.00
C144   C     0.63274   0.52393   0.90806   0.00000  Uiso   1.00
C145   C     0.64482   0.47338   0.85835   0.00000  Uiso   1.00
C146   C     0.72902   0.49433   0.85110   0.00000  Uiso   1.00
C147   C     0.85276   0.50165   0.81910   0.00000  Uiso   1.00
C148   C     0.52723   0.57476   0.91845   0.00000  Uiso   1.00
C149   C     0.45059   0.56696   0.87746   0.00000  Uiso   1.00
C150   C     0.44596   0.63071   0.87894   0.00000  Uiso   1.00
C151   C     0.40587   0.71697   0.86307   0.00000  Uiso   1.00
C152   C     0.67430   0.63955   0.00014   0.00000  Uiso   1.00
C153   C     0.63608   0.59479   0.04016   0.00000  Uiso   1.00
C154   C     0.66460   0.61736   0.10957   0.00000  Uiso   1.00
C155   C     0.62104   0.56838   0.13655   0.00000  Uiso   1.00
C156   C     0.70230   0.59296   0.94907   0.00000  Uiso   1.00
C157   C     0.78651   0.61400   0.94188   0.00000  Uiso   1.00
C158   C     0.79871   0.56349   0.89218   0.00000  Uiso   1.00
C159   C     0.59679   0.64380   0.95946   0.00000  Uiso   1.00
C160   C     0.59228   0.70758   0.96100   0.00000  Uiso   1.00
C161   C     0.51565   0.69987   0.92002   0.00000  Uiso   1.00
H162   H     0.49208   0.45870   0.89271   0.00000  Uiso   1.00
H163   H     0.46908   0.42331   0.99428   0.00000  Uiso   1.00
H164   H     0.59097   0.41996   0.82662   0.00000  Uiso   1.00
H165   H     0.39677   0.51353   0.84573   0.00000  Uiso   1.00
H166   H     0.47427   0.41451   0.12498   0.00000  Uiso   1.00
H167   H     0.73128   0.40744   0.77143   0.00000  Uiso   1.00
H168   H     0.32178   0.60475   0.81173   0.00000  Uiso   1.00
H169   H     0.72847   0.69330   0.03207   0.00000  Uiso   1.00
H170   H     0.71843   0.67078   0.14129   0.00000  Uiso   1.00
H171   H     0.84032   0.66743   0.97362   0.00000  Uiso   1.00
H172   H     0.64613   0.76099   0.99274   0.00000  Uiso   1.00
H173   H     0.67666   0.61536   0.24429   0.00000  Uiso   1.00
H174   H     0.93366   0.60830   0.89074   0.00000  Uiso   1.00
H175   H     0.52416   0.80560   0.93105   0.00000  Uiso   1.00
O176   O     0.56462   0.49588   0.25397   0.00000  Uiso   1.00
O177   O     0.90179   0.48662   0.79012   0.00000  Uiso   1.00
O178   O     0.36454   0.74547   0.84300   0.00000  Uiso   1.00
N179   N     0.52327   0.46488   0.13807   0.00000  Uiso   1.00
N180   N     0.76356   0.45827   0.80753   0.00000  Uiso   1.00
N181   N     0.38072   0.64273   0.84519   0.00000  Uiso   1.00
N182   N     0.63217   0.57296   0.20227   0.00000  Uiso   1.00
N183   N     0.87246   0.56634   0.87174   0.00000  Uiso   1.00
N184   N     0.48962   0.75081   0.90940   0.00000  Uiso   1.00
C185   C     0.95126   0.23085   0.36005   0.00000  Uiso   1.00
C186   C     0.97106   0.30142   0.34888   0.00000  Uiso   1.00
C187   C     0.94710   0.35504   0.38040   0.00000  Uiso   1.00
C188   C     0.97140   0.41554   0.36334   0.00000  Uiso   1.00
C189   C     0.99510   0.52414   0.35315   0.00000  Uiso   1.00
C190   C     0.04049   0.23062   0.38122   0.00000  Uiso   1.00
C191   C     0.07489   0.22471   0.43992   0.00000  Uiso   1.00
C192   C     0.15762   0.22559   0.45007   0.00000  Uiso   1.00
C193   C     0.28908   0.22422   0.49006   0.00000  Uiso   1.00
C194   C     0.90101   0.16878   0.29089   0.00000  Uiso   1.00
C195   C     0.81815   0.11085   0.27364   0.00000  Uiso   1.00
C196   C     0.78346   0.05965   0.20775   0.00000  Uiso   1.00
C197   C     0.69835   0.96226   0.10750   0.00000  Uiso   1.00
C198   C     0.03701   0.24292   0.27371   0.00000  Uiso   1.00
C199   C     0.01764   0.30798   0.30199   0.00000  Uiso   1.00
C200   C     0.04198   0.36840   0.28487   0.00000  Uiso   1.00
C201   C     0.01806   0.42211   0.31635   0.00000  Uiso   1.00
C202   C     0.08707   0.23718   0.33433   0.00000  Uiso   1.00
C203   C     0.16977   0.23807   0.34439   0.00000  Uiso   1.00
C204   C     0.20429   0.23216   0.40309   0.00000  Uiso   1.00
C205   C     0.94759   0.17534   0.24399   0.00000  Uiso   1.00
C206   C     0.91302   0.12422   0.17811   0.00000  Uiso   1.00
C207   C     0.83012   0.06622   0.16077   0.00000  Uiso   1.00
H208   H     0.91500   0.22574   0.39657   0.00000  Uiso   1.00
H209   H     0.91107   0.34995   0.41669   0.00000  Uiso   1.00
H210   H     0.03883   0.21962   0.47620   0.00000  Uiso   1.00
H211   H     0.78212   0.10579   0.30995   0.00000  Uiso   1.00
H212   H     0.92727   0.49056   0.41835   0.00000  Uiso   1.00
H213   H     0.19665   0.21574   0.54380   0.00000  Uiso   1.00
H214   H     0.65534   0.97570   0.19323   0.00000  Uiso   1.00
H215   H     0.07328   0.24803   0.23720   0.00000  Uiso   1.00
H216   H     0.07803   0.37346   0.24858   0.00000  Uiso   1.00
H217   H     0.20579   0.24314   0.30808   0.00000  Uiso   1.00
H218   H     0.94909   0.12931   0.14184   0.00000  Uiso   1.00
H219   H     0.06278   0.50965   0.28190   0.00000  Uiso   1.00
H220   H     0.33216   0.23483   0.40735   0.00000  Uiso   1.00
H221   H     0.79085   0.99479   0.05679   0.00000  Uiso   1.00
O222   O     0.99532   0.58223   0.36050   0.00000  Uiso   1.00
O223   O     0.34872   0.22166   0.52508   0.00000  Uiso   1.00
O224   O     0.63854   0.90674   0.06515   0.00000  Uiso   1.00
N225   N     0.95850   0.47784   0.38466   0.00000  Uiso   1.00
N226   N     0.21035   0.22090   0.50196   0.00000  Uiso   1.00
N227   N     0.70429   0.99648   0.17421   0.00000  Uiso   1.00
N228   N     0.03141   0.48811   0.31124   0.00000  Uiso   1.00
N229   N     0.28327   0.23118   0.42854   0.00000  Uiso   1.00
N230   N     0.77721   0.00675   0.10079   0.00000  Uiso   1.00
C231   C     0.63640   0.01000   0.60298   0.00000  Uiso   1.00
C232   C     0.59204   0.93634   0.54337   0.00000  Uiso   1.00
C233   C     0.56412   0.92548   0.47629   0.00000  Uiso   1.00
C234   C     0.52503   0.85390   0.42928   0.00000  Uiso   1.00
C235   C     0.45782   0.74845   0.33376   0.00000  Uiso   1.00
C236   C     0.72412   0.01621   0.63994   0.00000  Uiso   1.00
C237   C     0.80723   0.07251   0.65407   0.00000  Uiso   1.00
C238   C     0.87932   0.06817   0.68836   0.00000  Uiso   1.00
C239   C     0.01714   0.08673   0.74281   0.00000  Uiso   1.00
C240   C     0.57953   0.00356   0.65017   0.00000  Uiso   1.00
C241   C     0.54108   0.04923   0.67292   0.00000  Uiso   1.00
C242   C     0.49145   0.03425   0.71584   0.00000  Uiso   1.00
C243   C     0.40479   0.03317   0.78617   0.00000  Uiso   1.00
C244   C     0.61665   0.90219   0.63879   0.00000  Uiso   1.00
C245   C     0.58132   0.87779   0.56282   0.00000  Uiso   1.00
C246   C     0.54226   0.80620   0.51590   0.00000  Uiso   1.00
C247   C     0.51428   0.79524   0.44876   0.00000  Uiso   1.00
C248   C     0.71339   0.95766   0.65939   0.00000  Uiso   1.00
C249   C     0.78537   0.95323   0.69367   0.00000  Uiso   1.00
C250   C     0.86857   0.00950   0.70784   0.00000  Uiso   1.00
C251   C     0.56880   0.94500   0.66962   0.00000  Uiso   1.00
C252   C     0.51923   0.92995   0.71252   0.00000  Uiso   1.00
C253   C     0.48071   0.97558   0.73532   0.00000  Uiso   1.00
H254   H     0.64476   0.05559   0.58785   0.00000  Uiso   1.00
H255   H     0.57244   0.97082   0.46126   0.00000  Uiso   1.00
H256   H     0.81551   0.11782   0.63902   0.00000  Uiso   1.00
H257   H     0.54940   0.09454   0.65786   0.00000  Uiso   1.00
H258   H     0.48755   0.85101   0.32949   0.00000  Uiso   1.00
H259   H     0.00007   0.16099   0.70431   0.00000  Uiso   1.00
H260   H     0.43894   0.11191   0.74405   0.00000  Uiso   1.00
H261   H     0.60830   0.85659   0.65393   0.00000  Uiso   1.00
H262   H     0.53397   0.76089   0.53096   0.00000  Uiso   1.00
H263   H     0.77704   0.90790   0.70872   0.00000  Uiso   1.00
H264   H     0.51094   0.88462   0.72756   0.00000  Uiso   1.00
H265   H     0.45633   0.68063   0.38606   0.00000  Uiso   1.00
H266   H     0.96886   0.99061   0.76089   0.00000  Uiso   1.00
H267   H     0.40772   0.94152   0.80062   0.00000  Uiso   1.00
O268   O     0.42373   0.70646   0.27569   0.00000  Uiso   1.00
O269   O     0.09614   0.11315   0.76746   0.00000  Uiso   1.00
O270   O     0.35994   0.04875   0.81959   0.00000  Uiso   1.00
N271   N     0.49039   0.82404   0.35968   0.00000  Uiso   1.00
N272   N     0.96957   0.11385   0.71011   0.00000  Uiso   1.00
N273   N     0.44497   0.06797   0.74727   0.00000  Uiso   1.00
N274   N     0.47359   0.73236   0.39012   0.00000  Uiso   1.00
N275   N     0.95277   0.02217   0.74055   0.00000  Uiso   1.00
N276   N     0.42817   0.97629   0.77772   0.00000  Uiso   1.00
C277   C     0.29912   0.42887   0.57539   0.00000  Uiso   1.00
C278   C     0.28929   0.45757   0.52013   0.00000  Uiso   1.00
C279   C     0.28763   0.42467   0.45440   0.00000  Uiso   1.00
C280   C     0.27809   0.45951   0.41148   0.00000  Uiso   1.00
C281   C     0.26393   0.49410   0.32231   0.00000  Uiso   1.00
C282   C     0.21907   0.42110   0.60069   0.00000  Uiso   1.00
C283   C     0.15838   0.35755   0.60271   0.00000  Uiso   1.00
C284   C     0.08975   0.36170   0.62762   0.00000  Uiso   1.00
C285   C     0.96661   0.33969   0.66357   0.00000  Uiso   1.00
C286   C     0.37942   0.49043   0.63322   0.00000  Uiso   1.00
C287   C     0.45355   0.48517   0.66260   0.00000  Uiso   1.00
C288   C     0.51991   0.54769   0.71491   0.00000  Uiso   1.00
C289   C     0.64575   0.63333   0.80136   0.00000  Uiso   1.00
C290   C     0.28515   0.54925   0.61607   0.00000  Uiso   1.00
C291   C     0.28170   0.52295   0.54223   0.00000  Uiso   1.00
C292   C     0.27217   0.55785   0.49940   0.00000  Uiso   1.00
C293   C     0.27049   0.52501   0.43362   0.00000  Uiso   1.00
C294   C     0.21148   0.48648   0.62279   0.00000  Uiso   1.00
C295   C     0.14292   0.49073   0.64771   0.00000  Uiso   1.00
C296   C     0.08214   0.42720   0.64976   0.00000  Uiso   1.00
C297   C     0.37184   0.55582   0.65532   0.00000  Uiso   1.00
C298   C     0.43809   0.61836   0.70760   0.00000  Uiso   1.00
C299   C     0.51231   0.61319   0.73705   0.00000  Uiso   1.00
H300   H     0.30503   0.37797   0.55819   0.00000  Uiso   1.00
H301   H     0.29349   0.37407   0.43732   0.00000  Uiso   1.00
H302   H     0.16428   0.30696   0.58561   0.00000  Uiso   1.00
H303   H     0.45940   0.43457   0.64549   0.00000  Uiso   1.00
H304   H     0.27732   0.39856   0.31304   0.00000  Uiso   1.00
H305   H     0.00488   0.25707   0.62575   0.00000  Uiso   1.00
H306   H     0.62721   0.52615   0.75201   0.00000  Uiso   1.00
H307   H     0.27924   0.60016   0.63327   0.00000  Uiso   1.00
H308   H     0.26630   0.60845   0.51651   0.00000  Uiso   1.00
H309   H     0.13708   0.54134   0.66481   0.00000  Uiso   1.00
H310   H     0.43220   0.66895   0.72468   0.00000  Uiso   1.00
H311   H     0.25525   0.58879   0.37732   0.00000  Uiso   1.00
H312   H     0.98280   0.44730   0.69003   0.00000  Uiso   1.00
H313   H     0.60513   0.71638   0.81629   0.00000  Uiso   1.00
O314   O     0.25820   0.49511   0.26702   0.00000  Uiso   1.00
O315   O     0.90078   0.30949   0.67729   0.00000  Uiso   1.00
O316   O     0.71726   0.66251   0.84294   0.00000  Uiso   1.00
N317   N     0.27392   0.44220   0.34420   0.00000  Uiso   1.00
N318   N     0.01920   0.30991   0.63655   0.00000  Uiso   1.00
N319   N     0.60101   0.56148   0.75461   0.00000  Uiso   1.00
N320   N     0.26205   0.54457   0.37879   0.00000  Uiso   1.00
N321   N     0.00732   0.41228   0.67114   0.00000  Uiso   1.00
N322   N     0.58913   0.66384   0.78920   0.00000  Uiso   1.00
C323   C     0.64727   0.27605   0.86341   0.00000  Uiso   1.00
C324   C     0.68168   0.33936   0.93165   0.00000  Uiso   1.00
C325   C     0.75939   0.40369   0.95413   0.00000  Uiso   1.00
C326   C     0.77920   0.45492   0.01812   0.00000  Uiso   1.00
C327   C     0.84112   0.55518   0.11797   0.00000  Uiso   1.00
C328   C     0.55453   0.26428   0.83074   0.00000  Uiso   1.00
C329   C     0.52533   0.26548   0.76838   0.00000  Uiso   1.00
C330   C     0.43810   0.25350   0.74742   0.00000  Uiso   1.00
C331   C     0.30259   0.23715   0.69060   0.00000  Uiso   1.00
C332   C     0.63502   0.20845   0.87830   0.00000  Uiso   1.00
C333   C     0.67348   0.16268   0.85592   0.00000  Uiso   1.00
C334   C     0.65400   0.10368   0.87499   0.00000  Uiso   1.00
C335   C     0.64347   0.00064   0.89201   0.00000  Uiso   1.00
C336   C     0.54428   0.25262   0.93705   0.00000  Uiso   1.00
C337   C     0.62573   0.32663   0.97164   0.00000  Uiso   1.00
C338   C     0.64544   0.37778   0.03561   0.00000  Uiso   1.00
C339   C     0.72316   0.44217   0.05819   0.00000  Uiso   1.00
C340   C     0.49859   0.25156   0.87073   0.00000  Uiso   1.00
C341   C     0.41138   0.23957   0.84985   0.00000  Uiso   1.00
C342   C     0.38206   0.24076   0.78749   0.00000  Uiso   1.00
C343   C     0.57908   0.19572   0.91830   0.00000  Uiso   1.00
C344   C     0.55953   0.13677   0.93740   0.00000  Uiso   1.00
C345   C     0.59796   0.09093   0.91505   0.00000  Uiso   1.00
H346   H     0.69082   0.28595   0.83227   0.00000  Uiso   1.00
H347   H     0.80266   0.41352   0.92316   0.00000  Uiso   1.00
H348   H     0.56863   0.27532   0.73744   0.00000  Uiso   1.00
H349   H     0.71677   0.17255   0.82497   0.00000  Uiso   1.00
H350   H     0.90197   0.54935   0.04157   0.00000  Uiso   1.00
H351   H     0.40850   0.25794   0.64995   0.00000  Uiso   1.00
H352   H     0.72087   0.04121   0.83452   0.00000  Uiso   1.00
H353   H     0.50072   0.24272   0.96818   0.00000  Uiso   1.00
H354   H     0.60213   0.36792   0.06655   0.00000  Uiso   1.00
H355   H     0.36811   0.22972   0.88082   0.00000  Uiso   1.00
H356   H     0.51624   0.12694   0.96835   0.00000  Uiso   1.00
H357   H     0.73921   0.51234   0.15794   0.00000  Uiso   1.00
H358   H     0.24574   0.22092   0.76632   0.00000  Uiso   1.00
H359   H     0.55811   0.00420   0.95089   0.00000  Uiso   1.00
O360   O     0.89072   0.61400   0.16200   0.00000  Uiso   1.00
O361   O     0.24330   0.23166   0.64820   0.00000  Uiso   1.00
O362   O     0.65313   0.94732   0.89036   0.00000  Uiso   1.00
N363   N     0.84976   0.52345   0.05547   0.00000  Uiso   1.00
N364   N     0.38840   0.25101   0.68933   0.00000  Uiso   1.00
N365   N     0.68042   0.04838   0.86187   0.00000  Uiso   1.00
N366   N     0.76218   0.50354   0.11809   0.00000  Uiso   1.00
N367   N     0.30082   0.23110   0.75195   0.00000  Uiso   1.00
N368   N     0.59284   0.02846   0.92449   0.00000  Uiso   1.00
C369   C     0.77022   0.96861   0.38006   0.00000  Uiso   1.00
C370   C     0.73575   0.89148   0.37910   0.00000  Uiso   1.00
C371   C     0.74807   0.87385   0.43481   0.00000  Uiso   1.00
C372   C     0.71129   0.80007   0.42340   0.00000  Uiso   1.00
C373   C     0.66494   0.68855   0.43177   0.00000  Uiso   1.00
C374   C     0.68939   0.97499   0.34754   0.00000  Uiso   1.00
C375   C     0.66273   0.02758   0.37672   0.00000  Uiso   1.00
C376   C     0.58693   0.02411   0.33874   0.00000  Uiso   1.00
C377   C     0.46864   0.04228   0.29810   0.00000  Uiso   1.00
C378   C     0.82575   0.97104   0.33178   0.00000  Uiso   1.00
C379   C     0.91375   0.02031   0.34769   0.00000  Uiso   1.00
C380   C     0.95275   0.01352   0.29643   0.00000  Uiso   1.00
C381   C     0.04618   0.02554   0.23131   0.00000  Uiso   1.00
C382   C     0.68301   0.86893   0.26074   0.00000  Uiso   1.00
C383   C     0.68838   0.83734   0.31428   0.00000  Uiso   1.00
C384   C     0.65158   0.76357   0.30279   0.00000  Uiso   1.00
C385   C     0.66384   0.74583   0.35847   0.00000  Uiso   1.00
C386   C     0.64202   0.92086   0.28273   0.00000  Uiso   1.00
C387   C     0.56625   0.91731   0.24470   0.00000  Uiso   1.00
C388   C     0.53948   0.96987   0.27381   0.00000  Uiso   1.00
C389   C     0.77839   0.91690   0.26696   0.00000  Uiso   1.00
C390   C     0.81726   0.91003   0.21567   0.00000  Uiso   1.00
C391   C     0.90530   0.95928   0.23150   0.00000  Uiso   1.00
H392   H     0.80709   0.01076   0.43052   0.00000  Uiso   1.00
H393   H     0.78472   0.91576   0.48496   0.00000  Uiso   1.00
H394   H     0.69941   0.06948   0.42687   0.00000  Uiso   1.00
H395   H     0.95038   0.06220   0.39785   0.00000  Uiso   1.00
H396   H     0.73900   0.78657   0.51673   0.00000  Uiso   1.00
H397   H     0.55912   0.11070   0.39425   0.00000  Uiso   1.00
H398   H     0.08835   0.09536   0.33305   0.00000  Uiso   1.00
H399   H     0.64613   0.82678   0.21027   0.00000  Uiso   1.00
H400   H     0.61493   0.72169   0.25263   0.00000  Uiso   1.00
H401   H     0.52961   0.87540   0.19454   0.00000  Uiso   1.00
H402   H     0.78059   0.86813   0.16552   0.00000  Uiso   1.00
H403   H     0.60118   0.62905   0.32817   0.00000  Uiso   1.00
H404   H     0.42131   0.95318   0.20568   0.00000  Uiso   1.00
H405   H     0.95054   0.93784   0.14448   0.00000  Uiso   1.00
O406   O     0.65244   0.64200   0.45429   0.00000  Uiso   1.00
O407   O     0.41647   0.06725   0.29359   0.00000  Uiso   1.00
O408   O     0.11080   0.04713   0.21330   0.00000  Uiso   1.00
N409   N     0.71086   0.76392   0.46654   0.00000  Uiso   1.00
N410   N     0.54268   0.06696   0.35203   0.00000  Uiso   1.00
N411   N     0.03746   0.05263   0.29481   0.00000  Uiso   1.00
N412   N     0.63671   0.67916   0.36507   0.00000  Uiso   1.00
N413   N     0.46853   0.98220   0.25056   0.00000  Uiso   1.00
N414   N     0.96331   0.96787   0.19334   0.00000  Uiso   1.00
C415   C     0.19860   0.34471   0.03930   0.00000  Uiso   1.00
C416   C     0.19568   0.36113   0.97599   0.00000  Uiso   1.00
C417   C     0.22825   0.43025   0.97436   0.00000  Uiso   1.00
C418   C     0.21921   0.43370   0.91139   0.00000  Uiso   1.00
C419   C     0.22075   0.46884   0.82208   0.00000  Uiso   1.00
C420   C     0.10303   0.29624   0.03219   0.00000  Uiso   1.00
C421   C     0.05772   0.31079   0.07783   0.00000  Uiso   1.00
C422   C     0.97069   0.25961   0.06217   0.00000  Uiso   1.00
C423   C     0.82842   0.19398   0.06015   0.00000  Uiso   1.00
C424   C     0.24637   0.29674   0.03505   0.00000  Uiso   1.00
C425   C     0.32157   0.31170   0.08310   0.00000  Uiso   1.00
C426   C     0.35522   0.26093   0.06986   0.00000  Uiso   1.00
C427   C     0.43551   0.19607   0.07229   0.00000  Uiso   1.00
C428   C     0.12462   0.22792   0.93035   0.00000  Uiso   1.00
C429   C     0.15549   0.29769   0.91681   0.00000  Uiso   1.00
C430   C     0.14641   0.30104   0.85382   0.00000  Uiso   1.00
C431   C     0.17896   0.37015   0.85210   0.00000  Uiso   1.00
C432   C     0.06285   0.23280   0.97302   0.00000  Uiso   1.00
C433   C     0.97588   0.18158   0.95729   0.00000  Uiso   1.00
C434   C     0.93044   0.19606   0.00289   0.00000  Uiso   1.00
C435   C     0.20620   0.23330   0.97588   0.00000  Uiso   1.00
C436   C     0.23973   0.18249   0.96256   0.00000  Uiso   1.00
C437   C     0.31497   0.19738   0.01058   0.00000  Uiso   1.00
H438   H     0.22987   0.39410   0.08537   0.00000  Uiso   1.00
H439   H     0.25933   0.47933   0.02017   0.00000  Uiso   1.00
H440   H     0.08883   0.35989   0.12362   0.00000  Uiso   1.00
H441   H     0.35265   0.36080   0.12889   0.00000  Uiso   1.00
H442   H     0.27425   0.54585   0.92178   0.00000  Uiso   1.00
H443   H     0.91475   0.29399   0.13993   0.00000  Uiso   1.00
H444   H     0.47105   0.29590   0.15105   0.00000  Uiso   1.00
H445   H     0.09334   0.17853   0.88428   0.00000  Uiso   1.00
H446   H     0.11531   0.25194   0.80804   0.00000  Uiso   1.00
H447   H     0.94481   0.13249   0.91149   0.00000  Uiso   1.00
H448   H     0.20862   0.13340   0.91676   0.00000  Uiso   1.00
H449   H     0.15735   0.36129   0.74961   0.00000  Uiso   1.00
H450   H     0.79785   0.10943   0.96776   0.00000  Uiso   1.00
H451   H     0.35415   0.11134   0.97888   0.00000  Uiso   1.00
O452   O     0.23269   0.50575   0.78917   0.00000  Uiso   1.00
O453   O     0.76105   0.17531   0.07538   0.00000  Uiso   1.00
O454   O     0.49091   0.17783   0.08996   0.00000  Uiso   1.00
N455   N     0.24374   0.49234   0.89172   0.00000  Uiso   1.00
N456   N     0.90762   0.25687   0.09567   0.00000  Uiso   1.00
N457   N     0.42770   0.25865   0.10608   0.00000  Uiso   1.00
N458   N     0.18084   0.39303   0.79908   0.00000  Uiso   1.00
N459   N     0.84472   0.15756   0.00303   0.00000  Uiso   1.00
N460   N     0.36480   0.15934   0.01343   0.00000  Uiso   1.00
C461   C     0.87435   0.55855   0.55087   0.00000  Uiso   1.00
C462   C     0.83945   0.48266   0.55280   0.00000  Uiso   1.00
C463   C     0.80273   0.41687   0.49732   0.00000  Uiso   1.00
C464   C     0.77471   0.35335   0.50965   0.00000  Uiso   1.00
C465   C     0.71920   0.23517   0.50269   0.00000  Uiso   1.00
C466   C     0.82404   0.59562   0.58655   0.00000  Uiso   1.00
C467   C     0.77436   0.62483   0.55943   0.00000  Uiso   1.00
C468   C     0.73339   0.65641   0.60017   0.00000  Uiso   1.00
C469   C     0.65399   0.71365   0.64562   0.00000  Uiso   1.00
C470   C     0.97022   0.60022   0.59589   0.00000  Uiso   1.00
C471   C     0.04346   0.63331   0.57663   0.00000  Uiso   1.00
C472   C     0.12555   0.66878   0.62525   0.00000  Uiso   1.00
C473   C     0.27312   0.73317   0.68519   0.00000  Uiso   1.00
C474   C     0.88991   0.56272   0.67145   0.00000  Uiso   1.00
C475   C     0.84790   0.48493   0.61830   0.00000  Uiso   1.00
C476   C     0.81994   0.42149   0.63072   0.00000  Uiso   1.00
C477   C     0.78318   0.35562   0.57526   0.00000  Uiso   1.00
C478   C     0.83248   0.59789   0.65204   0.00000  Uiso   1.00
C479   C     0.79157   0.62944   0.69283   0.00000  Uiso   1.00
C480   C     0.74185   0.65868   0.66578   0.00000  Uiso   1.00
C481   C     0.97867   0.60249   0.66138   0.00000  Uiso   1.00
C482   C     0.06067   0.63792   0.71003   0.00000  Uiso   1.00
C483   C     0.13402   0.67105   0.69086   0.00000  Uiso   1.00
H484   H     0.86777   0.55678   0.49988   0.00000  Uiso   1.00
H485   H     0.79619   0.41514   0.44664   0.00000  Uiso   1.00
H486   H     0.76784   0.62307   0.50875   0.00000  Uiso   1.00
H487   H     0.03689   0.63154   0.52595   0.00000  Uiso   1.00
H488   H     0.72053   0.25910   0.41650   0.00000  Uiso   1.00
H489   H     0.66078   0.69755   0.54746   0.00000  Uiso   1.00
H490   H     0.22812   0.71543   0.58372   0.00000  Uiso   1.00
H491   H     0.89649   0.56449   0.72244   0.00000  Uiso   1.00
H492   H     0.82649   0.42326   0.68141   0.00000  Uiso   1.00
H493   H     0.79813   0.63119   0.74351   0.00000  Uiso   1.00
H494   H     0.06718   0.63967   0.76071   0.00000  Uiso   1.00
H495   H     0.74511   0.26569   0.60704   0.00000  Uiso   1.00
H496   H     0.68536   0.70414   0.73800   0.00000  Uiso   1.00
H497   H     0.25270   0.72202   0.77427   0.00000  Uiso   1.00
O498   O     0.68623   0.16936   0.48076   0.00000  Uiso   1.00
O499   O     0.60785   0.74459   0.65258   0.00000  Uiso   1.00
O500   O     0.35219   0.76804   0.70016   0.00000  Uiso   1.00
N501   N     0.73594   0.28004   0.46697   0.00000  Uiso   1.00
N502   N     0.68007   0.68995   0.58941   0.00000  Uiso   1.00
N503   N     0.21048   0.70668   0.62332   0.00000  Uiso   1.00
N504   N     0.74917   0.28358   0.56950   0.00000  Uiso   1.00
N505   N     0.69329   0.69349   0.69194   0.00000  Uiso   1.00
N506   N     0.22371   0.71022   0.72585   0.00000  Uiso   1.00
C507   C     0.23698   0.84257   0.29842   0.00000  Uiso   1.00
C508   C     0.28774   0.91943   0.35335   0.00000  Uiso   1.00
C509   C     0.36159   0.94300   0.40690   0.00000  Uiso   1.00
C510   C     0.39848   0.01540   0.45177   0.00000  Uiso   1.00
C511   C     0.48271   0.12757   0.53837   0.00000  Uiso   1.00
C512   C     0.14118   0.81596   0.29939   0.00000  Uiso   1.00
C513   C     0.09181   0.75254   0.30757   0.00000  Uiso   1.00
C514   C     0.00531   0.73783   0.30700   0.00000  Uiso   1.00
C515   C     0.86198   0.68934   0.30978   0.00000  Uiso   1.00
C516   C     0.23690   0.85170   0.23186   0.00000  Uiso   1.00
C517   C     0.26799   0.81830   0.18325   0.00000  Uiso   1.00
C518   C     0.26206   0.83367   0.12583   0.00000  Uiso   1.00
C519   C     0.26735   0.84067   0.02376   0.00000  Uiso   1.00
C520   C     0.17115   0.92922   0.28286   0.00000  Uiso   1.00
C521   C     0.25198   0.96649   0.34490   0.00000  Uiso   1.00
C522   C     0.28877   0.03887   0.38970   0.00000  Uiso   1.00
C523   C     0.36266   0.06255   0.44331   0.00000  Uiso   1.00
C524   C     0.10543   0.86302   0.29094   0.00000  Uiso   1.00
C525   C     0.01898   0.84840   0.29036   0.00000  Uiso   1.00
C526   C     0.96949   0.78498   0.29854   0.00000  Uiso   1.00
C527   C     0.20115   0.89876   0.22341   0.00000  Uiso   1.00
C528   C     0.19516   0.91417   0.16605   0.00000  Uiso   1.00
C529   C     0.22624   0.88082   0.11737   0.00000  Uiso   1.00
H530   H     0.26481   0.80593   0.30499   0.00000  Uiso   1.00
H531   H     0.38924   0.90656   0.41343   0.00000  Uiso   1.00
H532   H     0.11949   0.71613   0.31410   0.00000  Uiso   1.00
H533   H     0.29565   0.78189   0.18981   0.00000  Uiso   1.00
H534   H     0.51140   0.03888   0.52993   0.00000  Uiso   1.00
H535   H     0.94262   0.63733   0.32047   0.00000  Uiso   1.00
H536   H     0.31408   0.77599   0.05838   0.00000  Uiso   1.00
H537   H     0.14331   0.96586   0.27629   0.00000  Uiso   1.00
H538   H     0.26108   0.07527   0.38315   0.00000  Uiso   1.00
H539   H     0.99133   0.88484   0.28382   0.00000  Uiso   1.00
H540   H     0.16749   0.95060   0.15953   0.00000  Uiso   1.00
H541   H     0.40738   0.17582   0.50536   0.00000  Uiso   1.00
H542   H     0.83859   0.77425   0.29589   0.00000  Uiso   1.00
H543   H     0.21006   0.91293   0.03380   0.00000  Uiso   1.00
O544   O     0.53904   0.17644   0.58847   0.00000  Uiso   1.00
O545   O     0.79281   0.64960   0.31365   0.00000  Uiso   1.00
O546   O     0.28016   0.83153   0.96980   0.00000  Uiso   1.00
N547   N     0.47077   0.05610   0.50948   0.00000  Uiso   1.00
N548   N     0.93899   0.68067   0.31365   0.00000  Uiso   1.00
N549   N     0.28626   0.81030   0.06861   0.00000  Uiso   1.00
N550   N     0.41480   0.12978   0.49625   0.00000  Uiso   1.00
N551   N     0.88302   0.75435   0.30043   0.00000  Uiso   1.00
N552   N     0.23028   0.88398   0.05539   0.00000  Uiso   1.00
