data_job_03637
_audit_creation_date              2018-12-19
_audit_creation_method            'Materials Studio'
_symmetry_space_group_name_H-M    'P1'
_symmetry_Int_Tables_number       1
_symmetry_cell_setting            triclinic
loop_
_symmetry_equiv_pos_as_xyz
  x,y,z
_cell_length_a                    20.2170
_cell_length_b                    15.3041
_cell_length_c                    17.9748
_cell_angle_alpha                 90.0000
_cell_angle_beta                  90.0000
_cell_angle_gamma                 90.0000
loop_
_atom_site_label
_atom_site_type_symbol
_atom_site_fract_x
_atom_site_fract_y
_atom_site_fract_z
_atom_site_U_iso_or_equiv
_atom_site_adp_type
_atom_site_occupancy
C1     C     0.30576   0.29787   0.10011   0.00000  Uiso   1.00
C2     C     0.23095   0.28840   0.09285   0.00000  Uiso   1.00
C3     C     0.19717   0.26452   0.02878   0.00000  Uiso   1.00
C4     C     0.12873   0.25955   0.03353   0.00000  Uiso   1.00
C5     C     0.01765   0.24211   0.01214   0.00000  Uiso   1.00
C6     C     0.31791   0.39069   0.12775   0.00000  Uiso   1.00
C7     C     0.35726   0.45282   0.09303   0.00000  Uiso   1.00
C8     C     0.36203   0.53395   0.12718   0.00000  Uiso   1.00
C9     C     0.38599   0.67531   0.16000   0.00000  Uiso   1.00
C10    C     0.32628   0.23757   0.16357   0.00000  Uiso   1.00
C11    C     0.37268   0.17095   0.15899   0.00000  Uiso   1.00
C12    C     0.38450   0.12318   0.22329   0.00000  Uiso   1.00
C13    C     0.42147   0.02678   0.31174   0.00000  Uiso   1.00
C14    C     0.24427   0.33149   0.22247   0.00000  Uiso   1.00
C15    C     0.19755   0.30667   0.15931   0.00000  Uiso   1.00
C16    C     0.12914   0.30172   0.16416   0.00000  Uiso   1.00
C17    C     0.09527   0.27784   0.10011   0.00000  Uiso   1.00
C18    C     0.28451   0.40896   0.19421   0.00000  Uiso   1.00
C19    C     0.28923   0.49002   0.22841   0.00000  Uiso   1.00
C20    C     0.32857   0.55225   0.19376   0.00000  Uiso   1.00
C21    C     0.29288   0.25583   0.23004   0.00000  Uiso   1.00
C22    C     0.30464   0.20816   0.29436   0.00000  Uiso   1.00
C23    C     0.35105   0.14148   0.28988   0.00000  Uiso   1.00
H24    H     0.33176   0.28365   0.04836   0.00000  Uiso   1.00
H25    H     0.22304   0.25040   0.97735   0.00000  Uiso   1.00
H26    H     0.38310   0.43866   0.04161   0.00000  Uiso   1.00
H27    H     0.39851   0.15684   0.10754   0.00000  Uiso   1.00
H28    H     0.08777   0.22161   0.92793   0.00000  Uiso   1.00
H29    H     0.42529   0.61857   0.06342   0.00000  Uiso   1.00
H30    H     0.45779   0.02429   0.20247   0.00000  Uiso   1.00
H31    H     0.21827   0.34572   0.27421   0.00000  Uiso   1.00
H32    H     0.10331   0.31586   0.21560   0.00000  Uiso   1.00
H33    H     0.26338   0.50413   0.27985   0.00000  Uiso   1.00
H34    H     0.27879   0.22231   0.34579   0.00000  Uiso   1.00
H35    H     0.99059   0.27475   0.12130   0.00000  Uiso   1.00
H36    H     0.32812   0.67171   0.25679   0.00000  Uiso   1.00
H37    H     0.36062   0.07743   0.39583   0.00000  Uiso   1.00
O38    O     0.96561   0.22745   0.98198   0.00000  Uiso   1.00
O39    O     0.40843   0.74823   0.15974   0.00000  Uiso   1.00
O40    O     0.45107   0.96856   0.34216   0.00000  Uiso   1.00
N41    N     0.08067   0.23820   0.98149   0.00000  Uiso   1.00
N42    N     0.39623   0.60933   0.10816   0.00000  Uiso   1.00
N43    N     0.42663   0.05375   0.23816   0.00000  Uiso   1.00
N44    N     0.02839   0.26679   0.08554   0.00000  Uiso   1.00
N45    N     0.34394   0.63792   0.21221   0.00000  Uiso   1.00
N46    N     0.37434   0.08234   0.34221   0.00000  Uiso   1.00
C47    C     0.80576   0.79787   0.10011   0.00000  Uiso   1.00
C48    C     0.73095   0.78840   0.09285   0.00000  Uiso   1.00
C49    C     0.69717   0.76452   0.02878   0.00000  Uiso   1.00
C50    C     0.62873   0.75955   0.03353   0.00000  Uiso   1.00
C51    C     0.51765   0.74211   0.01214   0.00000  Uiso   1.00
C52    C     0.81791   0.89069   0.12775   0.00000  Uiso   1.00
C53    C     0.85726   0.95282   0.09303   0.00000  Uiso   1.00
C54    C     0.86203   0.03395   0.12718   0.00000  Uiso   1.00
C55    C     0.88599   0.17531   0.16000   0.00000  Uiso   1.00
C56    C     0.82628   0.73757   0.16357   0.00000  Uiso   1.00
C57    C     0.87268   0.67095   0.15899   0.00000  Uiso   1.00
C58    C     0.88450   0.62318   0.22329   0.00000  Uiso   1.00
C59    C     0.92147   0.52678   0.31174   0.00000  Uiso   1.00
C60    C     0.74427   0.83149   0.22247   0.00000  Uiso   1.00
C61    C     0.69755   0.80667   0.15931   0.00000  Uiso   1.00
C62    C     0.62914   0.80172   0.16416   0.00000  Uiso   1.00
C63    C     0.59527   0.77784   0.10011   0.00000  Uiso   1.00
C64    C     0.78451   0.90896   0.19421   0.00000  Uiso   1.00
C65    C     0.78923   0.99002   0.22841   0.00000  Uiso   1.00
C66    C     0.82857   0.05225   0.19376   0.00000  Uiso   1.00
C67    C     0.79288   0.75583   0.23004   0.00000  Uiso   1.00
C68    C     0.80464   0.70816   0.29436   0.00000  Uiso   1.00
C69    C     0.85105   0.64148   0.28988   0.00000  Uiso   1.00
H70    H     0.83176   0.78365   0.04836   0.00000  Uiso   1.00
H71    H     0.72304   0.75040   0.97735   0.00000  Uiso   1.00
H72    H     0.88310   0.93866   0.04161   0.00000  Uiso   1.00
H73    H     0.89851   0.65684   0.10754   0.00000  Uiso   1.00
H74    H     0.58777   0.72161   0.92793   0.00000  Uiso   1.00
H75    H     0.92529   0.11857   0.06342   0.00000  Uiso   1.00
H76    H     0.95779   0.52429   0.20247   0.00000  Uiso   1.00
H77    H     0.71827   0.84572   0.27421   0.00000  Uiso   1.00
H78    H     0.60331   0.81586   0.21560   0.00000  Uiso   1.00
H79    H     0.76338   0.00413   0.27985   0.00000  Uiso   1.00
H80    H     0.77879   0.72231   0.34579   0.00000  Uiso   1.00
H81    H     0.49059   0.77475   0.12130   0.00000  Uiso   1.00
H82    H     0.82812   0.17171   0.25679   0.00000  Uiso   1.00
H83    H     0.86062   0.57743   0.39583   0.00000  Uiso   1.00
O84    O     0.46561   0.72745   0.98198   0.00000  Uiso   1.00
O85    O     0.90843   0.24823   0.15974   0.00000  Uiso   1.00
O86    O     0.95107   0.46856   0.34216   0.00000  Uiso   1.00
N87    N     0.58067   0.73820   0.98149   0.00000  Uiso   1.00
N88    N     0.89623   0.10933   0.10816   0.00000  Uiso   1.00
N89    N     0.92663   0.55375   0.23816   0.00000  Uiso   1.00
N90    N     0.52839   0.76679   0.08554   0.00000  Uiso   1.00
N91    N     0.84394   0.13792   0.21221   0.00000  Uiso   1.00
N92    N     0.87434   0.58234   0.34221   0.00000  Uiso   1.00
C93    C     0.69424   0.70213   0.60011   0.00000  Uiso   1.00
C94    C     0.76905   0.71160   0.59285   0.00000  Uiso   1.00
C95    C     0.80283   0.73548   0.52878   0.00000  Uiso   1.00
C96    C     0.87127   0.74045   0.53353   0.00000  Uiso   1.00
C97    C     0.98235   0.75789   0.51214   0.00000  Uiso   1.00
C98    C     0.68209   0.60931   0.62775   0.00000  Uiso   1.00
C99    C     0.64274   0.54718   0.59303   0.00000  Uiso   1.00
C100   C     0.63797   0.46605   0.62718   0.00000  Uiso   1.00
C101   C     0.61401   0.32469   0.66000   0.00000  Uiso   1.00
C102   C     0.67372   0.76243   0.66357   0.00000  Uiso   1.00
C103   C     0.62732   0.82905   0.65899   0.00000  Uiso   1.00
C104   C     0.61550   0.87682   0.72329   0.00000  Uiso   1.00
C105   C     0.57853   0.97322   0.81174   0.00000  Uiso   1.00
C106   C     0.75573   0.66851   0.72247   0.00000  Uiso   1.00
C107   C     0.80245   0.69333   0.65931   0.00000  Uiso   1.00
C108   C     0.87086   0.69828   0.66416   0.00000  Uiso   1.00
C109   C     0.90473   0.72216   0.60011   0.00000  Uiso   1.00
C110   C     0.71549   0.59104   0.69421   0.00000  Uiso   1.00
C111   C     0.71077   0.50998   0.72841   0.00000  Uiso   1.00
C112   C     0.67143   0.44775   0.69376   0.00000  Uiso   1.00
C113   C     0.70712   0.74417   0.73004   0.00000  Uiso   1.00
C114   C     0.69536   0.79184   0.79436   0.00000  Uiso   1.00
C115   C     0.64895   0.85852   0.78988   0.00000  Uiso   1.00
H116   H     0.66824   0.71635   0.54836   0.00000  Uiso   1.00
H117   H     0.77696   0.74960   0.47735   0.00000  Uiso   1.00
H118   H     0.61690   0.56134   0.54161   0.00000  Uiso   1.00
H119   H     0.60149   0.84316   0.60754   0.00000  Uiso   1.00
H120   H     0.91223   0.77839   0.42793   0.00000  Uiso   1.00
H121   H     0.57471   0.38143   0.56342   0.00000  Uiso   1.00
H122   H     0.54221   0.97571   0.70247   0.00000  Uiso   1.00
H123   H     0.78173   0.65428   0.77421   0.00000  Uiso   1.00
H124   H     0.89669   0.68414   0.71560   0.00000  Uiso   1.00
H125   H     0.73662   0.49587   0.77985   0.00000  Uiso   1.00
H126   H     0.72121   0.77769   0.84579   0.00000  Uiso   1.00
H127   H     0.00941   0.72525   0.62130   0.00000  Uiso   1.00
H128   H     0.67188   0.32829   0.75679   0.00000  Uiso   1.00
H129   H     0.63938   0.92257   0.89583   0.00000  Uiso   1.00
O130   O     0.03439   0.77255   0.48198   0.00000  Uiso   1.00
O131   O     0.59157   0.25177   0.65974   0.00000  Uiso   1.00
O132   O     0.54893   0.03144   0.84216   0.00000  Uiso   1.00
N133   N     0.91933   0.76180   0.48149   0.00000  Uiso   1.00
N134   N     0.60377   0.39067   0.60816   0.00000  Uiso   1.00
N135   N     0.57337   0.94625   0.73816   0.00000  Uiso   1.00
N136   N     0.97161   0.73321   0.58554   0.00000  Uiso   1.00
N137   N     0.65606   0.36208   0.71221   0.00000  Uiso   1.00
N138   N     0.62566   0.91766   0.84221   0.00000  Uiso   1.00
C139   C     0.19424   0.20213   0.60011   0.00000  Uiso   1.00
C140   C     0.26905   0.21160   0.59285   0.00000  Uiso   1.00
C141   C     0.30283   0.23548   0.52878   0.00000  Uiso   1.00
C142   C     0.37127   0.24045   0.53353   0.00000  Uiso   1.00
C143   C     0.48235   0.25789   0.51214   0.00000  Uiso   1.00
C144   C     0.18209   0.10931   0.62775   0.00000  Uiso   1.00
C145   C     0.14274   0.04718   0.59303   0.00000  Uiso   1.00
C146   C     0.13797   0.96605   0.62718   0.00000  Uiso   1.00
C147   C     0.11401   0.82469   0.66000   0.00000  Uiso   1.00
C148   C     0.17372   0.26243   0.66357   0.00000  Uiso   1.00
C149   C     0.12732   0.32905   0.65899   0.00000  Uiso   1.00
C150   C     0.11550   0.37682   0.72329   0.00000  Uiso   1.00
C151   C     0.07853   0.47322   0.81174   0.00000  Uiso   1.00
C152   C     0.25573   0.16851   0.72247   0.00000  Uiso   1.00
C153   C     0.30245   0.19333   0.65931   0.00000  Uiso   1.00
C154   C     0.37086   0.19828   0.66416   0.00000  Uiso   1.00
C155   C     0.40473   0.22216   0.60011   0.00000  Uiso   1.00
C156   C     0.21549   0.09104   0.69421   0.00000  Uiso   1.00
C157   C     0.21077   0.00998   0.72841   0.00000  Uiso   1.00
C158   C     0.17143   0.94775   0.69376   0.00000  Uiso   1.00
C159   C     0.20712   0.24417   0.73004   0.00000  Uiso   1.00
C160   C     0.19536   0.29184   0.79436   0.00000  Uiso   1.00
C161   C     0.14895   0.35852   0.78988   0.00000  Uiso   1.00
H162   H     0.16824   0.21635   0.54836   0.00000  Uiso   1.00
H163   H     0.27696   0.24960   0.47735   0.00000  Uiso   1.00
H164   H     0.11690   0.06134   0.54161   0.00000  Uiso   1.00
H165   H     0.10149   0.34316   0.60754   0.00000  Uiso   1.00
H166   H     0.41223   0.27839   0.42793   0.00000  Uiso   1.00
H167   H     0.07471   0.88143   0.56342   0.00000  Uiso   1.00
H168   H     0.04221   0.47571   0.70247   0.00000  Uiso   1.00
H169   H     0.28173   0.15428   0.77421   0.00000  Uiso   1.00
H170   H     0.39669   0.18414   0.71560   0.00000  Uiso   1.00
H171   H     0.23662   0.99587   0.77985   0.00000  Uiso   1.00
H172   H     0.22121   0.27769   0.84579   0.00000  Uiso   1.00
H173   H     0.50941   0.22525   0.62130   0.00000  Uiso   1.00
H174   H     0.17188   0.82829   0.75679   0.00000  Uiso   1.00
H175   H     0.13938   0.42257   0.89583   0.00000  Uiso   1.00
O176   O     0.53439   0.27255   0.48198   0.00000  Uiso   1.00
O177   O     0.09157   0.75177   0.65974   0.00000  Uiso   1.00
O178   O     0.04893   0.53144   0.84216   0.00000  Uiso   1.00
N179   N     0.41933   0.26180   0.48149   0.00000  Uiso   1.00
N180   N     0.10377   0.89067   0.60816   0.00000  Uiso   1.00
N181   N     0.07337   0.44625   0.73816   0.00000  Uiso   1.00
N182   N     0.47161   0.23321   0.58554   0.00000  Uiso   1.00
N183   N     0.15606   0.86208   0.71221   0.00000  Uiso   1.00
N184   N     0.12566   0.41766   0.84221   0.00000  Uiso   1.00
C185   C     0.69424   0.29787   0.39989   0.00000  Uiso   1.00
C186   C     0.76905   0.28840   0.40715   0.00000  Uiso   1.00
C187   C     0.80283   0.26452   0.47122   0.00000  Uiso   1.00
C188   C     0.87127   0.25955   0.46647   0.00000  Uiso   1.00
C189   C     0.98235   0.24211   0.48786   0.00000  Uiso   1.00
C190   C     0.68209   0.39069   0.37225   0.00000  Uiso   1.00
C191   C     0.64274   0.45282   0.40697   0.00000  Uiso   1.00
C192   C     0.63797   0.53395   0.37282   0.00000  Uiso   1.00
C193   C     0.61401   0.67531   0.34000   0.00000  Uiso   1.00
C194   C     0.67372   0.23757   0.33643   0.00000  Uiso   1.00
C195   C     0.62732   0.17095   0.34101   0.00000  Uiso   1.00
C196   C     0.61550   0.12318   0.27671   0.00000  Uiso   1.00
C197   C     0.57853   0.02678   0.18826   0.00000  Uiso   1.00
C198   C     0.75573   0.33149   0.27753   0.00000  Uiso   1.00
C199   C     0.80245   0.30667   0.34069   0.00000  Uiso   1.00
C200   C     0.87086   0.30172   0.33584   0.00000  Uiso   1.00
C201   C     0.90473   0.27784   0.39989   0.00000  Uiso   1.00
C202   C     0.71549   0.40896   0.30579   0.00000  Uiso   1.00
C203   C     0.71077   0.49002   0.27159   0.00000  Uiso   1.00
C204   C     0.67143   0.55225   0.30624   0.00000  Uiso   1.00
C205   C     0.70712   0.25583   0.26996   0.00000  Uiso   1.00
C206   C     0.69536   0.20816   0.20564   0.00000  Uiso   1.00
C207   C     0.64895   0.14148   0.21012   0.00000  Uiso   1.00
H208   H     0.66824   0.28365   0.45164   0.00000  Uiso   1.00
H209   H     0.77696   0.25040   0.52265   0.00000  Uiso   1.00
H210   H     0.61690   0.43866   0.45839   0.00000  Uiso   1.00
H211   H     0.60149   0.15684   0.39246   0.00000  Uiso   1.00
H212   H     0.91223   0.22161   0.57207   0.00000  Uiso   1.00
H213   H     0.57471   0.61857   0.43658   0.00000  Uiso   1.00
H214   H     0.54221   0.02429   0.29753   0.00000  Uiso   1.00
H215   H     0.78173   0.34572   0.22579   0.00000  Uiso   1.00
H216   H     0.89669   0.31586   0.28440   0.00000  Uiso   1.00
H217   H     0.73662   0.50413   0.22015   0.00000  Uiso   1.00
H218   H     0.72121   0.22231   0.15421   0.00000  Uiso   1.00
H219   H     0.00941   0.27475   0.37870   0.00000  Uiso   1.00
H220   H     0.67188   0.67171   0.24321   0.00000  Uiso   1.00
H221   H     0.63938   0.07743   0.10417   0.00000  Uiso   1.00
O222   O     0.03439   0.22745   0.51802   0.00000  Uiso   1.00
O223   O     0.59157   0.74823   0.34026   0.00000  Uiso   1.00
O224   O     0.54893   0.96856   0.15784   0.00000  Uiso   1.00
N225   N     0.91933   0.23820   0.51851   0.00000  Uiso   1.00
N226   N     0.60377   0.60933   0.39184   0.00000  Uiso   1.00
N227   N     0.57337   0.05375   0.26184   0.00000  Uiso   1.00
N228   N     0.97161   0.26679   0.41446   0.00000  Uiso   1.00
N229   N     0.65606   0.63792   0.28779   0.00000  Uiso   1.00
N230   N     0.62566   0.08234   0.15779   0.00000  Uiso   1.00
C231   C     0.19424   0.79787   0.39989   0.00000  Uiso   1.00
C232   C     0.26905   0.78840   0.40715   0.00000  Uiso   1.00
C233   C     0.30283   0.76452   0.47122   0.00000  Uiso   1.00
C234   C     0.37127   0.75955   0.46647   0.00000  Uiso   1.00
C235   C     0.48235   0.74211   0.48786   0.00000  Uiso   1.00
C236   C     0.18209   0.89069   0.37225   0.00000  Uiso   1.00
C237   C     0.14274   0.95282   0.40697   0.00000  Uiso   1.00
C238   C     0.13797   0.03395   0.37282   0.00000  Uiso   1.00
C239   C     0.11401   0.17531   0.34000   0.00000  Uiso   1.00
C240   C     0.17372   0.73757   0.33643   0.00000  Uiso   1.00
C241   C     0.12732   0.67095   0.34101   0.00000  Uiso   1.00
C242   C     0.11550   0.62318   0.27671   0.00000  Uiso   1.00
C243   C     0.07853   0.52678   0.18826   0.00000  Uiso   1.00
C244   C     0.25573   0.83149   0.27753   0.00000  Uiso   1.00
C245   C     0.30245   0.80667   0.34069   0.00000  Uiso   1.00
C246   C     0.37086   0.80172   0.33584   0.00000  Uiso   1.00
C247   C     0.40473   0.77784   0.39989   0.00000  Uiso   1.00
C248   C     0.21549   0.90896   0.30579   0.00000  Uiso   1.00
C249   C     0.21077   0.99002   0.27159   0.00000  Uiso   1.00
C250   C     0.17143   0.05225   0.30624   0.00000  Uiso   1.00
C251   C     0.20712   0.75583   0.26996   0.00000  Uiso   1.00
C252   C     0.19536   0.70816   0.20564   0.00000  Uiso   1.00
C253   C     0.14895   0.64148   0.21012   0.00000  Uiso   1.00
H254   H     0.16824   0.78365   0.45164   0.00000  Uiso   1.00
H255   H     0.27696   0.75040   0.52265   0.00000  Uiso   1.00
H256   H     0.11690   0.93866   0.45839   0.00000  Uiso   1.00
H257   H     0.10149   0.65684   0.39246   0.00000  Uiso   1.00
H258   H     0.41223   0.72161   0.57207   0.00000  Uiso   1.00
H259   H     0.07471   0.11857   0.43658   0.00000  Uiso   1.00
H260   H     0.04221   0.52429   0.29753   0.00000  Uiso   1.00
H261   H     0.28173   0.84572   0.22579   0.00000  Uiso   1.00
H262   H     0.39669   0.81586   0.28440   0.00000  Uiso   1.00
H263   H     0.23662   0.00413   0.22015   0.00000  Uiso   1.00
H264   H     0.22121   0.72231   0.15421   0.00000  Uiso   1.00
H265   H     0.50941   0.77475   0.37870   0.00000  Uiso   1.00
H266   H     0.17188   0.17171   0.24321   0.00000  Uiso   1.00
H267   H     0.13938   0.57743   0.10417   0.00000  Uiso   1.00
O268   O     0.53439   0.72745   0.51802   0.00000  Uiso   1.00
O269   O     0.09157   0.24823   0.34026   0.00000  Uiso   1.00
O270   O     0.04893   0.46856   0.15784   0.00000  Uiso   1.00
N271   N     0.41933   0.73820   0.51851   0.00000  Uiso   1.00
N272   N     0.10377   0.10933   0.39184   0.00000  Uiso   1.00
N273   N     0.07337   0.55375   0.26184   0.00000  Uiso   1.00
N274   N     0.47161   0.76679   0.41446   0.00000  Uiso   1.00
N275   N     0.15606   0.13792   0.28779   0.00000  Uiso   1.00
N276   N     0.12566   0.58234   0.15779   0.00000  Uiso   1.00
C277   C     0.30576   0.70213   0.89989   0.00000  Uiso   1.00
C278   C     0.23095   0.71160   0.90715   0.00000  Uiso   1.00
C279   C     0.19717   0.73548   0.97122   0.00000  Uiso   1.00
C280   C     0.12873   0.74045   0.96647   0.00000  Uiso   1.00
C281   C     0.01765   0.75789   0.98786   0.00000  Uiso   1.00
C282   C     0.31791   0.60931   0.87225   0.00000  Uiso   1.00
C283   C     0.35726   0.54718   0.90697   0.00000  Uiso   1.00
C284   C     0.36203   0.46605   0.87282   0.00000  Uiso   1.00
C285   C     0.38599   0.32469   0.84000   0.00000  Uiso   1.00
C286   C     0.32628   0.76243   0.83643   0.00000  Uiso   1.00
C287   C     0.37268   0.82905   0.84101   0.00000  Uiso   1.00
C288   C     0.38450   0.87682   0.77671   0.00000  Uiso   1.00
C289   C     0.42147   0.97322   0.68826   0.00000  Uiso   1.00
C290   C     0.24427   0.66851   0.77753   0.00000  Uiso   1.00
C291   C     0.19755   0.69333   0.84069   0.00000  Uiso   1.00
C292   C     0.12914   0.69828   0.83584   0.00000  Uiso   1.00
C293   C     0.09527   0.72216   0.89989   0.00000  Uiso   1.00
C294   C     0.28451   0.59104   0.80579   0.00000  Uiso   1.00
C295   C     0.28923   0.50998   0.77159   0.00000  Uiso   1.00
C296   C     0.32857   0.44775   0.80624   0.00000  Uiso   1.00
C297   C     0.29288   0.74417   0.76996   0.00000  Uiso   1.00
C298   C     0.30464   0.79184   0.70564   0.00000  Uiso   1.00
C299   C     0.35105   0.85852   0.71012   0.00000  Uiso   1.00
H300   H     0.33176   0.71635   0.95164   0.00000  Uiso   1.00
H301   H     0.22304   0.74960   0.02265   0.00000  Uiso   1.00
H302   H     0.38310   0.56134   0.95839   0.00000  Uiso   1.00
H303   H     0.39851   0.84316   0.89246   0.00000  Uiso   1.00
H304   H     0.08777   0.77839   0.07207   0.00000  Uiso   1.00
H305   H     0.42529   0.38143   0.93658   0.00000  Uiso   1.00
H306   H     0.45779   0.97571   0.79753   0.00000  Uiso   1.00
H307   H     0.21827   0.65428   0.72579   0.00000  Uiso   1.00
H308   H     0.10331   0.68414   0.78440   0.00000  Uiso   1.00
H309   H     0.26338   0.49587   0.72015   0.00000  Uiso   1.00
H310   H     0.27879   0.77769   0.65421   0.00000  Uiso   1.00
H311   H     0.99059   0.72525   0.87870   0.00000  Uiso   1.00
H312   H     0.32812   0.32829   0.74321   0.00000  Uiso   1.00
H313   H     0.36062   0.92257   0.60417   0.00000  Uiso   1.00
O314   O     0.96561   0.77255   0.01802   0.00000  Uiso   1.00
O315   O     0.40843   0.25177   0.84026   0.00000  Uiso   1.00
O316   O     0.45107   0.03144   0.65784   0.00000  Uiso   1.00
N317   N     0.08067   0.76180   0.01851   0.00000  Uiso   1.00
N318   N     0.39623   0.39067   0.89184   0.00000  Uiso   1.00
N319   N     0.42663   0.94625   0.76184   0.00000  Uiso   1.00
N320   N     0.02839   0.73321   0.91446   0.00000  Uiso   1.00
N321   N     0.34394   0.36208   0.78779   0.00000  Uiso   1.00
N322   N     0.37434   0.91766   0.65779   0.00000  Uiso   1.00
C323   C     0.80576   0.20213   0.89989   0.00000  Uiso   1.00
C324   C     0.73095   0.21160   0.90715   0.00000  Uiso   1.00
C325   C     0.69717   0.23548   0.97122   0.00000  Uiso   1.00
C326   C     0.62873   0.24045   0.96647   0.00000  Uiso   1.00
C327   C     0.51765   0.25789   0.98786   0.00000  Uiso   1.00
C328   C     0.81791   0.10931   0.87225   0.00000  Uiso   1.00
C329   C     0.85726   0.04718   0.90697   0.00000  Uiso   1.00
C330   C     0.86203   0.96605   0.87282   0.00000  Uiso   1.00
C331   C     0.88599   0.82469   0.84000   0.00000  Uiso   1.00
C332   C     0.82628   0.26243   0.83643   0.00000  Uiso   1.00
C333   C     0.87268   0.32905   0.84101   0.00000  Uiso   1.00
C334   C     0.88450   0.37682   0.77671   0.00000  Uiso   1.00
C335   C     0.92147   0.47322   0.68826   0.00000  Uiso   1.00
C336   C     0.74427   0.16851   0.77753   0.00000  Uiso   1.00
C337   C     0.69755   0.19333   0.84069   0.00000  Uiso   1.00
C338   C     0.62914   0.19828   0.83584   0.00000  Uiso   1.00
C339   C     0.59527   0.22216   0.89989   0.00000  Uiso   1.00
C340   C     0.78451   0.09104   0.80579   0.00000  Uiso   1.00
C341   C     0.78923   0.00998   0.77159   0.00000  Uiso   1.00
C342   C     0.82857   0.94775   0.80624   0.00000  Uiso   1.00
C343   C     0.79288   0.24417   0.76996   0.00000  Uiso   1.00
C344   C     0.80464   0.29184   0.70564   0.00000  Uiso   1.00
C345   C     0.85105   0.35852   0.71012   0.00000  Uiso   1.00
H346   H     0.83176   0.21635   0.95164   0.00000  Uiso   1.00
H347   H     0.72304   0.24960   0.02265   0.00000  Uiso   1.00
H348   H     0.88310   0.06134   0.95839   0.00000  Uiso   1.00
H349   H     0.89851   0.34316   0.89246   0.00000  Uiso   1.00
H350   H     0.58777   0.27839   0.07207   0.00000  Uiso   1.00
H351   H     0.92529   0.88143   0.93658   0.00000  Uiso   1.00
H352   H     0.95779   0.47571   0.79753   0.00000  Uiso   1.00
H353   H     0.71827   0.15428   0.72579   0.00000  Uiso   1.00
H354   H     0.60331   0.18414   0.78440   0.00000  Uiso   1.00
H355   H     0.76338   0.99587   0.72015   0.00000  Uiso   1.00
H356   H     0.77879   0.27769   0.65421   0.00000  Uiso   1.00
H357   H     0.49059   0.22525   0.87870   0.00000  Uiso   1.00
H358   H     0.82812   0.82829   0.74321   0.00000  Uiso   1.00
H359   H     0.86062   0.42257   0.60417   0.00000  Uiso   1.00
O360   O     0.46561   0.27255   0.01802   0.00000  Uiso   1.00
O361   O     0.90843   0.75177   0.84026   0.00000  Uiso   1.00
O362   O     0.95107   0.53144   0.65784   0.00000  Uiso   1.00
N363   N     0.58067   0.26180   0.01851   0.00000  Uiso   1.00
N364   N     0.89623   0.89067   0.89184   0.00000  Uiso   1.00
N365   N     0.92663   0.44625   0.76184   0.00000  Uiso   1.00
N366   N     0.52839   0.23321   0.91446   0.00000  Uiso   1.00
N367   N     0.84394   0.86208   0.78779   0.00000  Uiso   1.00
N368   N     0.87434   0.41766   0.65779   0.00000  Uiso   1.00
