data_job_06038
_audit_creation_date              2018-12-19
_audit_creation_method            'Materials Studio'
_symmetry_space_group_name_H-M    'P1'
_symmetry_Int_Tables_number       1
_symmetry_cell_setting            triclinic
loop_
_symmetry_equiv_pos_as_xyz
  x,y,z
_cell_length_a                    7.9348
_cell_length_b                    23.5684
_cell_length_c                    23.5923
_cell_angle_alpha                 61.2070
_cell_angle_beta                  96.6410
_cell_angle_gamma                 83.9573
loop_
_atom_site_label
_atom_site_type_symbol
_atom_site_fract_x
_atom_site_fract_y
_atom_site_fract_z
_atom_site_U_iso_or_equiv
_atom_site_adp_type
_atom_site_occupancy
C1     C     0.34075   0.32934   0.68932   0.00000  Uiso   1.00
C2     C     0.46372   0.30537   0.75431   0.00000  Uiso   1.00
C3     C     0.42989   0.26613   0.81669   0.00000  Uiso   1.00
C4     C     0.55914   0.24954   0.86994   0.00000  Uiso   1.00
C5     C     0.72612   0.20902   0.97220   0.00000  Uiso   1.00
C6     C     0.31868   0.40426   0.65238   0.00000  Uiso   1.00
C7     C     0.16290   0.44816   0.62906   0.00000  Uiso   1.00
C8     C     0.17006   0.51482   0.59650   0.00000  Uiso   1.00
C9     C     0.11185   0.62783   0.54047   0.00000  Uiso   1.00
C10    C     0.43835   0.30603   0.65008   0.00000  Uiso   1.00
C11    C     0.38317   0.26734   0.62480   0.00000  Uiso   1.00
C12    C     0.49106   0.25131   0.59029   0.00000  Uiso   1.00
C13    C     0.61865   0.21179   0.53069   0.00000  Uiso   1.00
C14    C     0.63044   0.36967   0.67297   0.00000  Uiso   1.00
C15    C     0.62107   0.32728   0.74542   0.00000  Uiso   1.00
C16    C     0.75041   0.31074   0.79860   0.00000  Uiso   1.00
C17    C     0.71678   0.27148   0.86105   0.00000  Uiso   1.00
C18    C     0.47603   0.42617   0.64350   0.00000  Uiso   1.00
C19    C     0.48342   0.49278   0.61097   0.00000  Uiso   1.00
C20    C     0.32769   0.53676   0.58760   0.00000  Uiso   1.00
C21    C     0.59571   0.32793   0.64120   0.00000  Uiso   1.00
C22    C     0.70369   0.31195   0.60671   0.00000  Uiso   1.00
C23    C     0.64869   0.27325   0.58140   0.00000  Uiso   1.00
H24    H     0.21824   0.31229   0.69623   0.00000  Uiso   1.00
H25    H     0.30809   0.24919   0.82354   0.00000  Uiso   1.00
H26    H     0.04115   0.43120   0.63593   0.00000  Uiso   1.00
H27    H     0.26139   0.25040   0.63168   0.00000  Uiso   1.00
H28    H     0.47709   0.18892   0.96076   0.00000  Uiso   1.00
H29    H     0.91422   0.57268   0.56516   0.00000  Uiso   1.00
H30    H     0.37863   0.19144   0.55620   0.00000  Uiso   1.00
H31    H     0.75295   0.38672   0.66606   0.00000  Uiso   1.00
H32    H     0.87216   0.32770   0.79171   0.00000  Uiso   1.00
H33    H     0.60521   0.50971   0.60410   0.00000  Uiso   1.00
H34    H     0.82545   0.32891   0.59985   0.00000  Uiso   1.00
H35    H     0.93490   0.25264   0.93493   0.00000  Uiso   1.00
H36    H     0.37202   0.63640   0.53932   0.00000  Uiso   1.00
H37    H     0.83644   0.25516   0.53037   0.00000  Uiso   1.00
O38    O     0.77475   0.18063   0.03105   0.00000  Uiso   1.00
O39    O     0.03627   0.68411   0.51202   0.00000  Uiso   1.00
O40    O     0.64558   0.18393   0.50027   0.00000  Uiso   1.00
N41    N     0.56849   0.21200   0.93744   0.00000  Uiso   1.00
N42    N     0.04224   0.57080   0.56758   0.00000  Uiso   1.00
N43    N     0.47640   0.21439   0.55919   0.00000  Uiso   1.00
N44    N     0.81484   0.24629   0.92354   0.00000  Uiso   1.00
N45    N     0.28858   0.60509   0.55368   0.00000  Uiso   1.00
N46    N     0.72275   0.24867   0.54529   0.00000  Uiso   1.00
C47    C     0.65905   0.98428   0.32740   0.00000  Uiso   1.00
C48    C     0.75732   0.94350   0.30331   0.00000  Uiso   1.00
C49    C     0.68396   0.92021   0.26414   0.00000  Uiso   1.00
C50    C     0.79593   0.88381   0.24742   0.00000  Uiso   1.00
C51    C     0.92130   0.82238   0.20674   0.00000  Uiso   1.00
C52    C     0.71133   0.94634   0.40232   0.00000  Uiso   1.00
C53    C     0.59930   0.92544   0.44638   0.00000  Uiso   1.00
C54    C     0.67256   0.89143   0.51300   0.00000  Uiso   1.00
C55    C     0.72653   0.83444   0.62603   0.00000  Uiso   1.00
C56    C     0.73416   0.04708   0.30397   0.00000  Uiso   1.00
C57    C     0.64133   0.11089   0.26535   0.00000  Uiso   1.00
C58    C     0.73381   0.16171   0.24918   0.00000  Uiso   1.00
C59    C     0.82322   0.26114   0.20950   0.00000  Uiso   1.00
C60    C     0.98835   0.96106   0.36736   0.00000  Uiso   1.00
C61    C     0.93618   0.93089   0.32502   0.00000  Uiso   1.00
C62    C     0.04829   0.89451   0.30835   0.00000  Uiso   1.00
C63    C     0.97511   0.87117   0.26916   0.00000  Uiso   1.00
C64    C     0.89019   0.93372   0.42403   0.00000  Uiso   1.00
C65    C     0.96363   0.89974   0.49060   0.00000  Uiso   1.00
C66    C     0.85175   0.87879   0.53475   0.00000  Uiso   1.00
C67    C     0.91303   0.03447   0.32567   0.00000  Uiso   1.00
C68    C     0.00566   0.08519   0.30956   0.00000  Uiso   1.00
C69    C     0.91299   0.14907   0.27092   0.00000  Uiso   1.00
H70    H     0.51980   0.99410   0.31051   0.00000  Uiso   1.00
H71    H     0.54553   0.92998   0.24736   0.00000  Uiso   1.00
H72    H     0.46089   0.93521   0.42957   0.00000  Uiso   1.00
H73    H     0.50292   0.12064   0.24856   0.00000  Uiso   1.00
H74    H     0.65294   0.85330   0.18694   0.00000  Uiso   1.00
H75    H     0.47446   0.86436   0.57114   0.00000  Uiso   1.00
H76    H     0.56307   0.25536   0.18945   0.00000  Uiso   1.00
H77    H     0.12761   0.95123   0.38427   0.00000  Uiso   1.00
H78    H     0.18670   0.88476   0.32516   0.00000  Uiso   1.00
H79    H     0.10205   0.88999   0.50737   0.00000  Uiso   1.00
H80    H     0.14408   0.07541   0.32637   0.00000  Uiso   1.00
H81    H     0.17334   0.81659   0.25009   0.00000  Uiso   1.00
H82    H     0.99485   0.82765   0.63429   0.00000  Uiso   1.00
H83    H     0.08347   0.21865   0.25260   0.00000  Uiso   1.00
O84    O     0.94104   0.79197   0.17832   0.00000  Uiso   1.00
O85    O     0.70688   0.80649   0.68238   0.00000  Uiso   1.00
O86    O     0.82314   0.31947   0.18161   0.00000  Uiso   1.00
N87    N     0.76731   0.85380   0.20990   0.00000  Uiso   1.00
N88    N     0.60044   0.86412   0.56911   0.00000  Uiso   1.00
N89    N     0.68328   0.22968   0.21228   0.00000  Uiso   1.00
N90    N     0.04733   0.83405   0.24388   0.00000  Uiso   1.00
N91    N     0.88046   0.84437   0.60309   0.00000  Uiso   1.00
N92    N     0.96330   0.20993   0.24625   0.00000  Uiso   1.00
C93    C     0.64104   0.69047   0.98333   0.00000  Uiso   1.00
C94    C     0.69940   0.75556   0.94244   0.00000  Uiso   1.00
C95    C     0.60377   0.81785   0.91923   0.00000  Uiso   1.00
C96    C     0.68001   0.87123   0.88270   0.00000  Uiso   1.00
C97    C     0.74535   0.97361   0.82112   0.00000  Uiso   1.00
C98    C     0.65479   0.65355   0.94536   0.00000  Uiso   1.00
C99    C     0.52166   0.63006   0.92462   0.00000  Uiso   1.00
C100   C     0.56037   0.59756   0.89055   0.00000  Uiso   1.00
C101   C     0.55649   0.54153   0.83355   0.00000  Uiso   1.00
C102   C     0.77825   0.65136   0.04602   0.00000  Uiso   1.00
C103   C     0.74893   0.62602   0.10991   0.00000  Uiso   1.00
C104   C     0.89157   0.59166   0.16059   0.00000  Uiso   1.00
C105   C     0.07938   0.53223   0.25988   0.00000  Uiso   1.00
C106   C     0.94649   0.67449   0.95973   0.00000  Uiso   1.00
C107   C     0.86531   0.74688   0.92962   0.00000  Uiso   1.00
C108   C     0.94172   0.80017   0.89312   0.00000  Uiso   1.00
C109   C     0.84622   0.86253   0.86985   0.00000  Uiso   1.00
C110   C     0.82069   0.64487   0.93254   0.00000  Uiso   1.00
C111   C     0.85961   0.61239   0.89850   0.00000  Uiso   1.00
C112   C     0.72657   0.58886   0.87771   0.00000  Uiso   1.00
C113   C     0.94416   0.64268   0.03320   0.00000  Uiso   1.00
C114   C     0.08687   0.60835   0.08379   0.00000  Uiso   1.00
C115   C     0.05778   0.58296   0.14775   0.00000  Uiso   1.00
H116   H     0.51188   0.69723   0.99331   0.00000  Uiso   1.00
H117   H     0.47538   0.82455   0.92915   0.00000  Uiso   1.00
H118   H     0.39329   0.63678   0.93455   0.00000  Uiso   1.00
H119   H     0.62052   0.63275   0.11981   0.00000  Uiso   1.00
H120   H     0.50805   0.96188   0.85235   0.00000  Uiso   1.00
H121   H     0.33499   0.56595   0.86374   0.00000  Uiso   1.00
H122   H     0.81414   0.55743   0.25441   0.00000  Uiso   1.00
H123   H     0.07566   0.66773   0.94975   0.00000  Uiso   1.00
H124   H     0.07011   0.79344   0.88320   0.00000  Uiso   1.00
H125   H     0.98801   0.60567   0.88859   0.00000  Uiso   1.00
H126   H     0.21524   0.60164   0.07386   0.00000  Uiso   1.00
H127   H     0.99075   0.93663   0.81505   0.00000  Uiso   1.00
H128   H     0.81768   0.54070   0.82644   0.00000  Uiso   1.00
H129   H     0.29684   0.53218   0.21711   0.00000  Uiso   1.00
O130   O     0.73555   0.03248   0.79069   0.00000  Uiso   1.00
O131   O     0.50850   0.51303   0.80565   0.00000  Uiso   1.00
O132   O     0.13714   0.50186   0.31819   0.00000  Uiso   1.00
N133   N     0.62243   0.93868   0.85272   0.00000  Uiso   1.00
N134   N     0.46062   0.56852   0.86336   0.00000  Uiso   1.00
N135   N     0.90858   0.56055   0.22860   0.00000  Uiso   1.00
N136   N     0.88217   0.92510   0.83265   0.00000  Uiso   1.00
N137   N     0.72035   0.55494   0.84329   0.00000  Uiso   1.00
N138   N     0.16832   0.54696   0.20853   0.00000  Uiso   1.00
C139   C     0.65925   0.67066   0.31068   0.00000  Uiso   1.00
C140   C     0.53628   0.69463   0.24569   0.00000  Uiso   1.00
C141   C     0.57011   0.73387   0.18331   0.00000  Uiso   1.00
C142   C     0.44087   0.75046   0.13006   0.00000  Uiso   1.00
C143   C     0.27388   0.79098   0.02780   0.00000  Uiso   1.00
C144   C     0.68132   0.59574   0.34762   0.00000  Uiso   1.00
C145   C     0.83710   0.55184   0.37094   0.00000  Uiso   1.00
C146   C     0.82995   0.48518   0.40350   0.00000  Uiso   1.00
C147   C     0.88815   0.37217   0.45953   0.00000  Uiso   1.00
C148   C     0.56165   0.69397   0.34992   0.00000  Uiso   1.00
C149   C     0.61683   0.73266   0.37520   0.00000  Uiso   1.00
C150   C     0.50894   0.74870   0.40971   0.00000  Uiso   1.00
C151   C     0.38135   0.78821   0.46931   0.00000  Uiso   1.00
C152   C     0.36956   0.63033   0.32703   0.00000  Uiso   1.00
C153   C     0.37893   0.67272   0.25458   0.00000  Uiso   1.00
C154   C     0.24959   0.68926   0.20140   0.00000  Uiso   1.00
C155   C     0.28322   0.72852   0.13895   0.00000  Uiso   1.00
C156   C     0.52397   0.57383   0.35650   0.00000  Uiso   1.00
C157   C     0.51658   0.50722   0.38903   0.00000  Uiso   1.00
C158   C     0.67231   0.46324   0.41240   0.00000  Uiso   1.00
C159   C     0.40429   0.67207   0.35880   0.00000  Uiso   1.00
C160   C     0.29631   0.68805   0.39329   0.00000  Uiso   1.00
C161   C     0.35131   0.72675   0.41860   0.00000  Uiso   1.00
H162   H     0.78176   0.68771   0.30377   0.00000  Uiso   1.00
H163   H     0.69191   0.75081   0.17646   0.00000  Uiso   1.00
H164   H     0.95885   0.56880   0.36407   0.00000  Uiso   1.00
H165   H     0.73861   0.74960   0.36832   0.00000  Uiso   1.00
H166   H     0.52291   0.81109   0.03923   0.00000  Uiso   1.00
H167   H     0.08578   0.42732   0.43484   0.00000  Uiso   1.00
H168   H     0.62137   0.80856   0.44380   0.00000  Uiso   1.00
H169   H     0.24705   0.61328   0.33394   0.00000  Uiso   1.00
H170   H     0.12784   0.67230   0.20829   0.00000  Uiso   1.00
H171   H     0.39479   0.49029   0.39590   0.00000  Uiso   1.00
H172   H     0.17455   0.67109   0.40015   0.00000  Uiso   1.00
H173   H     0.06510   0.74736   0.06507   0.00000  Uiso   1.00
H174   H     0.62798   0.36360   0.46068   0.00000  Uiso   1.00
H175   H     0.16356   0.74484   0.46963   0.00000  Uiso   1.00
O176   O     0.22525   0.81937   0.96895   0.00000  Uiso   1.00
O177   O     0.96373   0.31589   0.48797   0.00000  Uiso   1.00
O178   O     0.35442   0.81607   0.49973   0.00000  Uiso   1.00
N179   N     0.43151   0.78800   0.06256   0.00000  Uiso   1.00
N180   N     0.95777   0.42920   0.43242   0.00000  Uiso   1.00
N181   N     0.52360   0.78561   0.44081   0.00000  Uiso   1.00
N182   N     0.18516   0.75371   0.07646   0.00000  Uiso   1.00
N183   N     0.71142   0.39491   0.44632   0.00000  Uiso   1.00
N184   N     0.27725   0.75133   0.45471   0.00000  Uiso   1.00
C185   C     0.34095   0.01572   0.67260   0.00000  Uiso   1.00
C186   C     0.24268   0.05650   0.69668   0.00000  Uiso   1.00
C187   C     0.31604   0.07979   0.73586   0.00000  Uiso   1.00
C188   C     0.20407   0.11619   0.75258   0.00000  Uiso   1.00
C189   C     0.07870   0.17762   0.79325   0.00000  Uiso   1.00
C190   C     0.28867   0.05366   0.59768   0.00000  Uiso   1.00
C191   C     0.40070   0.07456   0.55362   0.00000  Uiso   1.00
C192   C     0.32744   0.10857   0.48700   0.00000  Uiso   1.00
C193   C     0.27347   0.16556   0.37397   0.00000  Uiso   1.00
C194   C     0.26584   0.95292   0.69603   0.00000  Uiso   1.00
C195   C     0.35867   0.88911   0.73465   0.00000  Uiso   1.00
C196   C     0.26619   0.83829   0.75082   0.00000  Uiso   1.00
C197   C     0.17678   0.73886   0.79050   0.00000  Uiso   1.00
C198   C     0.01165   0.03895   0.63263   0.00000  Uiso   1.00
C199   C     0.06382   0.06911   0.67498   0.00000  Uiso   1.00
C200   C     0.95171   0.10549   0.69164   0.00000  Uiso   1.00
C201   C     0.02489   0.12883   0.73084   0.00000  Uiso   1.00
C202   C     0.10981   0.06628   0.57597   0.00000  Uiso   1.00
C203   C     0.03637   0.10026   0.50940   0.00000  Uiso   1.00
C204   C     0.14825   0.12121   0.46525   0.00000  Uiso   1.00
C205   C     0.08697   0.96553   0.67433   0.00000  Uiso   1.00
C206   C     0.99434   0.91481   0.69044   0.00000  Uiso   1.00
C207   C     0.08701   0.85093   0.72907   0.00000  Uiso   1.00
H208   H     0.48020   0.00590   0.68949   0.00000  Uiso   1.00
H209   H     0.45447   0.07002   0.75264   0.00000  Uiso   1.00
H210   H     0.53911   0.06479   0.57043   0.00000  Uiso   1.00
H211   H     0.49709   0.87937   0.75144   0.00000  Uiso   1.00
H212   H     0.34706   0.14670   0.81306   0.00000  Uiso   1.00
H213   H     0.52554   0.13564   0.42886   0.00000  Uiso   1.00
H214   H     0.43693   0.74464   0.81055   0.00000  Uiso   1.00
H215   H     0.87239   0.04877   0.61573   0.00000  Uiso   1.00
H216   H     0.81330   0.11524   0.67484   0.00000  Uiso   1.00
H217   H     0.89795   0.11001   0.49263   0.00000  Uiso   1.00
H218   H     0.85592   0.92459   0.67363   0.00000  Uiso   1.00
H219   H     0.82666   0.18341   0.74991   0.00000  Uiso   1.00
H220   H     0.00515   0.17235   0.36571   0.00000  Uiso   1.00
H221   H     0.91653   0.78135   0.74740   0.00000  Uiso   1.00
O222   O     0.05896   0.20803   0.82168   0.00000  Uiso   1.00
O223   O     0.29312   0.19351   0.31762   0.00000  Uiso   1.00
O224   O     0.17686   0.68053   0.81839   0.00000  Uiso   1.00
N225   N     0.23269   0.14620   0.79010   0.00000  Uiso   1.00
N226   N     0.39956   0.13588   0.43089   0.00000  Uiso   1.00
N227   N     0.31672   0.77032   0.78772   0.00000  Uiso   1.00
N228   N     0.95267   0.16595   0.75612   0.00000  Uiso   1.00
N229   N     0.11954   0.15563   0.39691   0.00000  Uiso   1.00
N230   N     0.03670   0.79007   0.75374   0.00000  Uiso   1.00
C231   C     0.35896   0.30953   0.01667   0.00000  Uiso   1.00
C232   C     0.30060   0.24444   0.05756   0.00000  Uiso   1.00
C233   C     0.39623   0.18215   0.08077   0.00000  Uiso   1.00
C234   C     0.31999   0.12877   0.11730   0.00000  Uiso   1.00
C235   C     0.25465   0.02639   0.17888   0.00000  Uiso   1.00
C236   C     0.34521   0.34645   0.05464   0.00000  Uiso   1.00
C237   C     0.47834   0.36994   0.07538   0.00000  Uiso   1.00
C238   C     0.43963   0.40244   0.10945   0.00000  Uiso   1.00
C239   C     0.44351   0.45847   0.16645   0.00000  Uiso   1.00
C240   C     0.22175   0.34864   0.95398   0.00000  Uiso   1.00
C241   C     0.25107   0.37398   0.89009   0.00000  Uiso   1.00
C242   C     0.10843   0.40834   0.83941   0.00000  Uiso   1.00
C243   C     0.92063   0.46777   0.74012   0.00000  Uiso   1.00
C244   C     0.05351   0.32551   0.04027   0.00000  Uiso   1.00
C245   C     0.13470   0.25313   0.07038   0.00000  Uiso   1.00
C246   C     0.05828   0.19983   0.10688   0.00000  Uiso   1.00
C247   C     0.15378   0.13747   0.13014   0.00000  Uiso   1.00
C248   C     0.17931   0.35513   0.06746   0.00000  Uiso   1.00
C249   C     0.14039   0.38762   0.10150   0.00000  Uiso   1.00
C250   C     0.27343   0.41114   0.12229   0.00000  Uiso   1.00
C251   C     0.05584   0.35732   0.96680   0.00000  Uiso   1.00
C252   C     0.91313   0.39165   0.91621   0.00000  Uiso   1.00
C253   C     0.94222   0.41704   0.85225   0.00000  Uiso   1.00
H254   H     0.48812   0.30277   0.00669   0.00000  Uiso   1.00
H255   H     0.52462   0.17545   0.07085   0.00000  Uiso   1.00
H256   H     0.60671   0.36322   0.06545   0.00000  Uiso   1.00
H257   H     0.37948   0.36725   0.88019   0.00000  Uiso   1.00
H258   H     0.49195   0.03812   0.14765   0.00000  Uiso   1.00
H259   H     0.66501   0.43405   0.13626   0.00000  Uiso   1.00
H260   H     0.18586   0.44257   0.74559   0.00000  Uiso   1.00
H261   H     0.92434   0.33227   0.05025   0.00000  Uiso   1.00
H262   H     0.92989   0.20656   0.11680   0.00000  Uiso   1.00
H263   H     0.01199   0.39433   0.11141   0.00000  Uiso   1.00
H264   H     0.78476   0.39836   0.92614   0.00000  Uiso   1.00
H265   H     0.00925   0.06337   0.18495   0.00000  Uiso   1.00
H266   H     0.18232   0.45930   0.17355   0.00000  Uiso   1.00
H267   H     0.70316   0.46782   0.78289   0.00000  Uiso   1.00
O268   O     0.26445   0.96752   0.20931   0.00000  Uiso   1.00
O269   O     0.49150   0.48698   0.19435   0.00000  Uiso   1.00
O270   O     0.86286   0.49814   0.68181   0.00000  Uiso   1.00
N271   N     0.37757   0.06132   0.14728   0.00000  Uiso   1.00
N272   N     0.53938   0.43148   0.13664   0.00000  Uiso   1.00
N273   N     0.09142   0.43945   0.77140   0.00000  Uiso   1.00
N274   N     0.11783   0.07490   0.16735   0.00000  Uiso   1.00
N275   N     0.27965   0.44506   0.15671   0.00000  Uiso   1.00
N276   N     0.83168   0.45304   0.79147   0.00000  Uiso   1.00
