data_job_02915
_audit_creation_date              2018-12-19
_audit_creation_method            'Materials Studio'
_symmetry_space_group_name_H-M    'P1'
_symmetry_Int_Tables_number       1
_symmetry_cell_setting            triclinic
loop_
_symmetry_equiv_pos_as_xyz
  x,y,z
_cell_length_a                    23.1237
_cell_length_b                    23.1237
_cell_length_c                    9.8926
_cell_angle_alpha                 90.0000
_cell_angle_beta                  90.0000
_cell_angle_gamma                 90.0000
loop_
_atom_site_label
_atom_site_type_symbol
_atom_site_fract_x
_atom_site_fract_y
_atom_site_fract_z
_atom_site_U_iso_or_equiv
_atom_site_adp_type
_atom_site_occupancy
C1     C     0.94835   0.73244   0.95962   0.00000  Uiso   1.00
C2     C     0.94459   0.77651   0.07397   0.00000  Uiso   1.00
C3     C     0.90641   0.82272   0.08025   0.00000  Uiso   1.00
C4     C     0.90982   0.85811   0.19335   0.00000  Uiso   1.00
C5     C     0.89789   0.92814   0.35520   0.00000  Uiso   1.00
C6     C     0.01071   0.73426   0.90960   0.00000  Uiso   1.00
C7     C     0.02810   0.74495   0.77767   0.00000  Uiso   1.00
C8     C     0.08716   0.74476   0.75241   0.00000  Uiso   1.00
C9     C     0.17787   0.74916   0.65905   0.00000  Uiso   1.00
C10    C     0.94045   0.67331   0.02528   0.00000  Uiso   1.00
C11    C     0.89879   0.63274   0.99060   0.00000  Uiso   1.00
C12    C     0.89871   0.58122   0.06272   0.00000  Uiso   1.00
C13    C     0.88034   0.49099   0.14898   0.00000  Uiso   1.00
C14    C     0.02232   0.71309   0.14932   0.00000  Uiso   1.00
C15    C     0.98477   0.76600   0.17701   0.00000  Uiso   1.00
C16    C     0.98824   0.80132   0.29014   0.00000  Uiso   1.00
C17    C     0.95006   0.84758   0.29658   0.00000  Uiso   1.00
C18    C     0.05088   0.72375   0.01263   0.00000  Uiso   1.00
C19    C     0.10993   0.72354   0.98756   0.00000  Uiso   1.00
C20    C     0.12741   0.73423   0.85563   0.00000  Uiso   1.00
C21    C     0.98063   0.66280   0.12833   0.00000  Uiso   1.00
C22    C     0.98062   0.61133   0.20050   0.00000  Uiso   1.00
C23    C     0.93896   0.57070   0.16594   0.00000  Uiso   1.00
H24    H     0.91708   0.74063   0.87939   0.00000  Uiso   1.00
H25    H     0.87532   0.83085   0.00048   0.00000  Uiso   1.00
H26    H     0.99700   0.75307   0.69795   0.00000  Uiso   1.00
H27    H     0.86770   0.64089   0.91086   0.00000  Uiso   1.00
H28    H     0.84676   0.92625   0.18014   0.00000  Uiso   1.00
H29    H     0.10332   0.76224   0.54223   0.00000  Uiso   1.00
H30    H     0.83068   0.52567   0.99118   0.00000  Uiso   1.00
H31    H     0.05360   0.70491   0.22955   0.00000  Uiso   1.00
H32    H     0.01934   0.79317   0.36986   0.00000  Uiso   1.00
H33    H     0.14101   0.71540   0.06732   0.00000  Uiso   1.00
H34    H     0.01172   0.60321   0.28023   0.00000  Uiso   1.00
H35    H     0.96365   0.89568   0.47995   0.00000  Uiso   1.00
H36    H     0.22020   0.73167   0.84203   0.00000  Uiso   1.00
H37    H     0.94756   0.49510   0.29099   0.00000  Uiso   1.00
O38    O     0.88022   0.96968   0.41600   0.00000  Uiso   1.00
O39    O     0.21680   0.75450   0.57909   0.00000  Uiso   1.00
O40    O     0.85910   0.44413   0.16811   0.00000  Uiso   1.00
N41    N     0.87897   0.90694   0.23146   0.00000  Uiso   1.00
N42    N     0.11883   0.75361   0.63505   0.00000  Uiso   1.00
N43    N     0.86394   0.53243   0.05476   0.00000  Uiso   1.00
N44    N     0.94186   0.89048   0.39278   0.00000  Uiso   1.00
N45    N     0.18172   0.73716   0.79638   0.00000  Uiso   1.00
N46    N     0.92684   0.51597   0.21608   0.00000  Uiso   1.00
C47    C     0.05165   0.26756   0.95962   0.00000  Uiso   1.00
C48    C     0.05541   0.22349   0.07397   0.00000  Uiso   1.00
C49    C     0.09359   0.17728   0.08025   0.00000  Uiso   1.00
C50    C     0.09018   0.14189   0.19335   0.00000  Uiso   1.00
C51    C     0.10211   0.07186   0.35520   0.00000  Uiso   1.00
C52    C     0.98929   0.26574   0.90960   0.00000  Uiso   1.00
C53    C     0.97190   0.25505   0.77767   0.00000  Uiso   1.00
C54    C     0.91284   0.25524   0.75241   0.00000  Uiso   1.00
C55    C     0.82213   0.25084   0.65905   0.00000  Uiso   1.00
C56    C     0.05955   0.32669   0.02528   0.00000  Uiso   1.00
C57    C     0.10121   0.36726   0.99060   0.00000  Uiso   1.00
C58    C     0.10129   0.41878   0.06272   0.00000  Uiso   1.00
C59    C     0.11966   0.50901   0.14898   0.00000  Uiso   1.00
C60    C     0.97768   0.28691   0.14932   0.00000  Uiso   1.00
C61    C     0.01523   0.23400   0.17701   0.00000  Uiso   1.00
C62    C     0.01176   0.19868   0.29014   0.00000  Uiso   1.00
C63    C     0.04994   0.15242   0.29658   0.00000  Uiso   1.00
C64    C     0.94912   0.27625   0.01263   0.00000  Uiso   1.00
C65    C     0.89007   0.27646   0.98756   0.00000  Uiso   1.00
C66    C     0.87259   0.26577   0.85563   0.00000  Uiso   1.00
C67    C     0.01937   0.33720   0.12833   0.00000  Uiso   1.00
C68    C     0.01938   0.38867   0.20050   0.00000  Uiso   1.00
C69    C     0.06104   0.42930   0.16594   0.00000  Uiso   1.00
H70    H     0.08292   0.25937   0.87939   0.00000  Uiso   1.00
H71    H     0.12468   0.16915   0.00048   0.00000  Uiso   1.00
H72    H     0.00300   0.24693   0.69795   0.00000  Uiso   1.00
H73    H     0.13230   0.35911   0.91086   0.00000  Uiso   1.00
H74    H     0.15324   0.07375   0.18014   0.00000  Uiso   1.00
H75    H     0.89668   0.23776   0.54223   0.00000  Uiso   1.00
H76    H     0.16932   0.47433   0.99118   0.00000  Uiso   1.00
H77    H     0.94640   0.29509   0.22955   0.00000  Uiso   1.00
H78    H     0.98066   0.20683   0.36986   0.00000  Uiso   1.00
H79    H     0.85899   0.28460   0.06732   0.00000  Uiso   1.00
H80    H     0.98828   0.39679   0.28023   0.00000  Uiso   1.00
H81    H     0.03635   0.10432   0.47995   0.00000  Uiso   1.00
H82    H     0.77980   0.26833   0.84203   0.00000  Uiso   1.00
H83    H     0.05244   0.50490   0.29099   0.00000  Uiso   1.00
O84    O     0.11978   0.03032   0.41600   0.00000  Uiso   1.00
O85    O     0.78320   0.24550   0.57909   0.00000  Uiso   1.00
O86    O     0.14090   0.55587   0.16811   0.00000  Uiso   1.00
N87    N     0.12103   0.09306   0.23146   0.00000  Uiso   1.00
N88    N     0.88117   0.24639   0.63505   0.00000  Uiso   1.00
N89    N     0.13606   0.46757   0.05476   0.00000  Uiso   1.00
N90    N     0.05814   0.10952   0.39278   0.00000  Uiso   1.00
N91    N     0.81828   0.26284   0.79638   0.00000  Uiso   1.00
N92    N     0.07316   0.48403   0.21608   0.00000  Uiso   1.00
C93    C     0.76756   0.44835   0.45962   0.00000  Uiso   1.00
C94    C     0.72349   0.44459   0.57397   0.00000  Uiso   1.00
C95    C     0.67728   0.40641   0.58025   0.00000  Uiso   1.00
C96    C     0.64189   0.40982   0.69335   0.00000  Uiso   1.00
C97    C     0.57186   0.39789   0.85520   0.00000  Uiso   1.00
C98    C     0.76574   0.51071   0.40960   0.00000  Uiso   1.00
C99    C     0.75505   0.52810   0.27767   0.00000  Uiso   1.00
C100   C     0.75524   0.58716   0.25241   0.00000  Uiso   1.00
C101   C     0.75084   0.67787   0.15905   0.00000  Uiso   1.00
C102   C     0.82669   0.44045   0.52528   0.00000  Uiso   1.00
C103   C     0.86726   0.39879   0.49060   0.00000  Uiso   1.00
C104   C     0.91878   0.39871   0.56272   0.00000  Uiso   1.00
C105   C     0.00901   0.38034   0.64898   0.00000  Uiso   1.00
C106   C     0.78691   0.52232   0.64932   0.00000  Uiso   1.00
C107   C     0.73400   0.48477   0.67701   0.00000  Uiso   1.00
C108   C     0.69868   0.48824   0.79014   0.00000  Uiso   1.00
C109   C     0.65242   0.45006   0.79658   0.00000  Uiso   1.00
C110   C     0.77625   0.55088   0.51263   0.00000  Uiso   1.00
C111   C     0.77646   0.60993   0.48756   0.00000  Uiso   1.00
C112   C     0.76577   0.62741   0.35563   0.00000  Uiso   1.00
C113   C     0.83720   0.48063   0.62833   0.00000  Uiso   1.00
C114   C     0.88867   0.48062   0.70050   0.00000  Uiso   1.00
C115   C     0.92930   0.43896   0.66594   0.00000  Uiso   1.00
H116   H     0.75937   0.41708   0.37939   0.00000  Uiso   1.00
H117   H     0.66915   0.37532   0.50048   0.00000  Uiso   1.00
H118   H     0.74693   0.49700   0.19795   0.00000  Uiso   1.00
H119   H     0.85911   0.36770   0.41086   0.00000  Uiso   1.00
H120   H     0.57375   0.34676   0.68014   0.00000  Uiso   1.00
H121   H     0.73776   0.60332   0.04223   0.00000  Uiso   1.00
H122   H     0.97433   0.33068   0.49118   0.00000  Uiso   1.00
H123   H     0.79509   0.55360   0.72955   0.00000  Uiso   1.00
H124   H     0.70683   0.51934   0.86986   0.00000  Uiso   1.00
H125   H     0.78460   0.64101   0.56732   0.00000  Uiso   1.00
H126   H     0.89679   0.51172   0.78023   0.00000  Uiso   1.00
H127   H     0.60432   0.46365   0.97995   0.00000  Uiso   1.00
H128   H     0.76833   0.72020   0.34203   0.00000  Uiso   1.00
H129   H     0.00490   0.44756   0.79099   0.00000  Uiso   1.00
O130   O     0.53032   0.38022   0.91600   0.00000  Uiso   1.00
O131   O     0.74550   0.71680   0.07909   0.00000  Uiso   1.00
O132   O     0.05587   0.35910   0.66811   0.00000  Uiso   1.00
N133   N     0.59306   0.37897   0.73146   0.00000  Uiso   1.00
N134   N     0.74639   0.61883   0.13505   0.00000  Uiso   1.00
N135   N     0.96757   0.36394   0.55476   0.00000  Uiso   1.00
N136   N     0.60952   0.44186   0.89278   0.00000  Uiso   1.00
N137   N     0.76284   0.68172   0.29638   0.00000  Uiso   1.00
N138   N     0.98403   0.42684   0.71608   0.00000  Uiso   1.00
C139   C     0.23244   0.55165   0.45962   0.00000  Uiso   1.00
C140   C     0.27651   0.55541   0.57397   0.00000  Uiso   1.00
C141   C     0.32272   0.59359   0.58025   0.00000  Uiso   1.00
C142   C     0.35811   0.59018   0.69335   0.00000  Uiso   1.00
C143   C     0.42814   0.60211   0.85520   0.00000  Uiso   1.00
C144   C     0.23426   0.48929   0.40960   0.00000  Uiso   1.00
C145   C     0.24495   0.47190   0.27767   0.00000  Uiso   1.00
C146   C     0.24476   0.41284   0.25241   0.00000  Uiso   1.00
C147   C     0.24916   0.32213   0.15905   0.00000  Uiso   1.00
C148   C     0.17331   0.55955   0.52528   0.00000  Uiso   1.00
C149   C     0.13274   0.60121   0.49060   0.00000  Uiso   1.00
C150   C     0.08122   0.60129   0.56272   0.00000  Uiso   1.00
C151   C     0.99099   0.61966   0.64898   0.00000  Uiso   1.00
C152   C     0.21309   0.47768   0.64932   0.00000  Uiso   1.00
C153   C     0.26600   0.51523   0.67701   0.00000  Uiso   1.00
C154   C     0.30132   0.51176   0.79014   0.00000  Uiso   1.00
C155   C     0.34758   0.54994   0.79658   0.00000  Uiso   1.00
C156   C     0.22375   0.44912   0.51263   0.00000  Uiso   1.00
C157   C     0.22354   0.39007   0.48756   0.00000  Uiso   1.00
C158   C     0.23423   0.37259   0.35563   0.00000  Uiso   1.00
C159   C     0.16280   0.51937   0.62833   0.00000  Uiso   1.00
C160   C     0.11133   0.51938   0.70050   0.00000  Uiso   1.00
C161   C     0.07070   0.56104   0.66594   0.00000  Uiso   1.00
H162   H     0.24063   0.58292   0.37939   0.00000  Uiso   1.00
H163   H     0.33085   0.62468   0.50048   0.00000  Uiso   1.00
H164   H     0.25307   0.50300   0.19795   0.00000  Uiso   1.00
H165   H     0.14089   0.63230   0.41086   0.00000  Uiso   1.00
H166   H     0.42625   0.65324   0.68014   0.00000  Uiso   1.00
H167   H     0.26224   0.39668   0.04223   0.00000  Uiso   1.00
H168   H     0.02567   0.66932   0.49118   0.00000  Uiso   1.00
H169   H     0.20491   0.44640   0.72955   0.00000  Uiso   1.00
H170   H     0.29317   0.48066   0.86986   0.00000  Uiso   1.00
H171   H     0.21540   0.35899   0.56732   0.00000  Uiso   1.00
H172   H     0.10321   0.48828   0.78023   0.00000  Uiso   1.00
H173   H     0.39568   0.53635   0.97995   0.00000  Uiso   1.00
H174   H     0.23167   0.27980   0.34203   0.00000  Uiso   1.00
H175   H     0.99510   0.55244   0.79099   0.00000  Uiso   1.00
O176   O     0.46968   0.61978   0.91600   0.00000  Uiso   1.00
O177   O     0.25450   0.28320   0.07909   0.00000  Uiso   1.00
O178   O     0.94413   0.64090   0.66811   0.00000  Uiso   1.00
N179   N     0.40694   0.62103   0.73146   0.00000  Uiso   1.00
N180   N     0.25361   0.38117   0.13505   0.00000  Uiso   1.00
N181   N     0.03243   0.63606   0.55476   0.00000  Uiso   1.00
N182   N     0.39048   0.55814   0.89278   0.00000  Uiso   1.00
N183   N     0.23716   0.31828   0.29638   0.00000  Uiso   1.00
N184   N     0.01597   0.57316   0.71608   0.00000  Uiso   1.00
C185   C     0.55165   0.76756   0.54038   0.00000  Uiso   1.00
C186   C     0.55541   0.72349   0.42603   0.00000  Uiso   1.00
C187   C     0.59359   0.67728   0.41975   0.00000  Uiso   1.00
C188   C     0.59018   0.64189   0.30665   0.00000  Uiso   1.00
C189   C     0.60211   0.57186   0.14480   0.00000  Uiso   1.00
C190   C     0.48929   0.76574   0.59040   0.00000  Uiso   1.00
C191   C     0.47190   0.75505   0.72233   0.00000  Uiso   1.00
C192   C     0.41284   0.75524   0.74759   0.00000  Uiso   1.00
C193   C     0.32213   0.75084   0.84095   0.00000  Uiso   1.00
C194   C     0.55955   0.82669   0.47472   0.00000  Uiso   1.00
C195   C     0.60121   0.86726   0.50940   0.00000  Uiso   1.00
C196   C     0.60129   0.91878   0.43728   0.00000  Uiso   1.00
C197   C     0.61966   0.00901   0.35102   0.00000  Uiso   1.00
C198   C     0.47768   0.78691   0.35068   0.00000  Uiso   1.00
C199   C     0.51523   0.73400   0.32299   0.00000  Uiso   1.00
C200   C     0.51176   0.69868   0.20986   0.00000  Uiso   1.00
C201   C     0.54994   0.65242   0.20342   0.00000  Uiso   1.00
C202   C     0.44912   0.77625   0.48737   0.00000  Uiso   1.00
C203   C     0.39007   0.77646   0.51244   0.00000  Uiso   1.00
C204   C     0.37259   0.76577   0.64437   0.00000  Uiso   1.00
C205   C     0.51937   0.83720   0.37167   0.00000  Uiso   1.00
C206   C     0.51938   0.88867   0.29950   0.00000  Uiso   1.00
C207   C     0.56104   0.92930   0.33406   0.00000  Uiso   1.00
H208   H     0.58292   0.75937   0.62061   0.00000  Uiso   1.00
H209   H     0.62468   0.66915   0.49952   0.00000  Uiso   1.00
H210   H     0.50300   0.74693   0.80205   0.00000  Uiso   1.00
H211   H     0.63230   0.85911   0.58914   0.00000  Uiso   1.00
H212   H     0.65324   0.57375   0.31986   0.00000  Uiso   1.00
H213   H     0.39668   0.73776   0.95777   0.00000  Uiso   1.00
H214   H     0.66932   0.97433   0.50882   0.00000  Uiso   1.00
H215   H     0.44640   0.79509   0.27045   0.00000  Uiso   1.00
H216   H     0.48066   0.70683   0.13014   0.00000  Uiso   1.00
H217   H     0.35899   0.78460   0.43268   0.00000  Uiso   1.00
H218   H     0.48828   0.89679   0.21977   0.00000  Uiso   1.00
H219   H     0.53635   0.60432   0.02005   0.00000  Uiso   1.00
H220   H     0.27980   0.76833   0.65797   0.00000  Uiso   1.00
H221   H     0.55244   0.00490   0.20901   0.00000  Uiso   1.00
O222   O     0.61978   0.53032   0.08400   0.00000  Uiso   1.00
O223   O     0.28320   0.74550   0.92091   0.00000  Uiso   1.00
O224   O     0.64090   0.05587   0.33189   0.00000  Uiso   1.00
N225   N     0.62103   0.59306   0.26854   0.00000  Uiso   1.00
N226   N     0.38117   0.74639   0.86495   0.00000  Uiso   1.00
N227   N     0.63606   0.96757   0.44524   0.00000  Uiso   1.00
N228   N     0.55814   0.60952   0.10722   0.00000  Uiso   1.00
N229   N     0.31828   0.76284   0.70362   0.00000  Uiso   1.00
N230   N     0.57316   0.98403   0.28392   0.00000  Uiso   1.00
C231   C     0.44835   0.23244   0.54038   0.00000  Uiso   1.00
C232   C     0.44459   0.27651   0.42603   0.00000  Uiso   1.00
C233   C     0.40641   0.32272   0.41975   0.00000  Uiso   1.00
C234   C     0.40982   0.35811   0.30665   0.00000  Uiso   1.00
C235   C     0.39789   0.42814   0.14480   0.00000  Uiso   1.00
C236   C     0.51071   0.23426   0.59040   0.00000  Uiso   1.00
C237   C     0.52810   0.24495   0.72233   0.00000  Uiso   1.00
C238   C     0.58716   0.24476   0.74759   0.00000  Uiso   1.00
C239   C     0.67787   0.24916   0.84095   0.00000  Uiso   1.00
C240   C     0.44045   0.17331   0.47472   0.00000  Uiso   1.00
C241   C     0.39879   0.13274   0.50940   0.00000  Uiso   1.00
C242   C     0.39871   0.08122   0.43728   0.00000  Uiso   1.00
C243   C     0.38034   0.99099   0.35102   0.00000  Uiso   1.00
C244   C     0.52232   0.21309   0.35068   0.00000  Uiso   1.00
C245   C     0.48477   0.26600   0.32299   0.00000  Uiso   1.00
C246   C     0.48824   0.30132   0.20986   0.00000  Uiso   1.00
C247   C     0.45006   0.34758   0.20342   0.00000  Uiso   1.00
C248   C     0.55088   0.22375   0.48737   0.00000  Uiso   1.00
C249   C     0.60993   0.22354   0.51244   0.00000  Uiso   1.00
C250   C     0.62741   0.23423   0.64437   0.00000  Uiso   1.00
C251   C     0.48063   0.16280   0.37167   0.00000  Uiso   1.00
C252   C     0.48062   0.11133   0.29950   0.00000  Uiso   1.00
C253   C     0.43896   0.07070   0.33406   0.00000  Uiso   1.00
H254   H     0.41708   0.24063   0.62061   0.00000  Uiso   1.00
H255   H     0.37532   0.33085   0.49952   0.00000  Uiso   1.00
H256   H     0.49700   0.25307   0.80205   0.00000  Uiso   1.00
H257   H     0.36770   0.14089   0.58914   0.00000  Uiso   1.00
H258   H     0.34676   0.42625   0.31986   0.00000  Uiso   1.00
H259   H     0.60332   0.26224   0.95777   0.00000  Uiso   1.00
H260   H     0.33068   0.02567   0.50882   0.00000  Uiso   1.00
H261   H     0.55360   0.20491   0.27045   0.00000  Uiso   1.00
H262   H     0.51934   0.29317   0.13014   0.00000  Uiso   1.00
H263   H     0.64101   0.21540   0.43268   0.00000  Uiso   1.00
H264   H     0.51172   0.10321   0.21977   0.00000  Uiso   1.00
H265   H     0.46365   0.39568   0.02005   0.00000  Uiso   1.00
H266   H     0.72020   0.23167   0.65797   0.00000  Uiso   1.00
H267   H     0.44756   0.99510   0.20901   0.00000  Uiso   1.00
O268   O     0.38022   0.46968   0.08400   0.00000  Uiso   1.00
O269   O     0.71680   0.25450   0.92091   0.00000  Uiso   1.00
O270   O     0.35910   0.94413   0.33189   0.00000  Uiso   1.00
N271   N     0.37897   0.40694   0.26854   0.00000  Uiso   1.00
N272   N     0.61883   0.25361   0.86495   0.00000  Uiso   1.00
N273   N     0.36394   0.03243   0.44524   0.00000  Uiso   1.00
N274   N     0.44186   0.39048   0.10722   0.00000  Uiso   1.00
N275   N     0.68172   0.23716   0.70362   0.00000  Uiso   1.00
N276   N     0.42684   0.01597   0.28392   0.00000  Uiso   1.00
C277   C     0.73244   0.05165   0.04038   0.00000  Uiso   1.00
C278   C     0.77651   0.05541   0.92603   0.00000  Uiso   1.00
C279   C     0.82272   0.09359   0.91975   0.00000  Uiso   1.00
C280   C     0.85811   0.09018   0.80665   0.00000  Uiso   1.00
C281   C     0.92814   0.10211   0.64480   0.00000  Uiso   1.00
C282   C     0.73426   0.98929   0.09040   0.00000  Uiso   1.00
C283   C     0.74495   0.97190   0.22233   0.00000  Uiso   1.00
C284   C     0.74476   0.91284   0.24759   0.00000  Uiso   1.00
C285   C     0.74916   0.82213   0.34095   0.00000  Uiso   1.00
C286   C     0.67331   0.05955   0.97472   0.00000  Uiso   1.00
C287   C     0.63274   0.10121   0.00940   0.00000  Uiso   1.00
C288   C     0.58122   0.10129   0.93728   0.00000  Uiso   1.00
C289   C     0.49099   0.11966   0.85102   0.00000  Uiso   1.00
C290   C     0.71309   0.97768   0.85068   0.00000  Uiso   1.00
C291   C     0.76600   0.01523   0.82299   0.00000  Uiso   1.00
C292   C     0.80132   0.01176   0.70986   0.00000  Uiso   1.00
C293   C     0.84758   0.04994   0.70342   0.00000  Uiso   1.00
C294   C     0.72375   0.94912   0.98737   0.00000  Uiso   1.00
C295   C     0.72354   0.89007   0.01244   0.00000  Uiso   1.00
C296   C     0.73423   0.87259   0.14437   0.00000  Uiso   1.00
C297   C     0.66280   0.01937   0.87167   0.00000  Uiso   1.00
C298   C     0.61133   0.01938   0.79950   0.00000  Uiso   1.00
C299   C     0.57070   0.06104   0.83406   0.00000  Uiso   1.00
H300   H     0.74063   0.08292   0.12061   0.00000  Uiso   1.00
H301   H     0.83085   0.12468   0.99952   0.00000  Uiso   1.00
H302   H     0.75307   0.00300   0.30205   0.00000  Uiso   1.00
H303   H     0.64089   0.13230   0.08914   0.00000  Uiso   1.00
H304   H     0.92625   0.15324   0.81986   0.00000  Uiso   1.00
H305   H     0.76224   0.89668   0.45777   0.00000  Uiso   1.00
H306   H     0.52567   0.16932   0.00882   0.00000  Uiso   1.00
H307   H     0.70491   0.94640   0.77045   0.00000  Uiso   1.00
H308   H     0.79317   0.98066   0.63014   0.00000  Uiso   1.00
H309   H     0.71540   0.85899   0.93268   0.00000  Uiso   1.00
H310   H     0.60321   0.98828   0.71977   0.00000  Uiso   1.00
H311   H     0.89568   0.03635   0.52005   0.00000  Uiso   1.00
H312   H     0.73167   0.77980   0.15797   0.00000  Uiso   1.00
H313   H     0.49510   0.05244   0.70901   0.00000  Uiso   1.00
O314   O     0.96968   0.11978   0.58400   0.00000  Uiso   1.00
O315   O     0.75450   0.78320   0.42091   0.00000  Uiso   1.00
O316   O     0.44413   0.14090   0.83189   0.00000  Uiso   1.00
N317   N     0.90694   0.12103   0.76854   0.00000  Uiso   1.00
N318   N     0.75361   0.88117   0.36495   0.00000  Uiso   1.00
N319   N     0.53243   0.13606   0.94524   0.00000  Uiso   1.00
N320   N     0.89048   0.05814   0.60722   0.00000  Uiso   1.00
N321   N     0.73716   0.81828   0.20362   0.00000  Uiso   1.00
N322   N     0.51597   0.07316   0.78392   0.00000  Uiso   1.00
C323   C     0.26756   0.94835   0.04038   0.00000  Uiso   1.00
C324   C     0.22349   0.94459   0.92603   0.00000  Uiso   1.00
C325   C     0.17728   0.90641   0.91975   0.00000  Uiso   1.00
C326   C     0.14189   0.90982   0.80665   0.00000  Uiso   1.00
C327   C     0.07186   0.89789   0.64480   0.00000  Uiso   1.00
C328   C     0.26574   0.01071   0.09040   0.00000  Uiso   1.00
C329   C     0.25505   0.02810   0.22233   0.00000  Uiso   1.00
C330   C     0.25524   0.08716   0.24759   0.00000  Uiso   1.00
C331   C     0.25084   0.17787   0.34095   0.00000  Uiso   1.00
C332   C     0.32669   0.94045   0.97472   0.00000  Uiso   1.00
C333   C     0.36726   0.89879   0.00940   0.00000  Uiso   1.00
C334   C     0.41878   0.89871   0.93728   0.00000  Uiso   1.00
C335   C     0.50901   0.88034   0.85102   0.00000  Uiso   1.00
C336   C     0.28691   0.02232   0.85068   0.00000  Uiso   1.00
C337   C     0.23400   0.98477   0.82299   0.00000  Uiso   1.00
C338   C     0.19868   0.98824   0.70986   0.00000  Uiso   1.00
C339   C     0.15242   0.95006   0.70342   0.00000  Uiso   1.00
C340   C     0.27625   0.05088   0.98737   0.00000  Uiso   1.00
C341   C     0.27646   0.10993   0.01244   0.00000  Uiso   1.00
C342   C     0.26577   0.12741   0.14437   0.00000  Uiso   1.00
C343   C     0.33720   0.98063   0.87167   0.00000  Uiso   1.00
C344   C     0.38867   0.98062   0.79950   0.00000  Uiso   1.00
C345   C     0.42930   0.93896   0.83406   0.00000  Uiso   1.00
H346   H     0.25937   0.91708   0.12061   0.00000  Uiso   1.00
H347   H     0.16915   0.87532   0.99952   0.00000  Uiso   1.00
H348   H     0.24693   0.99700   0.30205   0.00000  Uiso   1.00
H349   H     0.35911   0.86770   0.08914   0.00000  Uiso   1.00
H350   H     0.07375   0.84676   0.81986   0.00000  Uiso   1.00
H351   H     0.23776   0.10332   0.45777   0.00000  Uiso   1.00
H352   H     0.47433   0.83068   0.00882   0.00000  Uiso   1.00
H353   H     0.29509   0.05360   0.77045   0.00000  Uiso   1.00
H354   H     0.20683   0.01934   0.63014   0.00000  Uiso   1.00
H355   H     0.28460   0.14101   0.93268   0.00000  Uiso   1.00
H356   H     0.39679   0.01172   0.71977   0.00000  Uiso   1.00
H357   H     0.10432   0.96365   0.52005   0.00000  Uiso   1.00
H358   H     0.26833   0.22020   0.15797   0.00000  Uiso   1.00
H359   H     0.50490   0.94756   0.70901   0.00000  Uiso   1.00
O360   O     0.03032   0.88022   0.58400   0.00000  Uiso   1.00
O361   O     0.24550   0.21680   0.42091   0.00000  Uiso   1.00
O362   O     0.55587   0.85910   0.83189   0.00000  Uiso   1.00
N363   N     0.09306   0.87897   0.76854   0.00000  Uiso   1.00
N364   N     0.24639   0.11883   0.36495   0.00000  Uiso   1.00
N365   N     0.46757   0.86394   0.94524   0.00000  Uiso   1.00
N366   N     0.10952   0.94186   0.60722   0.00000  Uiso   1.00
N367   N     0.26284   0.18172   0.20362   0.00000  Uiso   1.00
N368   N     0.48403   0.92684   0.78392   0.00000  Uiso   1.00
