data_job_03733
_audit_creation_date              2018-12-19
_audit_creation_method            'Materials Studio'
_symmetry_space_group_name_H-M    'P1'
_symmetry_Int_Tables_number       1
_symmetry_cell_setting            triclinic
loop_
_symmetry_equiv_pos_as_xyz
  x,y,z
_cell_length_a                    9.2060
_cell_length_b                    15.2799
_cell_length_c                    20.0605
_cell_angle_alpha                 90.0000
_cell_angle_beta                  90.0000
_cell_angle_gamma                 90.0000
loop_
_atom_site_label
_atom_site_type_symbol
_atom_site_fract_x
_atom_site_fract_y
_atom_site_fract_z
_atom_site_U_iso_or_equiv
_atom_site_adp_type
_atom_site_occupancy
C1     C     0.85281   0.54854   0.64270   0.00000  Uiso   1.00
C2     C     0.82700   0.45066   0.65164   0.00000  Uiso   1.00
C3     C     0.73486   0.41271   0.69814   0.00000  Uiso   1.00
C4     C     0.72637   0.32199   0.69837   0.00000  Uiso   1.00
C5     C     0.67406   0.17774   0.71908   0.00000  Uiso   1.00
C6     C     0.01612   0.56217   0.65002   0.00000  Uiso   1.00
C7     C     0.08298   0.61799   0.69515   0.00000  Uiso   1.00
C8     C     0.23369   0.62115   0.69401   0.00000  Uiso   1.00
C9     C     0.47500   0.65007   0.71216   0.00000  Uiso   1.00
C10    C     0.81725   0.56862   0.57005   0.00000  Uiso   1.00
C11    C     0.71692   0.62988   0.54794   0.00000  Uiso   1.00
C12    C     0.70022   0.63849   0.47947   0.00000  Uiso   1.00
C13    C     0.63274   0.67743   0.37346   0.00000  Uiso   1.00
C14    C     0.00157   0.45490   0.56041   0.00000  Uiso   1.00
C15    C     0.90781   0.39980   0.60695   0.00000  Uiso   1.00
C16    C     0.89945   0.30911   0.60710   0.00000  Uiso   1.00
C17    C     0.80730   0.27104   0.65359   0.00000  Uiso   1.00
C18    C     0.09692   0.51131   0.60533   0.00000  Uiso   1.00
C19    C     0.24757   0.51439   0.60411   0.00000  Uiso   1.00
C20    C     0.31464   0.57020   0.64923   0.00000  Uiso   1.00
C21    C     0.89805   0.51776   0.52535   0.00000  Uiso   1.00
C22    C     0.88151   0.52628   0.45690   0.00000  Uiso   1.00
C23    C     0.78117   0.58754   0.43469   0.00000  Uiso   1.00
H24    H     0.78991   0.58814   0.67750   0.00000  Uiso   1.00
H25    H     0.67236   0.45209   0.73273   0.00000  Uiso   1.00
H26    H     0.02043   0.65734   0.72973   0.00000  Uiso   1.00
H27    H     0.65442   0.66923   0.58255   0.00000  Uiso   1.00
H28    H     0.57771   0.27883   0.77427   0.00000  Uiso   1.00
H29    H     0.31162   0.71164   0.76793   0.00000  Uiso   1.00
H30    H     0.53983   0.73671   0.45756   0.00000  Uiso   1.00
H31    H     0.06448   0.41530   0.52561   0.00000  Uiso   1.00
H32    H     0.96199   0.26977   0.57250   0.00000  Uiso   1.00
H33    H     0.31006   0.47503   0.56951   0.00000  Uiso   1.00
H34    H     0.94405   0.48691   0.42233   0.00000  Uiso   1.00
H35    H     0.81279   0.13085   0.64422   0.00000  Uiso   1.00
H36    H     0.54670   0.56367   0.63789   0.00000  Uiso   1.00
H37    H     0.77490   0.58873   0.32752   0.00000  Uiso   1.00
O38    O     0.62291   0.11223   0.74285   0.00000  Uiso   1.00
O39    O     0.58577   0.68007   0.73453   0.00000  Uiso   1.00
O40    O     0.57319   0.71295   0.32734   0.00000  Uiso   1.00
N41    N     0.64708   0.26398   0.73722   0.00000  Uiso   1.00
N42    N     0.33324   0.66862   0.73130   0.00000  Uiso   1.00
N43    N     0.61171   0.69207   0.44113   0.00000  Uiso   1.00
N44    N     0.77357   0.18435   0.66724   0.00000  Uiso   1.00
N45    N     0.45974   0.58899   0.66133   0.00000  Uiso   1.00
N46    N     0.73820   0.61245   0.37116   0.00000  Uiso   1.00
C47    C     0.14719   0.45146   0.14270   0.00000  Uiso   1.00
C48    C     0.17300   0.54934   0.15164   0.00000  Uiso   1.00
C49    C     0.26514   0.58729   0.19814   0.00000  Uiso   1.00
C50    C     0.27363   0.67801   0.19837   0.00000  Uiso   1.00
C51    C     0.32594   0.82226   0.21908   0.00000  Uiso   1.00
C52    C     0.98388   0.43783   0.15002   0.00000  Uiso   1.00
C53    C     0.91702   0.38201   0.19515   0.00000  Uiso   1.00
C54    C     0.76631   0.37885   0.19401   0.00000  Uiso   1.00
C55    C     0.52500   0.34993   0.21216   0.00000  Uiso   1.00
C56    C     0.18275   0.43138   0.07005   0.00000  Uiso   1.00
C57    C     0.28308   0.37012   0.04794   0.00000  Uiso   1.00
C58    C     0.29978   0.36151   0.97947   0.00000  Uiso   1.00
C59    C     0.36726   0.32257   0.87346   0.00000  Uiso   1.00
C60    C     0.99843   0.54510   0.06041   0.00000  Uiso   1.00
C61    C     0.09219   0.60020   0.10695   0.00000  Uiso   1.00
C62    C     0.10055   0.69089   0.10710   0.00000  Uiso   1.00
C63    C     0.19270   0.72896   0.15359   0.00000  Uiso   1.00
C64    C     0.90308   0.48869   0.10533   0.00000  Uiso   1.00
C65    C     0.75243   0.48561   0.10411   0.00000  Uiso   1.00
C66    C     0.68536   0.42980   0.14923   0.00000  Uiso   1.00
C67    C     0.10195   0.48224   0.02535   0.00000  Uiso   1.00
C68    C     0.11849   0.47372   0.95690   0.00000  Uiso   1.00
C69    C     0.21883   0.41246   0.93469   0.00000  Uiso   1.00
H70    H     0.21009   0.41186   0.17750   0.00000  Uiso   1.00
H71    H     0.32764   0.54791   0.23273   0.00000  Uiso   1.00
H72    H     0.97957   0.34266   0.22973   0.00000  Uiso   1.00
H73    H     0.34558   0.33077   0.08255   0.00000  Uiso   1.00
H74    H     0.42229   0.72117   0.27427   0.00000  Uiso   1.00
H75    H     0.68838   0.28836   0.26793   0.00000  Uiso   1.00
H76    H     0.46017   0.26329   0.95756   0.00000  Uiso   1.00
H77    H     0.93552   0.58470   0.02561   0.00000  Uiso   1.00
H78    H     0.03801   0.73023   0.07250   0.00000  Uiso   1.00
H79    H     0.68994   0.52497   0.06951   0.00000  Uiso   1.00
H80    H     0.05595   0.51309   0.92233   0.00000  Uiso   1.00
H81    H     0.18721   0.86915   0.14422   0.00000  Uiso   1.00
H82    H     0.45330   0.43633   0.13789   0.00000  Uiso   1.00
H83    H     0.22510   0.41127   0.82752   0.00000  Uiso   1.00
O84    O     0.37709   0.88777   0.24285   0.00000  Uiso   1.00
O85    O     0.41423   0.31993   0.23453   0.00000  Uiso   1.00
O86    O     0.42681   0.28705   0.82734   0.00000  Uiso   1.00
N87    N     0.35292   0.73602   0.23722   0.00000  Uiso   1.00
N88    N     0.66676   0.33138   0.23130   0.00000  Uiso   1.00
N89    N     0.38829   0.30793   0.94113   0.00000  Uiso   1.00
N90    N     0.22643   0.81565   0.16724   0.00000  Uiso   1.00
N91    N     0.54026   0.41101   0.16133   0.00000  Uiso   1.00
N92    N     0.26180   0.38755   0.87116   0.00000  Uiso   1.00
C93    C     0.35281   0.95146   0.64270   0.00000  Uiso   1.00
C94    C     0.32700   0.04934   0.65164   0.00000  Uiso   1.00
C95    C     0.23486   0.08729   0.69814   0.00000  Uiso   1.00
C96    C     0.22637   0.17801   0.69837   0.00000  Uiso   1.00
C97    C     0.17406   0.32226   0.71908   0.00000  Uiso   1.00
C98    C     0.51612   0.93783   0.65002   0.00000  Uiso   1.00
C99    C     0.58298   0.88201   0.69515   0.00000  Uiso   1.00
C100   C     0.73369   0.87885   0.69401   0.00000  Uiso   1.00
C101   C     0.97500   0.84993   0.71216   0.00000  Uiso   1.00
C102   C     0.31725   0.93138   0.57005   0.00000  Uiso   1.00
C103   C     0.21692   0.87012   0.54794   0.00000  Uiso   1.00
C104   C     0.20022   0.86151   0.47947   0.00000  Uiso   1.00
C105   C     0.13274   0.82257   0.37346   0.00000  Uiso   1.00
C106   C     0.50157   0.04510   0.56041   0.00000  Uiso   1.00
C107   C     0.40781   0.10020   0.60695   0.00000  Uiso   1.00
C108   C     0.39945   0.19089   0.60710   0.00000  Uiso   1.00
C109   C     0.30730   0.22896   0.65359   0.00000  Uiso   1.00
C110   C     0.59692   0.98869   0.60533   0.00000  Uiso   1.00
C111   C     0.74757   0.98561   0.60411   0.00000  Uiso   1.00
C112   C     0.81464   0.92980   0.64923   0.00000  Uiso   1.00
C113   C     0.39805   0.98224   0.52535   0.00000  Uiso   1.00
C114   C     0.38151   0.97372   0.45690   0.00000  Uiso   1.00
C115   C     0.28117   0.91246   0.43469   0.00000  Uiso   1.00
H116   H     0.28991   0.91186   0.67750   0.00000  Uiso   1.00
H117   H     0.17236   0.04791   0.73273   0.00000  Uiso   1.00
H118   H     0.52043   0.84266   0.72973   0.00000  Uiso   1.00
H119   H     0.15442   0.83077   0.58255   0.00000  Uiso   1.00
H120   H     0.07771   0.22117   0.77427   0.00000  Uiso   1.00
H121   H     0.81162   0.78836   0.76793   0.00000  Uiso   1.00
H122   H     0.03983   0.76329   0.45756   0.00000  Uiso   1.00
H123   H     0.56448   0.08470   0.52561   0.00000  Uiso   1.00
H124   H     0.46199   0.23023   0.57250   0.00000  Uiso   1.00
H125   H     0.81006   0.02497   0.56951   0.00000  Uiso   1.00
H126   H     0.44405   0.01309   0.42233   0.00000  Uiso   1.00
H127   H     0.31279   0.36915   0.64422   0.00000  Uiso   1.00
H128   H     0.04670   0.93633   0.63789   0.00000  Uiso   1.00
H129   H     0.27490   0.91127   0.32752   0.00000  Uiso   1.00
O130   O     0.12291   0.38777   0.74285   0.00000  Uiso   1.00
O131   O     0.08577   0.81993   0.73453   0.00000  Uiso   1.00
O132   O     0.07319   0.78705   0.32734   0.00000  Uiso   1.00
N133   N     0.14708   0.23602   0.73722   0.00000  Uiso   1.00
N134   N     0.83324   0.83138   0.73130   0.00000  Uiso   1.00
N135   N     0.11171   0.80793   0.44113   0.00000  Uiso   1.00
N136   N     0.27357   0.31565   0.66724   0.00000  Uiso   1.00
N137   N     0.95974   0.91101   0.66133   0.00000  Uiso   1.00
N138   N     0.23820   0.88755   0.37116   0.00000  Uiso   1.00
C139   C     0.64719   0.04854   0.14270   0.00000  Uiso   1.00
C140   C     0.67300   0.95066   0.15164   0.00000  Uiso   1.00
C141   C     0.76514   0.91271   0.19814   0.00000  Uiso   1.00
C142   C     0.77363   0.82199   0.19837   0.00000  Uiso   1.00
C143   C     0.82594   0.67774   0.21908   0.00000  Uiso   1.00
C144   C     0.48388   0.06217   0.15002   0.00000  Uiso   1.00
C145   C     0.41702   0.11799   0.19515   0.00000  Uiso   1.00
C146   C     0.26631   0.12115   0.19401   0.00000  Uiso   1.00
C147   C     0.02500   0.15007   0.21216   0.00000  Uiso   1.00
C148   C     0.68275   0.06862   0.07005   0.00000  Uiso   1.00
C149   C     0.78308   0.12988   0.04794   0.00000  Uiso   1.00
C150   C     0.79978   0.13849   0.97947   0.00000  Uiso   1.00
C151   C     0.86726   0.17743   0.87346   0.00000  Uiso   1.00
C152   C     0.49843   0.95490   0.06041   0.00000  Uiso   1.00
C153   C     0.59219   0.89980   0.10695   0.00000  Uiso   1.00
C154   C     0.60055   0.80911   0.10710   0.00000  Uiso   1.00
C155   C     0.69270   0.77104   0.15359   0.00000  Uiso   1.00
C156   C     0.40308   0.01131   0.10533   0.00000  Uiso   1.00
C157   C     0.25243   0.01439   0.10411   0.00000  Uiso   1.00
C158   C     0.18536   0.07020   0.14923   0.00000  Uiso   1.00
C159   C     0.60195   0.01776   0.02535   0.00000  Uiso   1.00
C160   C     0.61849   0.02628   0.95690   0.00000  Uiso   1.00
C161   C     0.71883   0.08754   0.93469   0.00000  Uiso   1.00
H162   H     0.71009   0.08814   0.17750   0.00000  Uiso   1.00
H163   H     0.82764   0.95209   0.23273   0.00000  Uiso   1.00
H164   H     0.47957   0.15734   0.22973   0.00000  Uiso   1.00
H165   H     0.84558   0.16923   0.08255   0.00000  Uiso   1.00
H166   H     0.92229   0.77883   0.27427   0.00000  Uiso   1.00
H167   H     0.18838   0.21164   0.26793   0.00000  Uiso   1.00
H168   H     0.96017   0.23671   0.95756   0.00000  Uiso   1.00
H169   H     0.43552   0.91530   0.02561   0.00000  Uiso   1.00
H170   H     0.53801   0.76977   0.07250   0.00000  Uiso   1.00
H171   H     0.18994   0.97503   0.06951   0.00000  Uiso   1.00
H172   H     0.55595   0.98691   0.92233   0.00000  Uiso   1.00
H173   H     0.68721   0.63085   0.14422   0.00000  Uiso   1.00
H174   H     0.95330   0.06367   0.13789   0.00000  Uiso   1.00
H175   H     0.72510   0.08873   0.82752   0.00000  Uiso   1.00
O176   O     0.87709   0.61223   0.24285   0.00000  Uiso   1.00
O177   O     0.91423   0.18007   0.23453   0.00000  Uiso   1.00
O178   O     0.92681   0.21295   0.82734   0.00000  Uiso   1.00
N179   N     0.85292   0.76398   0.23722   0.00000  Uiso   1.00
N180   N     0.16676   0.16862   0.23130   0.00000  Uiso   1.00
N181   N     0.88829   0.19207   0.94113   0.00000  Uiso   1.00
N182   N     0.72643   0.68435   0.16724   0.00000  Uiso   1.00
N183   N     0.04026   0.08899   0.16133   0.00000  Uiso   1.00
N184   N     0.76180   0.11245   0.87116   0.00000  Uiso   1.00
