data_job_06385
_audit_creation_date              2018-12-19
_audit_creation_method            'Materials Studio'
_symmetry_space_group_name_H-M    'P1'
_symmetry_Int_Tables_number       1
_symmetry_cell_setting            triclinic
loop_
_symmetry_equiv_pos_as_xyz
  x,y,z
_cell_length_a                    17.2284
_cell_length_b                    16.3354
_cell_length_c                    16.0833
_cell_angle_alpha                 101.9670
_cell_angle_beta                  100.8080
_cell_angle_gamma                 101.3650
loop_
_atom_site_label
_atom_site_type_symbol
_atom_site_fract_x
_atom_site_fract_y
_atom_site_fract_z
_atom_site_U_iso_or_equiv
_atom_site_adp_type
_atom_site_occupancy
C1     C     0.72651   0.88099   0.17582   0.00000  Uiso   1.00
C2     C     0.75446   0.96388   0.14858   0.00000  Uiso   1.00
C3     C     0.83048   0.02141   0.18098   0.00000  Uiso   1.00
C4     C     0.84416   0.09349   0.14769   0.00000  Uiso   1.00
C5     C     0.89672   0.22009   0.11508   0.00000  Uiso   1.00
C6     C     0.64923   0.88819   0.20699   0.00000  Uiso   1.00
C7     C     0.63677   0.88207   0.28850   0.00000  Uiso   1.00
C8     C     0.56186   0.89041   0.30438   0.00000  Uiso   1.00
C9     C     0.45102   0.89944   0.36243   0.00000  Uiso   1.00
C10    C     0.69984   0.80851   0.09189   0.00000  Uiso   1.00
C11    C     0.72992   0.73538   0.07662   0.00000  Uiso   1.00
C12    C     0.69761   0.67663   0.99560   0.00000  Uiso   1.00
C13    C     0.66536   0.56195   0.87493   0.00000  Uiso   1.00
C14    C     0.61563   0.90668   0.05908   0.00000  Uiso   1.00
C15    C     0.69423   0.97784   0.08518   0.00000  Uiso   1.00
C16    C     0.70781   0.04984   0.05183   0.00000  Uiso   1.00
C17    C     0.78383   0.10746   0.08417   0.00000  Uiso   1.00
C18    C     0.58900   0.90214   0.14359   0.00000  Uiso   1.00
C19    C     0.51409   0.91049   0.15935   0.00000  Uiso   1.00
C20    C     0.50153   0.90439   0.24086   0.00000  Uiso   1.00
C21    C     0.63962   0.82247   0.02848   0.00000  Uiso   1.00
C22    C     0.60725   0.76381   0.94747   0.00000  Uiso   1.00
C23    C     0.63728   0.69061   0.93208   0.00000  Uiso   1.00
H24    H     0.77339   0.87013   0.22518   0.00000  Uiso   1.00
H25    H     0.87707   0.01059   0.23005   0.00000  Uiso   1.00
H26    H     0.68338   0.87126   0.33755   0.00000  Uiso   1.00
H27    H     0.77653   0.72460   0.12570   0.00000  Uiso   1.00
H28    H     0.96544   0.17250   0.20752   0.00000  Uiso   1.00
H29    H     0.55704   0.87868   0.43417   0.00000  Uiso   1.00
H30    H     0.75345   0.56942   0.98745   0.00000  Uiso   1.00
H31    H     0.56874   0.91755   0.00972   0.00000  Uiso   1.00
H32    H     0.66119   0.06062   0.00276   0.00000  Uiso   1.00
H33    H     0.46750   0.92129   0.11027   0.00000  Uiso   1.00
H34    H     0.56065   0.77463   0.89842   0.00000  Uiso   1.00
H35    H     0.79023   0.21311   0.02304   0.00000  Uiso   1.00
H36    H     0.38182   0.91928   0.24970   0.00000  Uiso   1.00
H37    H     0.57823   0.61002   0.80298   0.00000  Uiso   1.00
O38    O     0.94234   0.28608   0.11461   0.00000  Uiso   1.00
O39    O     0.40652   0.90058   0.41197   0.00000  Uiso   1.00
O40    O     0.66421   0.49484   0.82589   0.00000  Uiso   1.00
N41    N     0.91152   0.16241   0.16504   0.00000  Uiso   1.00
N42    N     0.52969   0.88772   0.37696   0.00000  Uiso   1.00
N43    N     0.71331   0.59858   0.95932   0.00000  Uiso   1.00
N44    N     0.81724   0.18426   0.06578   0.00000  Uiso   1.00
N45    N     0.43541   0.90957   0.27769   0.00000  Uiso   1.00
N46    N     0.61903   0.62042   0.86006   0.00000  Uiso   1.00
C47    C     0.17123   0.72729   0.87925   0.00000  Uiso   1.00
C48    C     0.14716   0.75760   0.96486   0.00000  Uiso   1.00
C49    C     0.17957   0.83775   0.02395   0.00000  Uiso   1.00
C50    C     0.14945   0.85301   0.09845   0.00000  Uiso   1.00
C51    C     0.12128   0.90959   0.22915   0.00000  Uiso   1.00
C52    C     0.19768   0.64429   0.88403   0.00000  Uiso   1.00
C53    C     0.27257   0.62917   0.87513   0.00000  Uiso   1.00
C54    C     0.28497   0.54904   0.88157   0.00000  Uiso   1.00
C55    C     0.33522   0.42969   0.88670   0.00000  Uiso   1.00
C56    C     0.09270   0.70088   0.80754   0.00000  Uiso   1.00
C57    C     0.07932   0.73333   0.73432   0.00000  Uiso   1.00
C58    C     0.00334   0.70083   0.67635   0.00000  Uiso   1.00
C59    C     0.89059   0.66934   0.56274   0.00000  Uiso   1.00
C60    C     0.06010   0.61187   0.90650   0.00000  Uiso   1.00
C61    C     0.08680   0.69491   0.97966   0.00000  Uiso   1.00
C62    C     0.05661   0.71005   0.05409   0.00000  Uiso   1.00
C63    C     0.08897   0.79021   0.11327   0.00000  Uiso   1.00
C64    C     0.13732   0.58160   0.89882   0.00000  Uiso   1.00
C65    C     0.14961   0.50147   0.90527   0.00000  Uiso   1.00
C66    C     0.22449   0.48624   0.89639   0.00000  Uiso   1.00
C67    C     0.03234   0.63819   0.82234   0.00000  Uiso   1.00
C68    C     0.95636   0.60563   0.76447   0.00000  Uiso   1.00
C69    C     0.94287   0.63802   0.69118   0.00000  Uiso   1.00
H70    H     0.21823   0.77610   0.86773   0.00000  Uiso   1.00
H71    H     0.22629   0.88625   0.01247   0.00000  Uiso   1.00
H72    H     0.31927   0.67770   0.86367   0.00000  Uiso   1.00
H73    H     0.12605   0.78184   0.72289   0.00000  Uiso   1.00
H74    H     0.20863   0.98071   0.17949   0.00000  Uiso   1.00
H75    H     0.40466   0.54096   0.86570   0.00000  Uiso   1.00
H76    H     0.99723   0.76057   0.56884   0.00000  Uiso   1.00
H77    H     0.01310   0.56306   0.91802   0.00000  Uiso   1.00
H78    H     0.00990   0.66152   0.06553   0.00000  Uiso   1.00
H79    H     0.10288   0.45297   0.91672   0.00000  Uiso   1.00
H80    H     0.90966   0.55712   0.77594   0.00000  Uiso   1.00
H81    H     0.03300   0.79831   0.22255   0.00000  Uiso   1.00
H82    H     0.22903   0.35856   0.90875   0.00000  Uiso   1.00
H83    H     0.82160   0.57817   0.61190   0.00000  Uiso   1.00
O84    O     0.12243   0.95812   0.29716   0.00000  Uiso   1.00
O85    O     0.37961   0.38118   0.88546   0.00000  Uiso   1.00
O86    O     0.84507   0.66930   0.49599   0.00000  Uiso   1.00
N87    N     0.16772   0.92428   0.16937   0.00000  Uiso   1.00
N88    N     0.35101   0.51314   0.87601   0.00000  Uiso   1.00
N89    N     0.97010   0.71844   0.59846   0.00000  Uiso   1.00
N90    N     0.07321   0.82613   0.19254   0.00000  Uiso   1.00
N91    N     0.25650   0.41500   0.89918   0.00000  Uiso   1.00
N92    N     0.87559   0.62029   0.62163   0.00000  Uiso   1.00
C93    C     0.88261   0.17607   0.72994   0.00000  Uiso   1.00
C94    C     0.96103   0.14846   0.75769   0.00000  Uiso   1.00
C95    C     0.01681   0.18154   0.83805   0.00000  Uiso   1.00
C96    C     0.08474   0.14776   0.85072   0.00000  Uiso   1.00
C97    C     0.20475   0.11473   0.90374   0.00000  Uiso   1.00
C98    C     0.88760   0.20420   0.64602   0.00000  Uiso   1.00
C99    C     0.88163   0.28415   0.63249   0.00000  Uiso   1.00
C100   C     0.88773   0.29728   0.55115   0.00000  Uiso   1.00
C101   C     0.89369   0.35078   0.43078   0.00000  Uiso   1.00
C102   C     0.81390   0.09411   0.70359   0.00000  Uiso   1.00
C103   C     0.74595   0.08150   0.73845   0.00000  Uiso   1.00
C104   C     0.69000   0.00195   0.70556   0.00000  Uiso   1.00
C105   C     0.58153   0.88451   0.67458   0.00000  Uiso   1.00
C106   C     0.90405   0.05722   0.60954   0.00000  Uiso   1.00
C107   C     0.97267   0.08390   0.69229   0.00000  Uiso   1.00
C108   C     0.04054   0.05005   0.70484   0.00000  Uiso   1.00
C109   C     0.09641   0.08308   0.78521   0.00000  Uiso   1.00
C110   C     0.89925   0.13965   0.58062   0.00000  Uiso   1.00
C111   C     0.90536   0.15266   0.49928   0.00000  Uiso   1.00
C112   C     0.89940   0.23261   0.48563   0.00000  Uiso   1.00
C113   C     0.82555   0.02955   0.63820   0.00000  Uiso   1.00
C114   C     0.76969   0.95001   0.60524   0.00000  Uiso   1.00
C115   C     0.70167   0.93728   0.64004   0.00000  Uiso   1.00
H116   H     0.87354   0.22633   0.78085   0.00000  Uiso   1.00
H117   H     0.00777   0.23151   0.88865   0.00000  Uiso   1.00
H118   H     0.87261   0.33409   0.68311   0.00000  Uiso   1.00
H119   H     0.73696   0.13147   0.78906   0.00000  Uiso   1.00
H120   H     0.16175   0.20880   0.97930   0.00000  Uiso   1.00
H121   H     0.87672   0.42510   0.54591   0.00000  Uiso   1.00
H122   H     0.59067   0.99784   0.76932   0.00000  Uiso   1.00
H123   H     0.91312   0.00696   0.55862   0.00000  Uiso   1.00
H124   H     0.04953   0.00010   0.65422   0.00000  Uiso   1.00
H125   H     0.91437   0.10269   0.44868   0.00000  Uiso   1.00
H126   H     0.77872   0.90007   0.55463   0.00000  Uiso   1.00
H127   H     0.19565   0.02099   0.78903   0.00000  Uiso   1.00
H128   H     0.91061   0.23729   0.35564   0.00000  Uiso   1.00
H129   H     0.62457   0.81002   0.57905   0.00000  Uiso   1.00
O130   O     0.26773   0.11436   0.95105   0.00000  Uiso   1.00
O131   O     0.89376   0.39813   0.38246   0.00000  Uiso   1.00
O132   O     0.51849   0.83757   0.67557   0.00000  Uiso   1.00
N133   N     0.15100   0.16553   0.92141   0.00000  Uiso   1.00
N134   N     0.88452   0.36776   0.51622   0.00000  Uiso   1.00
N135   N     0.61708   0.96831   0.72507   0.00000  Uiso   1.00
N136   N     0.16924   0.06447   0.81902   0.00000  Uiso   1.00
N137   N     0.90276   0.26670   0.41383   0.00000  Uiso   1.00
N138   N     0.63532   0.86725   0.62269   0.00000  Uiso   1.00
C139   C     0.22664   0.67484   0.38024   0.00000  Uiso   1.00
C140   C     0.25439   0.64854   0.46441   0.00000  Uiso   1.00
C141   C     0.33037   0.68111   0.52228   0.00000  Uiso   1.00
C142   C     0.34386   0.64872   0.59557   0.00000  Uiso   1.00
C143   C     0.39613   0.61745   0.72404   0.00000  Uiso   1.00
C144   C     0.14940   0.70510   0.38789   0.00000  Uiso   1.00
C145   C     0.13710   0.78521   0.38141   0.00000  Uiso   1.00
C146   C     0.06220   0.80043   0.39028   0.00000  Uiso   1.00
C147   C     0.95144   0.85694   0.39989   0.00000  Uiso   1.00
C148   C     0.19995   0.59180   0.30709   0.00000  Uiso   1.00
C149   C     0.23014   0.57666   0.23265   0.00000  Uiso   1.00
C150   C     0.19779   0.49650   0.17347   0.00000  Uiso   1.00
C151   C     0.16553   0.37710   0.05762   0.00000  Uiso   1.00
C152   C     0.11550   0.55942   0.40748   0.00000  Uiso   1.00
C153   C     0.19403   0.58585   0.47920   0.00000  Uiso   1.00
C154   C     0.20741   0.55340   0.55242   0.00000  Uiso   1.00
C155   C     0.28339   0.58591   0.61039   0.00000  Uiso   1.00
C156   C     0.08904   0.64241   0.40269   0.00000  Uiso   1.00
C157   C     0.01414   0.65751   0.41156   0.00000  Uiso   1.00
C158   C     0.00173   0.73763   0.40510   0.00000  Uiso   1.00
C159   C     0.13959   0.52910   0.32188   0.00000  Uiso   1.00
C160   C     0.10719   0.44895   0.26280   0.00000  Uiso   1.00
C161   C     0.13732   0.43369   0.18830   0.00000  Uiso   1.00
H162   H     0.27363   0.72366   0.36871   0.00000  Uiso   1.00
H163   H     0.37706   0.72963   0.51081   0.00000  Uiso   1.00
H164   H     0.18382   0.83371   0.36995   0.00000  Uiso   1.00
H165   H     0.27685   0.62519   0.22122   0.00000  Uiso   1.00
H166   H     0.46511   0.70863   0.67489   0.00000  Uiso   1.00
H167   H     0.05763   0.92809   0.37786   0.00000  Uiso   1.00
H168   H     0.25381   0.48838   0.06423   0.00000  Uiso   1.00
H169   H     0.06851   0.51061   0.41900   0.00000  Uiso   1.00
H170   H     0.16069   0.50488   0.56386   0.00000  Uiso   1.00
H171   H     0.96744   0.60897   0.42300   0.00000  Uiso   1.00
H172   H     0.06048   0.40045   0.27427   0.00000  Uiso   1.00
H173   H     0.28949   0.52622   0.71795   0.00000  Uiso   1.00
H174   H     0.88201   0.74568   0.42091   0.00000  Uiso   1.00
H175   H     0.07819   0.30597   0.10729   0.00000  Uiso   1.00
O176   O     0.44163   0.61752   0.79082   0.00000  Uiso   1.00
O177   O     0.90703   0.90544   0.40111   0.00000  Uiso   1.00
O178   O     0.16441   0.32855   0.98964   0.00000  Uiso   1.00
N179   N     0.41113   0.66647   0.66513   0.00000  Uiso   1.00
N180   N     0.03017   0.87166   0.38744   0.00000  Uiso   1.00
N181   N     0.21356   0.46057   0.09421   0.00000  Uiso   1.00
N182   N     0.31663   0.56831   0.68830   0.00000  Uiso   1.00
N183   N     0.93567   0.77350   0.41061   0.00000  Uiso   1.00
N184   N     0.11906   0.36242   0.11738   0.00000  Uiso   1.00
C185   C     0.67112   0.38003   0.22762   0.00000  Uiso   1.00
C186   C     0.64714   0.46426   0.25822   0.00000  Uiso   1.00
C187   C     0.67951   0.52291   0.33923   0.00000  Uiso   1.00
C188   C     0.64950   0.59611   0.35461   0.00000  Uiso   1.00
C189   C     0.62146   0.72480   0.41175   0.00000  Uiso   1.00
C190   C     0.69773   0.38454   0.14310   0.00000  Uiso   1.00
C191   C     0.77263   0.37617   0.12732   0.00000  Uiso   1.00
C192   C     0.78518   0.38225   0.04580   0.00000  Uiso   1.00
C193   C     0.83565   0.38712   0.92419   0.00000  Uiso   1.00
C194   C     0.59251   0.30889   0.20155   0.00000  Uiso   1.00
C195   C     0.57894   0.23688   0.23489   0.00000  Uiso   1.00
C196   C     0.50291   0.17926   0.20256   0.00000  Uiso   1.00
C197   C     0.39001   0.06666   0.17170   0.00000  Uiso   1.00
C198   C     0.56024   0.40572   0.11089   0.00000  Uiso   1.00
C199   C     0.58692   0.47821   0.19481   0.00000  Uiso   1.00
C200   C     0.55684   0.55134   0.21008   0.00000  Uiso   1.00
C201   C     0.58916   0.61009   0.29110   0.00000  Uiso   1.00
C202   C     0.63751   0.39850   0.07970   0.00000  Uiso   1.00
C203   C     0.64995   0.40459   0.99818   0.00000  Uiso   1.00
C204   C     0.72485   0.39623   0.98228   0.00000  Uiso   1.00
C205   C     0.53228   0.32284   0.13815   0.00000  Uiso   1.00
C206   C     0.45626   0.26531   0.10575   0.00000  Uiso   1.00
C207   C     0.44257   0.19324   0.13904   0.00000  Uiso   1.00
H208   H     0.71801   0.36916   0.27698   0.00000  Uiso   1.00
H209   H     0.72613   0.51209   0.38827   0.00000  Uiso   1.00
H210   H     0.81922   0.36536   0.17640   0.00000  Uiso   1.00
H211   H     0.62556   0.22610   0.28395   0.00000  Uiso   1.00
H212   H     0.70859   0.67673   0.48369   0.00000  Uiso   1.00
H213   H     0.90486   0.36731   0.03693   0.00000  Uiso   1.00
H214   H     0.49650   0.07365   0.26374   0.00000  Uiso   1.00
H215   H     0.51335   0.41658   0.06153   0.00000  Uiso   1.00
H216   H     0.51023   0.56212   0.16100   0.00000  Uiso   1.00
H217   H     0.60333   0.41539   0.94913   0.00000  Uiso   1.00
H218   H     0.40967   0.27613   0.05669   0.00000  Uiso   1.00
H219   H     0.53336   0.71734   0.29923   0.00000  Uiso   1.00
H220   H     0.72964   0.40791   0.85247   0.00000  Uiso   1.00
H221   H     0.32127   0.11426   0.07927   0.00000  Uiso   1.00
O222   O     0.62264   0.79193   0.46078   0.00000  Uiso   1.00
O223   O     0.88014   0.38596   0.87464   0.00000  Uiso   1.00
O224   O     0.34437   0.00070   0.17221   0.00000  Uiso   1.00
N225   N     0.66777   0.66631   0.42663   0.00000  Uiso   1.00
N226   N     0.85128   0.37703   0.00894   0.00000  Uiso   1.00
N227   N     0.46950   0.10247   0.22097   0.00000  Uiso   1.00
N228   N     0.57348   0.68816   0.32738   0.00000  Uiso   1.00
N229   N     0.75699   0.39888   0.90969   0.00000  Uiso   1.00
N230   N     0.37521   0.12432   0.12171   0.00000  Uiso   1.00
C231   C     0.38259   0.22948   0.67715   0.00000  Uiso   1.00
C232   C     0.46111   0.25715   0.64851   0.00000  Uiso   1.00
C233   C     0.51698   0.33669   0.68147   0.00000  Uiso   1.00
C234   C     0.58499   0.34942   0.64668   0.00000  Uiso   1.00
C235   C     0.70516   0.40217   0.61219   0.00000  Uiso   1.00
C236   C     0.38738   0.14704   0.70605   0.00000  Uiso   1.00
C237   C     0.38124   0.13401   0.78739   0.00000  Uiso   1.00
C238   C     0.38718   0.05405   0.80102   0.00000  Uiso   1.00
C239   C     0.39282   0.93585   0.85583   0.00000  Uiso   1.00
C240   C     0.31399   0.20282   0.59439   0.00000  Uiso   1.00
C241   C     0.24612   0.23667   0.58185   0.00000  Uiso   1.00
C242   C     0.19025   0.20365   0.50148   0.00000  Uiso   1.00
C243   C     0.08194   0.17205   0.38293   0.00000  Uiso   1.00
C244   C     0.40404   0.11064   0.55675   0.00000  Uiso   1.00
C245   C     0.47276   0.19259   0.58311   0.00000  Uiso   1.00
C246   C     0.54070   0.20520   0.54825   0.00000  Uiso   1.00
C247   C     0.59666   0.28475   0.58116   0.00000  Uiso   1.00
C248   C     0.39903   0.08249   0.64065   0.00000  Uiso   1.00
C249   C     0.40497   0.00253   0.65417   0.00000  Uiso   1.00
C250   C     0.39885   0.98938   0.73550   0.00000  Uiso   1.00
C251   C     0.32563   0.13827   0.52899   0.00000  Uiso   1.00
C252   C     0.26985   0.10519   0.44863   0.00000  Uiso   1.00
C253   C     0.20192   0.13898   0.43596   0.00000  Uiso   1.00
H254   H     0.37352   0.27973   0.72808   0.00000  Uiso   1.00
H255   H     0.50794   0.38663   0.73209   0.00000  Uiso   1.00
H256   H     0.37222   0.18398   0.83798   0.00000  Uiso   1.00
H257   H     0.23713   0.28662   0.63247   0.00000  Uiso   1.00
H258   H     0.66212   0.47665   0.70773   0.00000  Uiso   1.00
H259   H     0.37592   0.04935   0.93099   0.00000  Uiso   1.00
H260   H     0.09104   0.26579   0.49764   0.00000  Uiso   1.00
H261   H     0.41311   0.06038   0.50583   0.00000  Uiso   1.00
H262   H     0.54970   0.15524   0.49764   0.00000  Uiso   1.00
H263   H     0.41398   0.95259   0.60354   0.00000  Uiso   1.00
H264   H     0.27889   0.05523   0.39803   0.00000  Uiso   1.00
H265   H     0.69602   0.28885   0.51744   0.00000  Uiso   1.00
H266   H     0.40981   0.86154   0.74071   0.00000  Uiso   1.00
H267   H     0.12494   0.07799   0.30736   0.00000  Uiso   1.00
O268   O     0.76823   0.44910   0.61124   0.00000  Uiso   1.00
O269   O     0.39273   0.88849   0.90414   0.00000  Uiso   1.00
O270   O     0.01898   0.17246   0.33560   0.00000  Uiso   1.00
N271   N     0.65135   0.41944   0.66405   0.00000  Uiso   1.00
N272   N     0.38378   0.01994   0.87280   0.00000  Uiso   1.00
N273   N     0.11743   0.22228   0.46766   0.00000  Uiso   1.00
N274   N     0.66959   0.31839   0.56166   0.00000  Uiso   1.00
N275   N     0.40202   0.91889   0.77041   0.00000  Uiso   1.00
N276   N     0.13567   0.12123   0.36527   0.00000  Uiso   1.00
