data_job_00531
_audit_creation_date              2018-12-19
_audit_creation_method            'Materials Studio'
_symmetry_space_group_name_H-M    'P1'
_symmetry_Int_Tables_number       1
_symmetry_cell_setting            triclinic
loop_
_symmetry_equiv_pos_as_xyz
  x,y,z
_cell_length_a                    19.4570
_cell_length_b                    10.3424
_cell_length_c                    13.5651
_cell_angle_alpha                 90.0000
_cell_angle_beta                  117.0870
_cell_angle_gamma                 90.0000
loop_
_atom_site_label
_atom_site_type_symbol
_atom_site_fract_x
_atom_site_fract_y
_atom_site_fract_z
_atom_site_U_iso_or_equiv
_atom_site_adp_type
_atom_site_occupancy
C1     C     0.20161   0.85634   0.63510   0.00000  Uiso   1.00
C2     C     0.21360   0.94944   0.55711   0.00000  Uiso   1.00
C3     C     0.22478   0.08192   0.57223   0.00000  Uiso   1.00
C4     C     0.23465   0.15014   0.49144   0.00000  Uiso   1.00
C5     C     0.25343   0.30416   0.38440   0.00000  Uiso   1.00
C6     C     0.12534   0.78757   0.56521   0.00000  Uiso   1.00
C7     C     0.06232   0.78394   0.58716   0.00000  Uiso   1.00
C8     C     0.99790   0.71588   0.51319   0.00000  Uiso   1.00
C9     C     0.87968   0.61852   0.41877   0.00000  Uiso   1.00
C10    C     0.26427   0.75361   0.66621   0.00000  Uiso   1.00
C11    C     0.31806   0.72138   0.77307   0.00000  Uiso   1.00
C12    C     0.37060   0.62470   0.78414   0.00000  Uiso   1.00
C13    C     0.46809   0.47460   0.84653   0.00000  Uiso   1.00
C14    C     0.19928   0.74193   0.46473   0.00000  Uiso   1.00
C15    C     0.21233   0.88729   0.46458   0.00000  Uiso   1.00
C16    C     0.22220   0.95533   0.38375   0.00000  Uiso   1.00
C17    C     0.23339   0.08788   0.39874   0.00000  Uiso   1.00
C18    C     0.12407   0.72543   0.47268   0.00000  Uiso   1.00
C19    C     0.05974   0.65735   0.39867   0.00000  Uiso   1.00
C20    C     0.99663   0.65362   0.42049   0.00000  Uiso   1.00
C21    C     0.26301   0.69146   0.57368   0.00000  Uiso   1.00
C22    C     0.31548   0.59480   0.58458   0.00000  Uiso   1.00
C23    C     0.36933   0.56244   0.69144   0.00000  Uiso   1.00
H24    H     0.20259   0.90472   0.70714   0.00000  Uiso   1.00
H25    H     0.22574   0.12998   0.64385   0.00000  Uiso   1.00
H26    H     0.06332   0.83203   0.65878   0.00000  Uiso   1.00
H27    H     0.31902   0.76949   0.84466   0.00000  Uiso   1.00
H28    H     0.25083   0.35231   0.53286   0.00000  Uiso   1.00
H29    H     0.90835   0.72404   0.56435   0.00000  Uiso   1.00
H30    H     0.44755   0.59216   0.95633   0.00000  Uiso   1.00
H31    H     0.19829   0.69354   0.39269   0.00000  Uiso   1.00
H32    H     0.22121   0.90721   0.31215   0.00000  Uiso   1.00
H33    H     0.05878   0.60927   0.32707   0.00000  Uiso   1.00
H34    H     0.31448   0.54673   0.51296   0.00000  Uiso   1.00
H35    H     0.24715   0.17151   0.26363   0.00000  Uiso   1.00
H36    H     0.90467   0.54324   0.29513   0.00000  Uiso   1.00
H37    H     0.44387   0.41136   0.68710   0.00000  Uiso   1.00
O38    O     0.26412   0.40629   0.35091   0.00000  Uiso   1.00
O39    O     0.81481   0.58200   0.39225   0.00000  Uiso   1.00
O40    O     0.52222   0.40899   0.90651   0.00000  Uiso   1.00
N41    N     0.24683   0.28043   0.48056   0.00000  Uiso   1.00
N42    N     0.92663   0.69306   0.51000   0.00000  Uiso   1.00
N43    N     0.43072   0.56974   0.87646   0.00000  Uiso   1.00
N44    N     0.24485   0.18314   0.33569   0.00000  Uiso   1.00
N45    N     0.92465   0.59577   0.36513   0.00000  Uiso   1.00
N46    N     0.42874   0.47245   0.73159   0.00000  Uiso   1.00
C47    C     0.79839   0.35634   0.86490   0.00000  Uiso   1.00
C48    C     0.78640   0.44944   0.94289   0.00000  Uiso   1.00
C49    C     0.77522   0.58192   0.92777   0.00000  Uiso   1.00
C50    C     0.76535   0.65014   0.00856   0.00000  Uiso   1.00
C51    C     0.74657   0.80416   0.11560   0.00000  Uiso   1.00
C52    C     0.87466   0.28757   0.93479   0.00000  Uiso   1.00
C53    C     0.93768   0.28394   0.91284   0.00000  Uiso   1.00
C54    C     0.00210   0.21588   0.98681   0.00000  Uiso   1.00
C55    C     0.12032   0.11852   0.08123   0.00000  Uiso   1.00
C56    C     0.73572   0.25361   0.83379   0.00000  Uiso   1.00
C57    C     0.68194   0.22138   0.72693   0.00000  Uiso   1.00
C58    C     0.62940   0.12470   0.71586   0.00000  Uiso   1.00
C59    C     0.53191   0.97460   0.65347   0.00000  Uiso   1.00
C60    C     0.80072   0.24193   0.03527   0.00000  Uiso   1.00
C61    C     0.78767   0.38729   0.03542   0.00000  Uiso   1.00
C62    C     0.77780   0.45533   0.11625   0.00000  Uiso   1.00
C63    C     0.76661   0.58788   0.10126   0.00000  Uiso   1.00
C64    C     0.87593   0.22543   0.02732   0.00000  Uiso   1.00
C65    C     0.94026   0.15735   0.10133   0.00000  Uiso   1.00
C66    C     0.00337   0.15362   0.07951   0.00000  Uiso   1.00
C67    C     0.73699   0.19146   0.92632   0.00000  Uiso   1.00
C68    C     0.68452   0.09480   0.91542   0.00000  Uiso   1.00
C69    C     0.63067   0.06244   0.80856   0.00000  Uiso   1.00
H70    H     0.79741   0.40472   0.79286   0.00000  Uiso   1.00
H71    H     0.77426   0.62998   0.85615   0.00000  Uiso   1.00
H72    H     0.93668   0.33203   0.84122   0.00000  Uiso   1.00
H73    H     0.68098   0.26949   0.65534   0.00000  Uiso   1.00
H74    H     0.74917   0.85231   0.96714   0.00000  Uiso   1.00
H75    H     0.09165   0.22404   0.93565   0.00000  Uiso   1.00
H76    H     0.55245   0.09216   0.54367   0.00000  Uiso   1.00
H77    H     0.80171   0.19354   0.10731   0.00000  Uiso   1.00
H78    H     0.77879   0.40721   0.18785   0.00000  Uiso   1.00
H79    H     0.94122   0.10927   0.17293   0.00000  Uiso   1.00
H80    H     0.68552   0.04673   0.98704   0.00000  Uiso   1.00
H81    H     0.75285   0.67151   0.23637   0.00000  Uiso   1.00
H82    H     0.09533   0.04324   0.20487   0.00000  Uiso   1.00
H83    H     0.55613   0.91136   0.81290   0.00000  Uiso   1.00
O84    O     0.73588   0.90629   0.14909   0.00000  Uiso   1.00
O85    O     0.18519   0.08200   0.10775   0.00000  Uiso   1.00
O86    O     0.47778   0.90899   0.59349   0.00000  Uiso   1.00
N87    N     0.75317   0.78043   0.01944   0.00000  Uiso   1.00
N88    N     0.07337   0.19306   0.99000   0.00000  Uiso   1.00
N89    N     0.56928   0.06974   0.62354   0.00000  Uiso   1.00
N90    N     0.75515   0.68314   0.16431   0.00000  Uiso   1.00
N91    N     0.07535   0.09577   0.13487   0.00000  Uiso   1.00
N92    N     0.57126   0.97245   0.76841   0.00000  Uiso   1.00
C93    C     0.79839   0.14366   0.36490   0.00000  Uiso   1.00
C94    C     0.78640   0.05056   0.44289   0.00000  Uiso   1.00
C95    C     0.77522   0.91808   0.42777   0.00000  Uiso   1.00
C96    C     0.76535   0.84986   0.50856   0.00000  Uiso   1.00
C97    C     0.74657   0.69584   0.61560   0.00000  Uiso   1.00
C98    C     0.87466   0.21243   0.43479   0.00000  Uiso   1.00
C99    C     0.93768   0.21606   0.41284   0.00000  Uiso   1.00
C100   C     0.00210   0.28412   0.48681   0.00000  Uiso   1.00
C101   C     0.12032   0.38148   0.58123   0.00000  Uiso   1.00
C102   C     0.73572   0.24639   0.33379   0.00000  Uiso   1.00
C103   C     0.68194   0.27862   0.22693   0.00000  Uiso   1.00
C104   C     0.62940   0.37530   0.21586   0.00000  Uiso   1.00
C105   C     0.53191   0.52540   0.15347   0.00000  Uiso   1.00
C106   C     0.80072   0.25807   0.53527   0.00000  Uiso   1.00
C107   C     0.78767   0.11271   0.53542   0.00000  Uiso   1.00
C108   C     0.77780   0.04467   0.61625   0.00000  Uiso   1.00
C109   C     0.76661   0.91212   0.60126   0.00000  Uiso   1.00
C110   C     0.87593   0.27457   0.52732   0.00000  Uiso   1.00
C111   C     0.94026   0.34265   0.60133   0.00000  Uiso   1.00
C112   C     0.00337   0.34638   0.57951   0.00000  Uiso   1.00
C113   C     0.73699   0.30854   0.42632   0.00000  Uiso   1.00
C114   C     0.68452   0.40520   0.41542   0.00000  Uiso   1.00
C115   C     0.63067   0.43756   0.30856   0.00000  Uiso   1.00
H116   H     0.79741   0.09528   0.29286   0.00000  Uiso   1.00
H117   H     0.77426   0.87002   0.35615   0.00000  Uiso   1.00
H118   H     0.93668   0.16797   0.34122   0.00000  Uiso   1.00
H119   H     0.68098   0.23051   0.15534   0.00000  Uiso   1.00
H120   H     0.74917   0.64769   0.46714   0.00000  Uiso   1.00
H121   H     0.09165   0.27596   0.43565   0.00000  Uiso   1.00
H122   H     0.55245   0.40784   0.04367   0.00000  Uiso   1.00
H123   H     0.80171   0.30646   0.60731   0.00000  Uiso   1.00
H124   H     0.77879   0.09279   0.68785   0.00000  Uiso   1.00
H125   H     0.94122   0.39073   0.67293   0.00000  Uiso   1.00
H126   H     0.68552   0.45327   0.48704   0.00000  Uiso   1.00
H127   H     0.75285   0.82849   0.73637   0.00000  Uiso   1.00
H128   H     0.09533   0.45676   0.70487   0.00000  Uiso   1.00
H129   H     0.55613   0.58864   0.31290   0.00000  Uiso   1.00
O130   O     0.73588   0.59371   0.64909   0.00000  Uiso   1.00
O131   O     0.18519   0.41800   0.60775   0.00000  Uiso   1.00
O132   O     0.47778   0.59101   0.09349   0.00000  Uiso   1.00
N133   N     0.75317   0.71957   0.51944   0.00000  Uiso   1.00
N134   N     0.07337   0.30694   0.49000   0.00000  Uiso   1.00
N135   N     0.56928   0.43026   0.12354   0.00000  Uiso   1.00
N136   N     0.75515   0.81686   0.66431   0.00000  Uiso   1.00
N137   N     0.07535   0.40423   0.63487   0.00000  Uiso   1.00
N138   N     0.57126   0.52755   0.26841   0.00000  Uiso   1.00
C139   C     0.20161   0.64366   0.13510   0.00000  Uiso   1.00
C140   C     0.21360   0.55056   0.05711   0.00000  Uiso   1.00
C141   C     0.22478   0.41808   0.07223   0.00000  Uiso   1.00
C142   C     0.23465   0.34986   0.99144   0.00000  Uiso   1.00
C143   C     0.25343   0.19584   0.88440   0.00000  Uiso   1.00
C144   C     0.12534   0.71243   0.06521   0.00000  Uiso   1.00
C145   C     0.06232   0.71606   0.08716   0.00000  Uiso   1.00
C146   C     0.99790   0.78412   0.01319   0.00000  Uiso   1.00
C147   C     0.87968   0.88148   0.91877   0.00000  Uiso   1.00
C148   C     0.26427   0.74639   0.16621   0.00000  Uiso   1.00
C149   C     0.31806   0.77862   0.27307   0.00000  Uiso   1.00
C150   C     0.37060   0.87530   0.28414   0.00000  Uiso   1.00
C151   C     0.46809   0.02540   0.34653   0.00000  Uiso   1.00
C152   C     0.19928   0.75807   0.96473   0.00000  Uiso   1.00
C153   C     0.21233   0.61271   0.96458   0.00000  Uiso   1.00
C154   C     0.22220   0.54467   0.88375   0.00000  Uiso   1.00
C155   C     0.23339   0.41212   0.89874   0.00000  Uiso   1.00
C156   C     0.12407   0.77457   0.97268   0.00000  Uiso   1.00
C157   C     0.05974   0.84265   0.89867   0.00000  Uiso   1.00
C158   C     0.99663   0.84638   0.92049   0.00000  Uiso   1.00
C159   C     0.26301   0.80854   0.07368   0.00000  Uiso   1.00
C160   C     0.31548   0.90520   0.08458   0.00000  Uiso   1.00
C161   C     0.36933   0.93756   0.19144   0.00000  Uiso   1.00
H162   H     0.20259   0.59528   0.20714   0.00000  Uiso   1.00
H163   H     0.22574   0.37002   0.14385   0.00000  Uiso   1.00
H164   H     0.06332   0.66797   0.15878   0.00000  Uiso   1.00
H165   H     0.31902   0.73051   0.34466   0.00000  Uiso   1.00
H166   H     0.25083   0.14769   0.03286   0.00000  Uiso   1.00
H167   H     0.90835   0.77596   0.06435   0.00000  Uiso   1.00
H168   H     0.44755   0.90784   0.45633   0.00000  Uiso   1.00
H169   H     0.19829   0.80646   0.89269   0.00000  Uiso   1.00
H170   H     0.22121   0.59279   0.81215   0.00000  Uiso   1.00
H171   H     0.05878   0.89073   0.82707   0.00000  Uiso   1.00
H172   H     0.31448   0.95327   0.01296   0.00000  Uiso   1.00
H173   H     0.24715   0.32849   0.76363   0.00000  Uiso   1.00
H174   H     0.90467   0.95676   0.79513   0.00000  Uiso   1.00
H175   H     0.44387   0.08864   0.18710   0.00000  Uiso   1.00
O176   O     0.26412   0.09371   0.85091   0.00000  Uiso   1.00
O177   O     0.81481   0.91800   0.89225   0.00000  Uiso   1.00
O178   O     0.52222   0.09101   0.40651   0.00000  Uiso   1.00
N179   N     0.24683   0.21957   0.98056   0.00000  Uiso   1.00
N180   N     0.92663   0.80694   0.01000   0.00000  Uiso   1.00
N181   N     0.43072   0.93026   0.37646   0.00000  Uiso   1.00
N182   N     0.24485   0.31686   0.83569   0.00000  Uiso   1.00
N183   N     0.92465   0.90423   0.86513   0.00000  Uiso   1.00
N184   N     0.42874   0.02755   0.23159   0.00000  Uiso   1.00
