data_job_03607
_audit_creation_date              2018-12-19
_audit_creation_method            'Materials Studio'
_symmetry_space_group_name_H-M    'P1'
_symmetry_Int_Tables_number       1
_symmetry_cell_setting            triclinic
loop_
_symmetry_equiv_pos_as_xyz
  x,y,z
_cell_length_a                    9.4207
_cell_length_b                    24.1531
_cell_length_c                    13.1291
_cell_angle_alpha                 90.0000
_cell_angle_beta                  79.1472
_cell_angle_gamma                 90.0000
loop_
_atom_site_label
_atom_site_type_symbol
_atom_site_fract_x
_atom_site_fract_y
_atom_site_fract_z
_atom_site_U_iso_or_equiv
_atom_site_adp_type
_atom_site_occupancy
C1     C     0.72593   0.32681   0.13492   0.00000  Uiso   1.00
C2     C     0.85007   0.34362   0.04828   0.00000  Uiso   1.00
C3     C     0.99533   0.34455   0.05497   0.00000  Uiso   1.00
C4     C     0.09218   0.36120   0.96714   0.00000  Uiso   1.00
C5     C     0.29206   0.38502   0.84651   0.00000  Uiso   1.00
C6     C     0.62198   0.37580   0.15046   0.00000  Uiso   1.00
C7     C     0.57544   0.40377   0.24306   0.00000  Uiso   1.00
C8     C     0.48026   0.44750   0.24124   0.00000  Uiso   1.00
C9     C     0.32594   0.52125   0.27926   0.00000  Uiso   1.00
C10    C     0.64660   0.28013   0.09096   0.00000  Uiso   1.00
C11    C     0.62072   0.22767   0.13354   0.00000  Uiso   1.00
C12    C     0.54623   0.19085   0.08163   0.00000  Uiso   1.00
C13    C     0.43014   0.11606   0.02727   0.00000  Uiso   1.00
C14    C     0.63963   0.35470   0.96704   0.00000  Uiso   1.00
C15    C     0.80319   0.35878   0.95710   0.00000  Uiso   1.00
C16    C     0.89985   0.37542   0.86923   0.00000  Uiso   1.00
C17    C     0.04522   0.37637   0.87578   0.00000  Uiso   1.00
C18    C     0.57511   0.39095   0.05928   0.00000  Uiso   1.00
C19    C     0.47996   0.43464   0.05733   0.00000  Uiso   1.00
C20    C     0.43330   0.46268   0.14989   0.00000  Uiso   1.00
C21    C     0.59972   0.29528   0.99977   0.00000  Uiso   1.00
C22    C     0.52525   0.25853   0.94780   0.00000  Uiso   1.00
C23    C     0.49927   0.20603   0.99028   0.00000  Uiso   1.00
H24    H     0.76242   0.31502   0.20591   0.00000  Uiso   1.00
H25    H     0.03156   0.33283   0.12555   0.00000  Uiso   1.00
H26    H     0.61172   0.39204   0.31362   0.00000  Uiso   1.00
H27    H     0.65701   0.21596   0.20410   0.00000  Uiso   1.00
H28    H     0.30927   0.35928   0.99626   0.00000  Uiso   1.00
H29    H     0.42399   0.48411   0.39281   0.00000  Uiso   1.00
H30    H     0.51947   0.11282   0.16189   0.00000  Uiso   1.00
H31    H     0.60313   0.36650   0.89605   0.00000  Uiso   1.00
H32    H     0.86354   0.38714   0.79868   0.00000  Uiso   1.00
H33    H     0.44371   0.44635   0.98675   0.00000  Uiso   1.00
H34    H     0.48899   0.27027   0.87724   0.00000  Uiso   1.00
H35    H     0.17291   0.40337   0.73096   0.00000  Uiso   1.00
H36    H     0.28762   0.52819   0.12752   0.00000  Uiso   1.00
H37    H     0.38311   0.15690   0.89659   0.00000  Uiso   1.00
O38    O     0.41526   0.39399   0.80517   0.00000  Uiso   1.00
O39    O     0.25379   0.55775   0.32543   0.00000  Uiso   1.00
O40    O     0.37907   0.07063   0.02246   0.00000  Uiso   1.00
N41    N     0.24144   0.36681   0.94718   0.00000  Uiso   1.00
N42    N     0.41378   0.48353   0.31793   0.00000  Uiso   1.00
N43    N     0.50301   0.13641   0.10205   0.00000  Uiso   1.00
N44    N     0.16807   0.39053   0.80442   0.00000  Uiso   1.00
N45    N     0.34040   0.50725   0.17517   0.00000  Uiso   1.00
N46    N     0.42963   0.16013   0.95929   0.00000  Uiso   1.00
C47    C     0.27407   0.82681   0.36508   0.00000  Uiso   1.00
C48    C     0.14993   0.84362   0.45172   0.00000  Uiso   1.00
C49    C     0.00467   0.84455   0.44503   0.00000  Uiso   1.00
C50    C     0.90782   0.86120   0.53286   0.00000  Uiso   1.00
C51    C     0.70794   0.88502   0.65349   0.00000  Uiso   1.00
C52    C     0.37802   0.87580   0.34954   0.00000  Uiso   1.00
C53    C     0.42456   0.90377   0.25694   0.00000  Uiso   1.00
C54    C     0.51974   0.94750   0.25876   0.00000  Uiso   1.00
C55    C     0.67406   0.02125   0.22074   0.00000  Uiso   1.00
C56    C     0.35340   0.78013   0.40904   0.00000  Uiso   1.00
C57    C     0.37928   0.72767   0.36646   0.00000  Uiso   1.00
C58    C     0.45377   0.69085   0.41837   0.00000  Uiso   1.00
C59    C     0.56986   0.61606   0.47273   0.00000  Uiso   1.00
C60    C     0.36037   0.85470   0.53296   0.00000  Uiso   1.00
C61    C     0.19681   0.85878   0.54290   0.00000  Uiso   1.00
C62    C     0.10015   0.87542   0.63077   0.00000  Uiso   1.00
C63    C     0.95478   0.87637   0.62422   0.00000  Uiso   1.00
C64    C     0.42489   0.89095   0.44072   0.00000  Uiso   1.00
C65    C     0.52004   0.93464   0.44267   0.00000  Uiso   1.00
C66    C     0.56670   0.96268   0.35011   0.00000  Uiso   1.00
C67    C     0.40028   0.79528   0.50023   0.00000  Uiso   1.00
C68    C     0.47475   0.75853   0.55220   0.00000  Uiso   1.00
C69    C     0.50073   0.70603   0.50972   0.00000  Uiso   1.00
H70    H     0.23758   0.81502   0.29409   0.00000  Uiso   1.00
H71    H     0.96844   0.83283   0.37445   0.00000  Uiso   1.00
H72    H     0.38828   0.89204   0.18638   0.00000  Uiso   1.00
H73    H     0.34299   0.71596   0.29590   0.00000  Uiso   1.00
H74    H     0.69073   0.85928   0.50374   0.00000  Uiso   1.00
H75    H     0.57601   0.98411   0.10719   0.00000  Uiso   1.00
H76    H     0.48053   0.61282   0.33811   0.00000  Uiso   1.00
H77    H     0.39687   0.86650   0.60395   0.00000  Uiso   1.00
H78    H     0.13646   0.88714   0.70132   0.00000  Uiso   1.00
H79    H     0.55629   0.94635   0.51325   0.00000  Uiso   1.00
H80    H     0.51101   0.77027   0.62276   0.00000  Uiso   1.00
H81    H     0.82709   0.90337   0.76904   0.00000  Uiso   1.00
H82    H     0.71238   0.02819   0.37248   0.00000  Uiso   1.00
H83    H     0.61689   0.65690   0.60341   0.00000  Uiso   1.00
O84    O     0.58474   0.89399   0.69483   0.00000  Uiso   1.00
O85    O     0.74621   0.05775   0.17457   0.00000  Uiso   1.00
O86    O     0.62093   0.57063   0.47754   0.00000  Uiso   1.00
N87    N     0.75856   0.86681   0.55282   0.00000  Uiso   1.00
N88    N     0.58622   0.98353   0.18207   0.00000  Uiso   1.00
N89    N     0.49699   0.63641   0.39795   0.00000  Uiso   1.00
N90    N     0.83193   0.89053   0.69558   0.00000  Uiso   1.00
N91    N     0.65960   0.00725   0.32483   0.00000  Uiso   1.00
N92    N     0.57037   0.66013   0.54071   0.00000  Uiso   1.00
C93    C     0.27407   0.67319   0.86508   0.00000  Uiso   1.00
C94    C     0.14993   0.65638   0.95172   0.00000  Uiso   1.00
C95    C     0.00467   0.65545   0.94503   0.00000  Uiso   1.00
C96    C     0.90782   0.63880   0.03286   0.00000  Uiso   1.00
C97    C     0.70794   0.61498   0.15349   0.00000  Uiso   1.00
C98    C     0.37802   0.62420   0.84954   0.00000  Uiso   1.00
C99    C     0.42456   0.59623   0.75694   0.00000  Uiso   1.00
C100   C     0.51974   0.55250   0.75876   0.00000  Uiso   1.00
C101   C     0.67406   0.47875   0.72074   0.00000  Uiso   1.00
C102   C     0.35340   0.71987   0.90904   0.00000  Uiso   1.00
C103   C     0.37928   0.77233   0.86646   0.00000  Uiso   1.00
C104   C     0.45377   0.80915   0.91837   0.00000  Uiso   1.00
C105   C     0.56986   0.88394   0.97273   0.00000  Uiso   1.00
C106   C     0.36037   0.64530   0.03296   0.00000  Uiso   1.00
C107   C     0.19681   0.64122   0.04290   0.00000  Uiso   1.00
C108   C     0.10015   0.62458   0.13077   0.00000  Uiso   1.00
C109   C     0.95478   0.62363   0.12422   0.00000  Uiso   1.00
C110   C     0.42489   0.60905   0.94072   0.00000  Uiso   1.00
C111   C     0.52004   0.56536   0.94267   0.00000  Uiso   1.00
C112   C     0.56670   0.53732   0.85011   0.00000  Uiso   1.00
C113   C     0.40028   0.70472   0.00023   0.00000  Uiso   1.00
C114   C     0.47475   0.74147   0.05220   0.00000  Uiso   1.00
C115   C     0.50073   0.79397   0.00972   0.00000  Uiso   1.00
H116   H     0.23758   0.68498   0.79409   0.00000  Uiso   1.00
H117   H     0.96844   0.66717   0.87445   0.00000  Uiso   1.00
H118   H     0.38828   0.60796   0.68638   0.00000  Uiso   1.00
H119   H     0.34299   0.78404   0.79590   0.00000  Uiso   1.00
H120   H     0.69073   0.64072   0.00374   0.00000  Uiso   1.00
H121   H     0.57601   0.51589   0.60719   0.00000  Uiso   1.00
H122   H     0.48053   0.88718   0.83811   0.00000  Uiso   1.00
H123   H     0.39687   0.63350   0.10395   0.00000  Uiso   1.00
H124   H     0.13646   0.61286   0.20132   0.00000  Uiso   1.00
H125   H     0.55629   0.55365   0.01325   0.00000  Uiso   1.00
H126   H     0.51101   0.72973   0.12276   0.00000  Uiso   1.00
H127   H     0.82709   0.59663   0.26904   0.00000  Uiso   1.00
H128   H     0.71238   0.47181   0.87248   0.00000  Uiso   1.00
H129   H     0.61689   0.84310   0.10341   0.00000  Uiso   1.00
O130   O     0.58474   0.60601   0.19483   0.00000  Uiso   1.00
O131   O     0.74621   0.44225   0.67457   0.00000  Uiso   1.00
O132   O     0.62093   0.92937   0.97754   0.00000  Uiso   1.00
N133   N     0.75856   0.63319   0.05282   0.00000  Uiso   1.00
N134   N     0.58622   0.51647   0.68207   0.00000  Uiso   1.00
N135   N     0.49699   0.86359   0.89795   0.00000  Uiso   1.00
N136   N     0.83193   0.60947   0.19558   0.00000  Uiso   1.00
N137   N     0.65960   0.49275   0.82483   0.00000  Uiso   1.00
N138   N     0.57037   0.83987   0.04071   0.00000  Uiso   1.00
C139   C     0.72593   0.17319   0.63492   0.00000  Uiso   1.00
C140   C     0.85007   0.15638   0.54828   0.00000  Uiso   1.00
C141   C     0.99533   0.15545   0.55497   0.00000  Uiso   1.00
C142   C     0.09218   0.13880   0.46714   0.00000  Uiso   1.00
C143   C     0.29206   0.11498   0.34651   0.00000  Uiso   1.00
C144   C     0.62198   0.12420   0.65046   0.00000  Uiso   1.00
C145   C     0.57544   0.09623   0.74306   0.00000  Uiso   1.00
C146   C     0.48026   0.05250   0.74124   0.00000  Uiso   1.00
C147   C     0.32594   0.97875   0.77926   0.00000  Uiso   1.00
C148   C     0.64660   0.21987   0.59096   0.00000  Uiso   1.00
C149   C     0.62072   0.27233   0.63354   0.00000  Uiso   1.00
C150   C     0.54623   0.30915   0.58163   0.00000  Uiso   1.00
C151   C     0.43014   0.38394   0.52727   0.00000  Uiso   1.00
C152   C     0.63963   0.14530   0.46704   0.00000  Uiso   1.00
C153   C     0.80319   0.14122   0.45710   0.00000  Uiso   1.00
C154   C     0.89985   0.12458   0.36923   0.00000  Uiso   1.00
C155   C     0.04522   0.12363   0.37578   0.00000  Uiso   1.00
C156   C     0.57511   0.10905   0.55928   0.00000  Uiso   1.00
C157   C     0.47996   0.06536   0.55733   0.00000  Uiso   1.00
C158   C     0.43330   0.03732   0.64989   0.00000  Uiso   1.00
C159   C     0.59972   0.20472   0.49977   0.00000  Uiso   1.00
C160   C     0.52525   0.24147   0.44780   0.00000  Uiso   1.00
C161   C     0.49927   0.29397   0.49028   0.00000  Uiso   1.00
H162   H     0.76242   0.18498   0.70591   0.00000  Uiso   1.00
H163   H     0.03156   0.16717   0.62555   0.00000  Uiso   1.00
H164   H     0.61172   0.10796   0.81362   0.00000  Uiso   1.00
H165   H     0.65701   0.28404   0.70410   0.00000  Uiso   1.00
H166   H     0.30927   0.14072   0.49626   0.00000  Uiso   1.00
H167   H     0.42399   0.01589   0.89281   0.00000  Uiso   1.00
H168   H     0.51947   0.38718   0.66189   0.00000  Uiso   1.00
H169   H     0.60313   0.13350   0.39605   0.00000  Uiso   1.00
H170   H     0.86354   0.11286   0.29868   0.00000  Uiso   1.00
H171   H     0.44371   0.05365   0.48675   0.00000  Uiso   1.00
H172   H     0.48899   0.22973   0.37724   0.00000  Uiso   1.00
H173   H     0.17291   0.09663   0.23096   0.00000  Uiso   1.00
H174   H     0.28762   0.97181   0.62752   0.00000  Uiso   1.00
H175   H     0.38311   0.34310   0.39659   0.00000  Uiso   1.00
O176   O     0.41526   0.10601   0.30517   0.00000  Uiso   1.00
O177   O     0.25379   0.94225   0.82543   0.00000  Uiso   1.00
O178   O     0.37907   0.42937   0.52246   0.00000  Uiso   1.00
N179   N     0.24144   0.13319   0.44718   0.00000  Uiso   1.00
N180   N     0.41378   0.01647   0.81793   0.00000  Uiso   1.00
N181   N     0.50301   0.36359   0.60205   0.00000  Uiso   1.00
N182   N     0.16807   0.10947   0.30442   0.00000  Uiso   1.00
N183   N     0.34040   0.99275   0.67517   0.00000  Uiso   1.00
N184   N     0.42963   0.33987   0.45929   0.00000  Uiso   1.00
