data_job_06856
_audit_creation_date              2018-12-19
_audit_creation_method            'Materials Studio'
_symmetry_space_group_name_H-M    'P1'
_symmetry_Int_Tables_number       1
_symmetry_cell_setting            triclinic
loop_
_symmetry_equiv_pos_as_xyz
  x,y,z
_cell_length_a                    16.9347
_cell_length_b                    24.0772
_cell_length_c                    25.8456
_cell_angle_alpha                 62.7422
_cell_angle_beta                  89.2270
_cell_angle_gamma                 88.3694
loop_
_atom_site_label
_atom_site_type_symbol
_atom_site_fract_x
_atom_site_fract_y
_atom_site_fract_z
_atom_site_U_iso_or_equiv
_atom_site_adp_type
_atom_site_occupancy
C1     C     0.29821   0.00682   0.64546   0.00000  Uiso   1.00
C2     C     0.24916   0.94835   0.66578   0.00000  Uiso   1.00
C3     C     0.17142   0.94265   0.68485   0.00000  Uiso   1.00
C4     C     0.13697   0.88527   0.70160   0.00000  Uiso   1.00
C5     C     0.05445   0.80205   0.73352   0.00000  Uiso   1.00
C6     C     0.37196   0.98711   0.68354   0.00000  Uiso   1.00
C7     C     0.39747   0.01401   0.71754   0.00000  Uiso   1.00
C8     C     0.46641   0.98926   0.74923   0.00000  Uiso   1.00
C9     C     0.57457   0.96626   0.80870   0.00000  Uiso   1.00
C10    C     0.32632   0.02211   0.58419   0.00000  Uiso   1.00
C11    C     0.31349   0.07845   0.53466   0.00000  Uiso   1.00
C12    C     0.34401   0.08318   0.48270   0.00000  Uiso   1.00
C13    C     0.38132   0.11452   0.38792   0.00000  Uiso   1.00
C14    C     0.37527   0.91505   0.64127   0.00000  Uiso   1.00
C15    C     0.29102   0.89850   0.66350   0.00000  Uiso   1.00
C16    C     0.25667   0.84112   0.68022   0.00000  Uiso   1.00
C17    C     0.17890   0.83534   0.69931   0.00000  Uiso   1.00
C18    C     0.41382   0.93727   0.68126   0.00000  Uiso   1.00
C19    C     0.48273   0.91248   0.71291   0.00000  Uiso   1.00
C20    C     0.50834   0.93933   0.74695   0.00000  Uiso   1.00
C21    C     0.36818   0.97227   0.58191   0.00000  Uiso   1.00
C22    C     0.39874   0.97692   0.53002   0.00000  Uiso   1.00
C23    C     0.38595   0.03325   0.48042   0.00000  Uiso   1.00
H24    H     0.26563   0.04562   0.64723   0.00000  Uiso   1.00
H25    H     0.13905   0.98123   0.68661   0.00000  Uiso   1.00
H26    H     0.36508   0.05258   0.71929   0.00000  Uiso   1.00
H27    H     0.28109   0.11701   0.53644   0.00000  Uiso   1.00
H28    H     0.01718   0.88785   0.72929   0.00000  Uiso   1.00
H29    H     0.49378   0.03832   0.79818   0.00000  Uiso   1.00
H30    H     0.31670   0.17417   0.41260   0.00000  Uiso   1.00
H31    H     0.40786   0.87625   0.63949   0.00000  Uiso   1.00
H32    H     0.28908   0.80256   0.67845   0.00000  Uiso   1.00
H33    H     0.51511   0.87391   0.71113   0.00000  Uiso   1.00
H34    H     0.43113   0.93834   0.52828   0.00000  Uiso   1.00
H35    H     0.13895   0.74283   0.72267   0.00000  Uiso   1.00
H36    H     0.61556   0.89330   0.79156   0.00000  Uiso   1.00
H37    H     0.43847   0.02915   0.40598   0.00000  Uiso   1.00
O38    O     0.99737   0.76991   0.75177   0.00000  Uiso   1.00
O39    O     0.62266   0.96733   0.84214   0.00000  Uiso   1.00
O40    O     0.39033   0.14557   0.33626   0.00000  Uiso   1.00
N41    N     0.06213   0.86384   0.72238   0.00000  Uiso   1.00
N42    N     0.50772   0.00451   0.78679   0.00000  Uiso   1.00
N43    N     0.34218   0.13153   0.42631   0.00000  Uiso   1.00
N44    N     0.12766   0.78580   0.71881   0.00000  Uiso   1.00
N45    N     0.57325   0.92647   0.78323   0.00000  Uiso   1.00
N46    N     0.40770   0.05349   0.42274   0.00000  Uiso   1.00
C47    C     0.07661   0.55817   0.04273   0.00000  Uiso   1.00
C48    C     0.03676   0.58185   0.98358   0.00000  Uiso   1.00
C49    C     0.97046   0.55686   0.97196   0.00000  Uiso   1.00
C50    C     0.94307   0.58521   0.91501   0.00000  Uiso   1.00
C51    C     0.87549   0.61413   0.82980   0.00000  Uiso   1.00
C52    C     0.16249   0.54369   0.03384   0.00000  Uiso   1.00
C53    C     0.20191   0.48661   0.06448   0.00000  Uiso   1.00
C54    C     0.28036   0.48284   0.04985   0.00000  Uiso   1.00
C55    C     0.40801   0.45252   0.04269   0.00000  Uiso   1.00
C56    C     0.07804   0.61391   0.05564   0.00000  Uiso   1.00
C57    C     0.04646   0.61589   0.10462   0.00000  Uiso   1.00
C58    C     0.05383   0.67124   0.10834   0.00000  Uiso   1.00
C59    C     0.05035   0.74996   0.13503   0.00000  Uiso   1.00
C60    C     0.14587   0.65294   0.96226   0.00000  Uiso   1.00
C61    C     0.07438   0.63333   0.93987   0.00000  Uiso   1.00
C62    C     0.04708   0.66172   0.88293   0.00000  Uiso   1.00
C63    C     0.98075   0.63678   0.87122   0.00000  Uiso   1.00
C64    C     0.20011   0.59516   0.99013   0.00000  Uiso   1.00
C65    C     0.27853   0.59147   0.97545   0.00000  Uiso   1.00
C66    C     0.31805   0.53441   0.00606   0.00000  Uiso   1.00
C67    C     0.11566   0.66539   0.01193   0.00000  Uiso   1.00
C68    C     0.12309   0.72074   0.01558   0.00000  Uiso   1.00
C69    C     0.09152   0.72280   0.06455   0.00000  Uiso   1.00
H70    H     0.04733   0.51809   0.07677   0.00000  Uiso   1.00
H71    H     0.94137   0.51702   0.00580   0.00000  Uiso   1.00
H72    H     0.17278   0.44679   0.09831   0.00000  Uiso   1.00
H73    H     0.01736   0.57604   0.13843   0.00000  Uiso   1.00
H74    H     0.84050   0.53853   0.90784   0.00000  Uiso   1.00
H75    H     0.32845   0.39044   0.10291   0.00000  Uiso   1.00
H76    H     0.00072   0.66300   0.18752   0.00000  Uiso   1.00
H77    H     0.17516   0.69302   0.92823   0.00000  Uiso   1.00
H78    H     0.07621   0.70155   0.84911   0.00000  Uiso   1.00
H79    H     0.30763   0.63131   0.94162   0.00000  Uiso   1.00
H80    H     0.15220   0.76057   0.98174   0.00000  Uiso   1.00
H81    H     0.94994   0.68830   0.78066   0.00000  Uiso   1.00
H82    H     0.43790   0.54020   0.97574   0.00000  Uiso   1.00
H83    H     0.11016   0.81277   0.06035   0.00000  Uiso   1.00
O84    O     0.82784   0.61586   0.79488   0.00000  Uiso   1.00
O85    O     0.46802   0.42157   0.05082   0.00000  Uiso   1.00
O86    O     0.03803   0.77916   0.16182   0.00000  Uiso   1.00
N87    N     0.87982   0.57261   0.88877   0.00000  Uiso   1.00
N88    N     0.33603   0.43415   0.07115   0.00000  Uiso   1.00
N89    N     0.02964   0.68897   0.15026   0.00000  Uiso   1.00
N90    N     0.93872   0.65320   0.82033   0.00000  Uiso   1.00
N91    N     0.39493   0.51474   0.00272   0.00000  Uiso   1.00
N92    N     0.08854   0.76956   0.08183   0.00000  Uiso   1.00
C93    C     0.68304   0.82057   0.39834   0.00000  Uiso   1.00
C94    C     0.63123   0.80507   0.45170   0.00000  Uiso   1.00
C95    C     0.55597   0.82959   0.45138   0.00000  Uiso   1.00
C96    C     0.51830   0.80951   0.50477   0.00000  Uiso   1.00
C97    C     0.43233   0.79201   0.57974   0.00000  Uiso   1.00
C98    C     0.76019   0.84399   0.41005   0.00000  Uiso   1.00
C99    C     0.79336   0.90122   0.37471   0.00000  Uiso   1.00
C100   C     0.86426   0.91390   0.39304   0.00000  Uiso   1.00
C101   C     0.97854   0.95680   0.40333   0.00000  Uiso   1.00
C102   C     0.70358   0.75835   0.39864   0.00000  Uiso   1.00
C103   C     0.68916   0.74358   0.35370   0.00000  Uiso   1.00
C104   C     0.71241   0.68415   0.36243   0.00000  Uiso   1.00
C105   C     0.73878   0.59408   0.35501   0.00000  Uiso   1.00
C106   C     0.74997   0.74131   0.49373   0.00000  Uiso   1.00
C107   C     0.66759   0.76202   0.50351   0.00000  Uiso   1.00
C108   C     0.63002   0.74189   0.55692   0.00000  Uiso   1.00
C109   C     0.55471   0.76638   0.55667   0.00000  Uiso   1.00
C110   C     0.79655   0.80094   0.46186   0.00000  Uiso   1.00
C111   C     0.86741   0.81353   0.48025   0.00000  Uiso   1.00
C112   C     0.90068   0.87077   0.44495   0.00000  Uiso   1.00
C113   C     0.73993   0.71529   0.45046   0.00000  Uiso   1.00
C114   C     0.76321   0.65588   0.45925   0.00000  Uiso   1.00
C115   C     0.74883   0.64102   0.41433   0.00000  Uiso   1.00
H116   H     0.65474   0.85409   0.35800   0.00000  Uiso   1.00
H117   H     0.52786   0.86291   0.41127   0.00000  Uiso   1.00
H118   H     0.76522   0.93453   0.33461   0.00000  Uiso   1.00
H119   H     0.66103   0.77690   0.31362   0.00000  Uiso   1.00
H120   H     0.40322   0.85371   0.49318   0.00000  Uiso   1.00
H121   H     0.90373   0.00472   0.33154   0.00000  Uiso   1.00
H122   H     0.68403   0.67234   0.28726   0.00000  Uiso   1.00
H123   H     0.77828   0.70779   0.53407   0.00000  Uiso   1.00
H124   H     0.65817   0.70858   0.59700   0.00000  Uiso   1.00
H125   H     0.89553   0.78020   0.52035   0.00000  Uiso   1.00
H126   H     0.79134   0.62258   0.49935   0.00000  Uiso   1.00
H127   H     0.50899   0.72846   0.64393   0.00000  Uiso   1.00
H128   H     0.00950   0.87946   0.48228   0.00000  Uiso   1.00
H129   H     0.78979   0.54708   0.43800   0.00000  Uiso   1.00
O130   O     0.37488   0.79426   0.60678   0.00000  Uiso   1.00
O131   O     0.03153   0.99237   0.39470   0.00000  Uiso   1.00
O132   O     0.74328   0.55629   0.33661   0.00000  Uiso   1.00
N133   N     0.44459   0.82412   0.52002   0.00000  Uiso   1.00
N134   N     0.91253   0.96530   0.36890   0.00000  Uiso   1.00
N135   N     0.70715   0.65456   0.32749   0.00000  Uiso   1.00
N136   N     0.50150   0.75672   0.60114   0.00000  Uiso   1.00
N137   N     0.96944   0.89790   0.45001   0.00000  Uiso   1.00
N138   N     0.76406   0.58716   0.40861   0.00000  Uiso   1.00
C139   C     0.18373   0.78403   0.37364   0.00000  Uiso   1.00
C140   C     0.13754   0.72420   0.40554   0.00000  Uiso   1.00
C141   C     0.06697   0.71122   0.38710   0.00000  Uiso   1.00
C142   C     0.03404   0.65385   0.42243   0.00000  Uiso   1.00
C143   C     0.95681   0.56745   0.46406   0.00000  Uiso   1.00
C144   C     0.26639   0.76364   0.36403   0.00000  Uiso   1.00
C145   C     0.30416   0.78382   0.31069   0.00000  Uiso   1.00
C146   C     0.37970   0.75966   0.31109   0.00000  Uiso   1.00
C147   C     0.50253   0.73452   0.28827   0.00000  Uiso   1.00
C148   C     0.19318   0.81024   0.41682   0.00000  Uiso   1.00
C149   C     0.16941   0.86961   0.40786   0.00000  Uiso   1.00
C150   C     0.18333   0.88469   0.45270   0.00000  Uiso   1.00
C151   C     0.19248   0.93191   0.51185   0.00000  Uiso   1.00
C152   C     0.25073   0.70522   0.46919   0.00000  Uiso   1.00
C153   C     0.17394   0.68139   0.45744   0.00000  Uiso   1.00
C154   C     0.14110   0.62403   0.49281   0.00000  Uiso   1.00
C155   C     0.07050   0.61097   0.47443   0.00000  Uiso   1.00
C156   C     0.30278   0.72083   0.41593   0.00000  Uiso   1.00
C157   C     0.37829   0.69663   0.41641   0.00000  Uiso   1.00
C158   C     0.41616   0.71677   0.36308   0.00000  Uiso   1.00
C159   C     0.22957   0.76743   0.46872   0.00000  Uiso   1.00
C160   C     0.24353   0.78242   0.51358   0.00000  Uiso   1.00
C161   C     0.21979   0.84181   0.50469   0.00000  Uiso   1.00
H162   H     0.15540   0.81735   0.33323   0.00000  Uiso   1.00
H163   H     0.03883   0.74436   0.34693   0.00000  Uiso   1.00
H164   H     0.27598   0.81695   0.27053   0.00000  Uiso   1.00
H165   H     0.14125   0.90273   0.36769   0.00000  Uiso   1.00
H166   H     0.92566   0.64454   0.38499   0.00000  Uiso   1.00
H167   H     0.42571   0.79763   0.22391   0.00000  Uiso   1.00
H168   H     0.14161   0.97850   0.42879   0.00000  Uiso   1.00
H169   H     0.27907   0.67189   0.50960   0.00000  Uiso   1.00
H170   H     0.16928   0.59091   0.53298   0.00000  Uiso   1.00
H171   H     0.40643   0.66351   0.45658   0.00000  Uiso   1.00
H172   H     0.27170   0.74928   0.55374   0.00000  Uiso   1.00
H173   H     0.03154   0.52000   0.53599   0.00000  Uiso   1.00
H174   H     0.53160   0.67309   0.37491   0.00000  Uiso   1.00
H175   H     0.24749   0.85396   0.57979   0.00000  Uiso   1.00
O176   O     0.90416   0.53162   0.47268   0.00000  Uiso   1.00
O177   O     0.56022   0.73248   0.26135   0.00000  Uiso   1.00
O178   O     0.18747   0.96977   0.53015   0.00000  Uiso   1.00
N179   N     0.96564   0.62635   0.41733   0.00000  Uiso   1.00
N180   N     0.43315   0.76947   0.26672   0.00000  Uiso   1.00
N181   N     0.16755   0.93858   0.45826   0.00000  Uiso   1.00
N182   N     0.02261   0.55934   0.49858   0.00000  Uiso   1.00
N183   N     0.49013   0.70246   0.34798   0.00000  Uiso   1.00
N184   N     0.22453   0.87156   0.53952   0.00000  Uiso   1.00
C185   C     0.58741   0.57912   0.04294   0.00000  Uiso   1.00
C186   C     0.53314   0.63694   0.01562   0.00000  Uiso   1.00
C187   C     0.45477   0.64041   0.03050   0.00000  Uiso   1.00
C188   C     0.41522   0.69755   0.00042   0.00000  Uiso   1.00
C189   C     0.32525   0.77946   0.96463   0.00000  Uiso   1.00
C190   C     0.65896   0.59833   0.06562   0.00000  Uiso   1.00
C191   C     0.68638   0.56933   0.12254   0.00000  Uiso   1.00
C192   C     0.75276   0.59397   0.13454   0.00000  Uiso   1.00
C193   C     0.85816   0.61591   0.17637   0.00000  Uiso   1.00
C194   C     0.61752   0.56741   0.99283   0.00000  Uiso   1.00
C195   C     0.61011   0.51241   0.98854   0.00000  Uiso   1.00
C196   C     0.64161   0.51101   0.93926   0.00000  Uiso   1.00
C197   C     0.68267   0.48494   0.86806   0.00000  Uiso   1.00
C198   C     0.65656   0.67443   0.96305   0.00000  Uiso   1.00
C199   C     0.57070   0.68871   0.97223   0.00000  Uiso   1.00
C200   C     0.53126   0.74586   0.94212   0.00000  Uiso   1.00
C201   C     0.45284   0.74941   0.95695   0.00000  Uiso   1.00
C202   C     0.69652   0.65010   0.02224   0.00000  Uiso   1.00
C203   C     0.76288   0.67478   0.03416   0.00000  Uiso   1.00
C204   C     0.79038   0.64583   0.09108   0.00000  Uiso   1.00
C205   C     0.65508   0.61918   0.94944   0.00000  Uiso   1.00
C206   C     0.68660   0.61786   0.90016   0.00000  Uiso   1.00
C207   C     0.67924   0.56287   0.89580   0.00000  Uiso   1.00
H208   H     0.55818   0.53882   0.07672   0.00000  Uiso   1.00
H209   H     0.42572   0.60033   0.06408   0.00000  Uiso   1.00
H210   H     0.65731   0.52927   0.15610   0.00000  Uiso   1.00
H211   H     0.58104   0.47236   0.02212   0.00000  Uiso   1.00
H212   H     0.29545   0.69138   0.03096   0.00000  Uiso   1.00
H213   H     0.78376   0.54151   0.22498   0.00000  Uiso   1.00
H214   H     0.62295   0.42150   0.94246   0.00000  Uiso   1.00
H215   H     0.68580   0.71474   0.92927   0.00000  Uiso   1.00
H216   H     0.56034   0.78591   0.90855   0.00000  Uiso   1.00
H217   H     0.79193   0.71484   0.00057   0.00000  Uiso   1.00
H218   H     0.71566   0.65793   0.86659   0.00000  Uiso   1.00
H219   H     0.40471   0.84200   0.90472   0.00000  Uiso   1.00
H220   H     0.89303   0.69213   0.09875   0.00000  Uiso   1.00
H221   H     0.73221   0.57212   0.81623   0.00000  Uiso   1.00
O222   O     0.26525   0.81034   0.95688   0.00000  Uiso   1.00
O223   O     0.90592   0.61372   0.21143   0.00000  Uiso   1.00
O224   O     0.69493   0.45626   0.84077   0.00000  Uiso   1.00
N225   N     0.33837   0.71705   0.00408   0.00000  Uiso   1.00
N226   N     0.79492   0.57695   0.18549   0.00000  Uiso   1.00
N227   N     0.64459   0.46474   0.92136   0.00000  Uiso   1.00
N228   N     0.39717   0.79810   0.93615   0.00000  Uiso   1.00
N229   N     0.85371   0.65800   0.11756   0.00000  Uiso   1.00
N230   N     0.70338   0.54579   0.85344   0.00000  Uiso   1.00
C231   C     0.79288   0.03799   0.59863   0.00000  Uiso   1.00
C232   C     0.75010   0.01398   0.56158   0.00000  Uiso   1.00
C233   C     0.68098   0.03949   0.53047   0.00000  Uiso   1.00
C234   C     0.65119   0.01072   0.49927   0.00000  Uiso   1.00
C235   C     0.57900   0.98142   0.44173   0.00000  Uiso   1.00
C236   C     0.87691   0.05101   0.57489   0.00000  Uiso   1.00
C237   C     0.91442   0.10766   0.55498   0.00000  Uiso   1.00
C238   C     0.99138   0.11006   0.53499   0.00000  Uiso   1.00
C239   C     0.11610   0.13824   0.49815   0.00000  Uiso   1.00
C240   C     0.79959   0.98288   0.65934   0.00000  Uiso   1.00
C241   C     0.77211   0.98224   0.71044   0.00000  Uiso   1.00
C242   C     0.78399   0.92727   0.76156   0.00000  Uiso   1.00
C243   C     0.78866   0.84967   0.85585   0.00000  Uiso   1.00
C244   C     0.86286   0.94152   0.59854   0.00000  Uiso   1.00
C245   C     0.78811   0.96158   0.56154   0.00000  Uiso   1.00
C246   C     0.75841   0.93276   0.53038   0.00000  Uiso   1.00
C247   C     0.68926   0.95822   0.49922   0.00000  Uiso   1.00
C248   C     0.91492   0.99862   0.57485   0.00000  Uiso   1.00
C249   C     0.99185   0.00093   0.55489   0.00000  Uiso   1.00
C250   C     0.02947   0.05756   0.53494   0.00000  Uiso   1.00
C251   C     0.83760   0.93048   0.65930   0.00000  Uiso   1.00
C252   C     0.84954   0.87550   0.71035   0.00000  Uiso   1.00
C253   C     0.82208   0.87478   0.76151   0.00000  Uiso   1.00
H254   H     0.76329   0.07879   0.59866   0.00000  Uiso   1.00
H255   H     0.65159   0.08005   0.53051   0.00000  Uiso   1.00
H256   H     0.88499   0.14820   0.55502   0.00000  Uiso   1.00
H257   H     0.74270   0.02280   0.71046   0.00000  Uiso   1.00
H258   H     0.54452   0.05835   0.45491   0.00000  Uiso   1.00
H259   H     0.03668   0.20205   0.50662   0.00000  Uiso   1.00
H260   H     0.73663   0.93761   0.83439   0.00000  Uiso   1.00
H261   H     0.89246   0.90072   0.59851   0.00000  Uiso   1.00
H262   H     0.78784   0.89221   0.53035   0.00000  Uiso   1.00
H263   H     0.02125   0.96037   0.55486   0.00000  Uiso   1.00
H264   H     0.87896   0.83496   0.71030   0.00000  Uiso   1.00
H265   H     0.65512   0.90589   0.45478   0.00000  Uiso   1.00
H266   H     0.14728   0.04959   0.50649   0.00000  Uiso   1.00
H267   H     0.84722   0.78516   0.83426   0.00000  Uiso   1.00
O268   O     0.52868   0.97974   0.41000   0.00000  Uiso   1.00
O269   O     0.17438   0.16827   0.47784   0.00000  Uiso   1.00
O270   O     0.78072   0.82134   0.90787   0.00000  Uiso   1.00
N271   N     0.58490   0.02363   0.46425   0.00000  Uiso   1.00
N272   N     0.04504   0.15798   0.51258   0.00000  Uiso   1.00
N273   N     0.76453   0.91076   0.81902   0.00000  Uiso   1.00
N274   N     0.64441   0.94159   0.46418   0.00000  Uiso   1.00
N275   N     0.10454   0.07595   0.51251   0.00000  Uiso   1.00
N276   N     0.82404   0.82873   0.81895   0.00000  Uiso   1.00
C277   C     0.74038   0.17025   0.18764   0.00000  Uiso   1.00
C278   C     0.79100   0.15815   0.24029   0.00000  Uiso   1.00
C279   C     0.86340   0.18451   0.23862   0.00000  Uiso   1.00
C280   C     0.90041   0.16748   0.29156   0.00000  Uiso   1.00
C281   C     0.98419   0.15508   0.36530   0.00000  Uiso   1.00
C282   C     0.65998   0.19335   0.19827   0.00000  Uiso   1.00
C283   C     0.62222   0.24931   0.16127   0.00000  Uiso   1.00
C284   C     0.54894   0.26191   0.17884   0.00000  Uiso   1.00
C285   C     0.42929   0.30414   0.18733   0.00000  Uiso   1.00
C286   C     0.72698   0.10640   0.19082   0.00000  Uiso   1.00
C287   C     0.74553   0.08926   0.14754   0.00000  Uiso   1.00
C288   C     0.72863   0.02866   0.15883   0.00000  Uiso   1.00
C289   C     0.71301   0.93589   0.15574   0.00000  Uiso   1.00
C290   C     0.67737   0.09311   0.28462   0.00000  Uiso   1.00
C291   C     0.75677   0.11625   0.29297   0.00000  Uiso   1.00
C292   C     0.79368   0.09917   0.34592   0.00000  Uiso   1.00
C293   C     0.86613   0.12550   0.34433   0.00000  Uiso   1.00
C294   C     0.62575   0.15145   0.25095   0.00000  Uiso   1.00
C295   C     0.55251   0.16397   0.26857   0.00000  Uiso   1.00
C296   C     0.51465   0.21993   0.23161   0.00000  Uiso   1.00
C297   C     0.69275   0.06450   0.24350   0.00000  Uiso   1.00
C298   C     0.67582   0.00392   0.25485   0.00000  Uiso   1.00
C299   C     0.69434   0.98668   0.21160   0.00000  Uiso   1.00
H300   H     0.76702   0.20288   0.14663   0.00000  Uiso   1.00
H301   H     0.88986   0.21694   0.19784   0.00000  Uiso   1.00
H302   H     0.64872   0.28172   0.12050   0.00000  Uiso   1.00
H303   H     0.77201   0.12170   0.10678   0.00000  Uiso   1.00
H304   H     0.01094   0.21408   0.27786   0.00000  Uiso   1.00
H305   H     0.50247   0.35067   0.11478   0.00000  Uiso   1.00
H306   H     0.76245   0.01322   0.08584   0.00000  Uiso   1.00
H307   H     0.65072   0.06049   0.32564   0.00000  Uiso   1.00
H308   H     0.76718   0.06674   0.38668   0.00000  Uiso   1.00
H309   H     0.52604   0.13153   0.30934   0.00000  Uiso   1.00
H310   H     0.64933   0.97150   0.29562   0.00000  Uiso   1.00
H311   H     0.91137   0.09217   0.43113   0.00000  Uiso   1.00
H312   H     0.40289   0.22876   0.26804   0.00000  Uiso   1.00
H313   H     0.66288   0.89132   0.23911   0.00000  Uiso   1.00
O314   O     0.03986   0.15982   0.39142   0.00000  Uiso   1.00
O315   O     0.37275   0.33902   0.17746   0.00000  Uiso   1.00
O316   O     0.71385   0.89630   0.13949   0.00000  Uiso   1.00
N317   N     0.97153   0.18452   0.30555   0.00000  Uiso   1.00
N318   N     0.49614   0.31223   0.15308   0.00000  Uiso   1.00
N319   N     0.73919   0.99675   0.12602   0.00000  Uiso   1.00
N320   N     0.91796   0.11892   0.38803   0.00000  Uiso   1.00
N321   N     0.44257   0.24663   0.23556   0.00000  Uiso   1.00
N322   N     0.68561   0.93115   0.20849   0.00000  Uiso   1.00
C323   C     0.40345   0.94949   0.07461   0.00000  Uiso   1.00
C324   C     0.45430   0.89047   0.09132   0.00000  Uiso   1.00
C325   C     0.52915   0.87940   0.11579   0.00000  Uiso   1.00
C326   C     0.56594   0.82249   0.12791   0.00000  Uiso   1.00
C327   C     0.65048   0.73756   0.15569   0.00000  Uiso   1.00
C328   C     0.32559   0.92793   0.10719   0.00000  Uiso   1.00
C329   C     0.29223   0.94836   0.14500   0.00000  Uiso   1.00
C330   C     0.22066   0.92299   0.17047   0.00000  Uiso   1.00
C331   C     0.10535   0.89625   0.22286   0.00000  Uiso   1.00
C332   C     0.38401   0.97428   0.01026   0.00000  Uiso   1.00
C333   C     0.39974   0.03369   0.96657   0.00000  Uiso   1.00
C334   C     0.37735   0.04733   0.91044   0.00000  Uiso   1.00
C335   C     0.35274   0.09256   0.81233   0.00000  Uiso   1.00
C336   C     0.33568   0.86809   0.05261   0.00000  Uiso   1.00
C337   C     0.41749   0.84626   0.07936   0.00000  Uiso   1.00
C338   C     0.45417   0.78935   0.09144   0.00000  Uiso   1.00
C339   C     0.52907   0.77820   0.11593   0.00000  Uiso   1.00
C340   C     0.28878   0.88372   0.09524   0.00000  Uiso   1.00
C341   C     0.21725   0.85831   0.12065   0.00000  Uiso   1.00
C342   C     0.18378   0.87870   0.15850   0.00000  Uiso   1.00
C343   C     0.34721   0.93007   0.99830   0.00000  Uiso   1.00
C344   C     0.32477   0.94363   0.94223   0.00000  Uiso   1.00
C345   C     0.34047   0.00305   0.89846   0.00000  Uiso   1.00
H346   H     0.43211   0.98390   0.08392   0.00000  Uiso   1.00
H347   H     0.55762   0.91362   0.12504   0.00000  Uiso   1.00
H348   H     0.32072   0.98258   0.15424   0.00000  Uiso   1.00
H349   H     0.42823   0.06788   0.97584   0.00000  Uiso   1.00
H350   H     0.68052   0.81620   0.16538   0.00000  Uiso   1.00
H351   H     0.18101   0.96161   0.22693   0.00000  Uiso   1.00
H352   H     0.40770   0.14150   0.85074   0.00000  Uiso   1.00
H353   H     0.30702   0.83367   0.04330   0.00000  Uiso   1.00
H354   H     0.42567   0.75515   0.08219   0.00000  Uiso   1.00
H355   H     0.18878   0.82410   0.11139   0.00000  Uiso   1.00
H356   H     0.29628   0.90941   0.93299   0.00000  Uiso   1.00
H357   H     0.57343   0.68757   0.13060   0.00000  Uiso   1.00
H358   H     0.07391   0.83299   0.19215   0.00000  Uiso   1.00
H359   H     0.30061   0.01287   0.81597   0.00000  Uiso   1.00
O360   O     0.70728   0.70293   0.17432   0.00000  Uiso   1.00
O361   O     0.05192   0.89372   0.25507   0.00000  Uiso   1.00
O362   O     0.34935   0.12972   0.76152   0.00000  Uiso   1.00
N363   N     0.63904   0.79671   0.15184   0.00000  Uiso   1.00
N364   N     0.17203   0.93265   0.20940   0.00000  Uiso   1.00
N365   N     0.38395   0.10084   0.85770   0.00000  Uiso   1.00
N366   N     0.58142   0.72749   0.13313   0.00000  Uiso   1.00
N367   N     0.11440   0.86344   0.19069   0.00000  Uiso   1.00
N368   N     0.32633   0.03162   0.83898   0.00000  Uiso   1.00
C369   C     0.55863   0.37710   0.64664   0.00000  Uiso   1.00
C370   C     0.61344   0.39309   0.59469   0.00000  Uiso   1.00
C371   C     0.68854   0.36757   0.59671   0.00000  Uiso   1.00
C372   C     0.72923   0.38833   0.54441   0.00000  Uiso   1.00
C373   C     0.81937   0.40635   0.47171   0.00000  Uiso   1.00
C374   C     0.48213   0.35575   0.63168   0.00000  Uiso   1.00
C375   C     0.44684   0.29884   0.66480   0.00000  Uiso   1.00
C376   C     0.37699   0.28818   0.64363   0.00000  Uiso   1.00
C377   C     0.26326   0.24824   0.62838   0.00000  Uiso   1.00
C378   C     0.53832   0.43881   0.64743   0.00000  Uiso   1.00
C379   C     0.55025   0.45173   0.69381   0.00000  Uiso   1.00
C380   C     0.52769   0.51100   0.68591   0.00000  Uiso   1.00
C381   C     0.50120   0.60002   0.69512   0.00000  Uiso   1.00
C382   C     0.49734   0.45936   0.55015   0.00000  Uiso   1.00
C383   C     0.58014   0.43777   0.54228   0.00000  Uiso   1.00
C384   C     0.62073   0.45858   0.48996   0.00000  Uiso   1.00
C385   C     0.69588   0.43309   0.49191   0.00000  Uiso   1.00
C386   C     0.44884   0.40043   0.57927   0.00000  Uiso   1.00
C387   C     0.37903   0.38985   0.55805   0.00000  Uiso   1.00
C388   C     0.34364   0.33294   0.59113   0.00000  Uiso   1.00
C389   C     0.50503   0.48349   0.59502   0.00000  Uiso   1.00
C390   C     0.48244   0.54274   0.58705   0.00000  Uiso   1.00
C391   C     0.49434   0.55576   0.63341   0.00000  Uiso   1.00
H392   H     0.58455   0.34231   0.68744   0.00000  Uiso   1.00
H393   H     0.71428   0.33299   0.63728   0.00000  Uiso   1.00
H394   H     0.47261   0.26428   0.70536   0.00000  Uiso   1.00
H395   H     0.57601   0.41714   0.73436   0.00000  Uiso   1.00
H396   H     0.84342   0.34234   0.55855   0.00000  Uiso   1.00
H397   H     0.33384   0.19747   0.70211   0.00000  Uiso   1.00
H398   H     0.55187   0.51982   0.76326   0.00000  Uiso   1.00
H399   H     0.47142   0.49414   0.50935   0.00000  Uiso   1.00
H400   H     0.59495   0.49316   0.44941   0.00000  Uiso   1.00
H401   H     0.35328   0.42444   0.51749   0.00000  Uiso   1.00
H402   H     0.45668   0.57731   0.54649   0.00000  Uiso   1.00
H403   H     0.74657   0.47234   0.40607   0.00000  Uiso   1.00
H404   H     0.23698   0.32746   0.54963   0.00000  Uiso   1.00
H405   H     0.45502   0.64982   0.61078   0.00000  Uiso   1.00
O406   O     0.87829   0.40394   0.44609   0.00000  Uiso   1.00
O407   O     0.20973   0.21387   0.63444   0.00000  Uiso   1.00
O408   O     0.49579   0.63679   0.71467   0.00000  Uiso   1.00
N409   N     0.80368   0.37308   0.53089   0.00000  Uiso   1.00
N410   N     0.32726   0.23763   0.66510   0.00000  Uiso   1.00
N411   N     0.53108   0.53899   0.72228   0.00000  Uiso   1.00
N412   N     0.75156   0.44303   0.44884   0.00000  Uiso   1.00
N413   N     0.27514   0.30758   0.58306   0.00000  Uiso   1.00
N414   N     0.47897   0.60894   0.64024   0.00000  Uiso   1.00
C415   C     0.09262   0.37129   0.72591   0.00000  Uiso   1.00
C416   C     0.12220   0.43787   0.70077   0.00000  Uiso   1.00
C417   C     0.19671   0.45478   0.70933   0.00000  Uiso   1.00
C418   C     0.21230   0.51815   0.68261   0.00000  Uiso   1.00
C419   C     0.26687   0.61471   0.64878   0.00000  Uiso   1.00
C420   C     0.01788   0.36997   0.75999   0.00000  Uiso   1.00
C421   C     0.00467   0.32979   0.81832   0.00000  Uiso   1.00
C422   C     0.93243   0.33600   0.84144   0.00000  Uiso   1.00
C423   C     0.82502   0.32712   0.89953   0.00000  Uiso   1.00
C424   C     0.06596   0.36256   0.67404   0.00000  Uiso   1.00
C425   C     0.09317   0.31613   0.66012   0.00000  Uiso   1.00
C426   C     0.06140   0.31610   0.61089   0.00000  Uiso   1.00
C427   C     0.02865   0.29571   0.53553   0.00000  Uiso   1.00
C428   C     0.98781   0.45377   0.66326   0.00000  Uiso   1.00
C429   C     0.06527   0.48267   0.66674   0.00000  Uiso   1.00
C430   C     0.08075   0.54603   0.64000   0.00000  Uiso   1.00
C431   C     0.15527   0.56303   0.64851   0.00000  Uiso   1.00
C432   C     0.96095   0.41477   0.72596   0.00000  Uiso   1.00
C433   C     0.88871   0.42104   0.74900   0.00000  Uiso   1.00
C434   C     0.87540   0.38088   0.80735   0.00000  Uiso   1.00
C435   C     0.00903   0.40736   0.64001   0.00000  Uiso   1.00
C436   C     0.97721   0.40739   0.59079   0.00000  Uiso   1.00
C437   C     0.00437   0.36098   0.57679   0.00000  Uiso   1.00
H438   H     0.13694   0.33641   0.75241   0.00000  Uiso   1.00
H439   H     0.24075   0.42009   0.73567   0.00000  Uiso   1.00
H440   H     0.04873   0.29512   0.84464   0.00000  Uiso   1.00
H441   H     0.13722   0.28147   0.68646   0.00000  Uiso   1.00
H442   H     0.33072   0.53263   0.70212   0.00000  Uiso   1.00
H443   H     0.92584   0.26910   0.93189   0.00000  Uiso   1.00
H444   H     0.11244   0.24032   0.59834   0.00000  Uiso   1.00
H445   H     0.94349   0.48865   0.63676   0.00000  Uiso   1.00
H446   H     0.03668   0.58069   0.61367   0.00000  Uiso   1.00
H447   H     0.84467   0.45571   0.72265   0.00000  Uiso   1.00
H448   H     0.93316   0.44207   0.56447   0.00000  Uiso   1.00
H449   H     0.16510   0.66297   0.60311   0.00000  Uiso   1.00
H450   H     0.76021   0.39944   0.83287   0.00000  Uiso   1.00
H451   H     0.94681   0.37066   0.49932   0.00000  Uiso   1.00
O452   O     0.31270   0.65560   0.63953   0.00000  Uiso   1.00
O453   O     0.78151   0.30985   0.94097   0.00000  Uiso   1.00
O454   O     0.02632   0.27210   0.50336   0.00000  Uiso   1.00
N455   N     0.27896   0.55067   0.68198   0.00000  Uiso   1.00
N456   N     0.90042   0.30430   0.89680   0.00000  Uiso   1.00
N457   N     0.07486   0.27738   0.58497   0.00000  Uiso   1.00
N458   N     0.18984   0.62081   0.62870   0.00000  Uiso   1.00
N459   N     0.81130   0.37443   0.84352   0.00000  Uiso   1.00
N460   N     0.98574   0.34752   0.53168   0.00000  Uiso   1.00
C461   C     0.90957   0.97564   0.02161   0.00000  Uiso   1.00
C462   C     0.96040   0.95851   0.98162   0.00000  Uiso   1.00
C463   C     0.03230   0.98436   0.95749   0.00000  Uiso   1.00
C464   C     0.06962   0.96240   0.92204   0.00000  Uiso   1.00
C465   C     0.15362   0.94285   0.86158   0.00000  Uiso   1.00
C466   C     0.82880   0.99541   0.99253   0.00000  Uiso   1.00
C467   C     0.79004   0.05228   0.97757   0.00000  Uiso   1.00
C468   C     0.71657   0.06137   0.95131   0.00000  Uiso   1.00
C469   C     0.59623   0.09908   0.90783   0.00000  Uiso   1.00
C470   C     0.89732   0.91477   0.07694   0.00000  Uiso   1.00
C471   C     0.91614   0.90385   0.13296   0.00000  Uiso   1.00
C472   C     0.90034   0.84507   0.17776   0.00000  Uiso   1.00
C473   C     0.88638   0.75759   0.26533   0.00000  Uiso   1.00
C474   C     0.84801   0.89066   0.00157   0.00000  Uiso   1.00
C475   C     0.92696   0.91235   0.97074   0.00000  Uiso   1.00
C476   C     0.96419   0.89035   0.93532   0.00000  Uiso   1.00
C477   C     0.03613   0.91616   0.91113   0.00000  Uiso   1.00
C478   C     0.79536   0.94925   0.98164   0.00000  Uiso   1.00
C479   C     0.72193   0.95826   0.95540   0.00000  Uiso   1.00
C480   C     0.68307   0.01514   0.94041   0.00000  Uiso   1.00
C481   C     0.86388   0.86862   0.06605   0.00000  Uiso   1.00
C482   C     0.84804   0.80984   0.11078   0.00000  Uiso   1.00
C483   C     0.86684   0.79883   0.16686   0.00000  Uiso   1.00
H484   H     0.93560   0.01157   0.03008   0.00000  Uiso   1.00
H485   H     0.05815   0.02008   0.96592   0.00000  Uiso   1.00
H486   H     0.81593   0.08798   0.98600   0.00000  Uiso   1.00
H487   H     0.94202   0.93958   0.14136   0.00000  Uiso   1.00
H488   H     0.17927   0.00918   0.88996   0.00000  Uiso   1.00
H489   H     0.66851   0.15234   0.93234   0.00000  Uiso   1.00
H490   H     0.93440   0.83941   0.25994   0.00000  Uiso   1.00
H491   H     0.82197   0.85473   0.99309   0.00000  Uiso   1.00
H492   H     0.93830   0.85463   0.92690   0.00000  Uiso   1.00
H493   H     0.69607   0.92253   0.94699   0.00000  Uiso   1.00
H494   H     0.82216   0.77413   0.10234   0.00000  Uiso   1.00
H495   H     0.08198   0.87489   0.85829   0.00000  Uiso   1.00
H496   H     0.57123   0.01806   0.90067   0.00000  Uiso   1.00
H497   H     0.83711   0.70513   0.22827   0.00000  Uiso   1.00
O498   O     0.20918   0.94482   0.83123   0.00000  Uiso   1.00
O499   O     0.53909   0.13264   0.88684   0.00000  Uiso   1.00
O500   O     0.88793   0.72208   0.31664   0.00000  Uiso   1.00
N501   N     0.14042   0.97758   0.89160   0.00000  Uiso   1.00
N502   N     0.66290   0.11144   0.93121   0.00000  Uiso   1.00
N503   N     0.91146   0.81888   0.23749   0.00000  Uiso   1.00
N504   N     0.08807   0.90532   0.87456   0.00000  Uiso   1.00
N505   N     0.61055   0.03918   0.91417   0.00000  Uiso   1.00
N506   N     0.85911   0.74662   0.22045   0.00000  Uiso   1.00
C507   C     0.25405   0.13186   0.18453   0.00000  Uiso   1.00
C508   C     0.30373   0.07208   0.21681   0.00000  Uiso   1.00
C509   C     0.37625   0.05895   0.19868   0.00000  Uiso   1.00
C510   C     0.41230   0.00166   0.23434   0.00000  Uiso   1.00
C511   C     0.49479   0.91531   0.27656   0.00000  Uiso   1.00
C512   C     0.17355   0.11133   0.17487   0.00000  Uiso   1.00
C513   C     0.13662   0.13120   0.12147   0.00000  Uiso   1.00
C514   C     0.06309   0.10695   0.12183   0.00000  Uiso   1.00
C515   C     0.94345   0.08157   0.09894   0.00000  Uiso   1.00
C516   C     0.24037   0.15844   0.22740   0.00000  Uiso   1.00
C517   C     0.25959   0.21794   0.21816   0.00000  Uiso   1.00
C518   C     0.24228   0.23336   0.26274   0.00000  Uiso   1.00
C519   C     0.22638   0.28113   0.32140   0.00000  Uiso   1.00
C520   C     0.18912   0.05347   0.28011   0.00000  Uiso   1.00
C521   C     0.26846   0.02951   0.26872   0.00000  Uiso   1.00
C522   C     0.30442   0.97222   0.30443   0.00000  Uiso   1.00
C523   C     0.37698   0.95901   0.28635   0.00000  Uiso   1.00
C524   C     0.13829   0.06875   0.22678   0.00000  Uiso   1.00
C525   C     0.06479   0.04447   0.22722   0.00000  Uiso   1.00
C526   C     0.02776   0.06430   0.17384   0.00000  Uiso   1.00
C527   C     0.20510   0.11586   0.27931   0.00000  Uiso   1.00
C528   C     0.18776   0.13120   0.32391   0.00000  Uiso   1.00
C529   C     0.20695   0.19071   0.31475   0.00000  Uiso   1.00
H530   H     0.28150   0.16501   0.14411   0.00000  Uiso   1.00
H531   H     0.40352   0.09191   0.15850   0.00000  Uiso   1.00
H532   H     0.16392   0.16416   0.08131   0.00000  Uiso   1.00
H533   H     0.28688   0.25087   0.17798   0.00000  Uiso   1.00
H534   H     0.52323   0.99209   0.19733   0.00000  Uiso   1.00
H535   H     0.01802   0.14443   0.03457   0.00000  Uiso   1.00
H536   H     0.27729   0.32729   0.23843   0.00000  Uiso   1.00
H537   H     0.16166   0.02032   0.32052   0.00000  Uiso   1.00
H538   H     0.27711   0.93928   0.34460   0.00000  Uiso   1.00
H539   H     0.03752   0.01153   0.26740   0.00000  Uiso   1.00
H540   H     0.16047   0.09824   0.36408   0.00000  Uiso   1.00
H541   H     0.42063   0.86821   0.34838   0.00000  Uiso   1.00
H542   H     0.91542   0.02055   0.18562   0.00000  Uiso   1.00
H543   H     0.17469   0.20341   0.38948   0.00000  Uiso   1.00
O544   O     0.55003   0.87944   0.28550   0.00000  Uiso   1.00
O545   O     0.88721   0.07932   0.07196   0.00000  Uiso   1.00
O546   O     0.22736   0.31923   0.33942   0.00000  Uiso   1.00
N547   N     0.48325   0.97406   0.22958   0.00000  Uiso   1.00
N548   N     0.01091   0.11648   0.07741   0.00000  Uiso   1.00
N549   N     0.25329   0.28745   0.26799   0.00000  Uiso   1.00
N550   N     0.42804   0.90740   0.31086   0.00000  Uiso   1.00
N551   N     0.95571   0.04983   0.15869   0.00000  Uiso   1.00
N552   N     0.19808   0.22079   0.34927   0.00000  Uiso   1.00
