data_job_06723
_audit_creation_date              2018-12-19
_audit_creation_method            'Materials Studio'
_symmetry_space_group_name_H-M    'P1'
_symmetry_Int_Tables_number       1
_symmetry_cell_setting            triclinic
loop_
_symmetry_equiv_pos_as_xyz
  x,y,z
_cell_length_a                    23.3780
_cell_length_b                    24.2206
_cell_length_c                    24.8126
_cell_angle_alpha                 111.3876
_cell_angle_beta                  89.1582
_cell_angle_gamma                 61.7152
loop_
_atom_site_label
_atom_site_type_symbol
_atom_site_fract_x
_atom_site_fract_y
_atom_site_fract_z
_atom_site_U_iso_or_equiv
_atom_site_adp_type
_atom_site_occupancy
C1     C     0.15456   0.03144   0.04555   0.00000  Uiso   1.00
C2     C     0.20567   0.04322   0.07756   0.00000  Uiso   1.00
C3     C     0.20619   0.05638   0.13681   0.00000  Uiso   1.00
C4     C     0.25717   0.06570   0.15770   0.00000  Uiso   1.00
C5     C     0.32910   0.08459   0.21306   0.00000  Uiso   1.00
C6     C     0.12510   0.08505   0.02005   0.00000  Uiso   1.00
C7     C     0.05788   0.13337   0.03094   0.00000  Uiso   1.00
C8     C     0.04104   0.17790   0.00341   0.00000  Uiso   1.00
C9     C     0.98789   0.26170   0.96944   0.00000  Uiso   1.00
C10    C     0.19432   0.96136   0.99225   0.00000  Uiso   1.00
C11    C     0.18528   0.90569   0.97977   0.00000  Uiso   1.00
C12    C     0.22670   0.84608   0.92883   0.00000  Uiso   1.00
C13    C     0.28101   0.73784   0.85171   0.00000  Uiso   1.00
C14    C     0.24417   0.02459   0.97727   0.00000  Uiso   1.00
C15    C     0.25434   0.03950   0.04047   0.00000  Uiso   1.00
C16    C     0.30533   0.04880   0.06128   0.00000  Uiso   1.00
C17    C     0.30593   0.06196   0.12055   0.00000  Uiso   1.00
C18    C     0.17377   0.08133   0.98296   0.00000  Uiso   1.00
C19    C     0.15703   0.12579   0.95540   0.00000  Uiso   1.00
C20    C     0.08980   0.17417   0.96626   0.00000  Uiso   1.00
C21    C     0.24299   0.95764   0.95517   0.00000  Uiso   1.00
C22    C     0.28443   0.89811   0.90423   0.00000  Uiso   1.00
C23    C     0.27546   0.84236   0.89168   0.00000  Uiso   1.00
H24    H     0.11666   0.03434   0.07442   0.00000  Uiso   1.00
H25    H     0.16851   0.05926   0.16550   0.00000  Uiso   1.00
H26    H     0.02023   0.13624   0.05964   0.00000  Uiso   1.00
H27    H     0.14761   0.90859   0.00848   0.00000  Uiso   1.00
H28    H     0.24744   0.08527   0.25013   0.00000  Uiso   1.00
H29    H     0.93478   0.24757   0.02690   0.00000  Uiso   1.00
H30    H     0.20338   0.76753   0.91902   0.00000  Uiso   1.00
H31    H     0.28207   0.02169   0.94840   0.00000  Uiso   1.00
H32    H     0.34299   0.04591   0.03257   0.00000  Uiso   1.00
H33    H     0.19471   0.12290   0.92670   0.00000  Uiso   1.00
H34    H     0.32209   0.89525   0.87554   0.00000  Uiso   1.00
H35    H     0.38905   0.07444   0.14224   0.00000  Uiso   1.00
H36    H     0.07639   0.23674   0.91900   0.00000  Uiso   1.00
H37    H     0.34500   0.75670   0.81112   0.00000  Uiso   1.00
O38    O     0.35533   0.09604   0.25383   0.00000  Uiso   1.00
O39    O     0.94513   0.30896   0.96095   0.00000  Uiso   1.00
O40    O     0.29753   0.67916   0.81941   0.00000  Uiso   1.00
N41    N     0.27241   0.07938   0.21319   0.00000  Uiso   1.00
N42    N     0.98010   0.23113   0.00448   0.00000  Uiso   1.00
N43    N     0.23121   0.78234   0.90361   0.00000  Uiso   1.00
N44    N     0.34862   0.07356   0.15513   0.00000  Uiso   1.00
N45    N     0.05630   0.22530   0.94643   0.00000  Uiso   1.00
N46    N     0.30741   0.77651   0.84556   0.00000  Uiso   1.00
C47    C     0.79617   0.05479   0.71696   0.00000  Uiso   1.00
C48    C     0.76518   0.09715   0.68148   0.00000  Uiso   1.00
C49    C     0.79666   0.11825   0.65257   0.00000  Uiso   1.00
C50    C     0.75978   0.15664   0.62253   0.00000  Uiso   1.00
C51    C     0.72170   0.21991   0.56762   0.00000  Uiso   1.00
C52    C     0.75020   0.09724   0.77890   0.00000  Uiso   1.00
C53    C     0.76908   0.11841   0.83188   0.00000  Uiso   1.00
C54    C     0.71960   0.15687   0.88385   0.00000  Uiso   1.00
C55    C     0.65826   0.22023   0.98018   0.00000  Uiso   1.00
C56    C     0.78988   0.99100   0.68920   0.00000  Uiso   1.00
C57    C     0.84213   0.92283   0.66679   0.00000  Uiso   1.00
C58    C     0.82605   0.87184   0.64326   0.00000  Uiso   1.00
C59    C     0.82632   0.77025   0.60033   0.00000  Uiso   1.00
C60    C     0.67471   0.08544   0.71505   0.00000  Uiso   1.00
C61    C     0.69921   0.11380   0.68045   0.00000  Uiso   1.00
C62    C     0.66228   0.15216   0.65045   0.00000  Uiso   1.00
C63    C     0.69370   0.17332   0.62149   0.00000  Uiso   1.00
C64    C     0.68423   0.11389   0.77786   0.00000  Uiso   1.00
C65    C     0.63470   0.15232   0.82976   0.00000  Uiso   1.00
C66    C     0.65351   0.17355   0.88281   0.00000  Uiso   1.00
C67    C     0.72391   0.00764   0.68816   0.00000  Uiso   1.00
C68    C     0.70775   0.95675   0.66467   0.00000  Uiso   1.00
C69    C     0.75996   0.88853   0.64222   0.00000  Uiso   1.00
H70    H     0.84753   0.04183   0.71778   0.00000  Uiso   1.00
H71    H     0.84771   0.10536   0.65339   0.00000  Uiso   1.00
H72    H     0.82014   0.10551   0.83267   0.00000  Uiso   1.00
H73    H     0.89317   0.90997   0.66760   0.00000  Uiso   1.00
H74    H     0.81881   0.18316   0.58156   0.00000  Uiso   1.00
H75    H     0.76069   0.18345   0.95959   0.00000  Uiso   1.00
H76    H     0.91469   0.77112   0.61151   0.00000  Uiso   1.00
H77    H     0.62335   0.09841   0.71424   0.00000  Uiso   1.00
H78    H     0.61123   0.16504   0.64965   0.00000  Uiso   1.00
H79    H     0.58366   0.16519   0.82894   0.00000  Uiso   1.00
H80    H     0.65669   0.96965   0.66387   0.00000  Uiso   1.00
H81    H     0.62688   0.23160   0.57853   0.00000  Uiso   1.00
H82    H     0.56875   0.23190   0.95657   0.00000  Uiso   1.00
H83    H     0.72275   0.81956   0.60848   0.00000  Uiso   1.00
O84    O     0.71891   0.25021   0.53763   0.00000  Uiso   1.00
O85    O     0.64265   0.25059   0.03360   0.00000  Uiso   1.00
O86    O     0.84470   0.70962   0.57693   0.00000  Uiso   1.00
N87    N     0.77531   0.18540   0.58970   0.00000  Uiso   1.00
N88    N     0.72096   0.18569   0.94314   0.00000  Uiso   1.00
N89    N     0.86494   0.80019   0.61773   0.00000  Uiso   1.00
N90    N     0.67203   0.21147   0.58807   0.00000  Uiso   1.00
N91    N     0.61768   0.21176   0.94151   0.00000  Uiso   1.00
N92    N     0.76166   0.82626   0.61610   0.00000  Uiso   1.00
C93    C     0.89365   0.98877   0.22928   0.00000  Uiso   1.00
C94    C     0.82307   0.01907   0.26300   0.00000  Uiso   1.00
C95    C     0.76658   0.03705   0.23979   0.00000  Uiso   1.00
C96    C     0.70662   0.06397   0.27785   0.00000  Uiso   1.00
C97    C     0.59752   0.10973   0.32122   0.00000  Uiso   1.00
C98    C     0.91716   0.03718   0.26484   0.00000  Uiso   1.00
C99    C     0.93978   0.07039   0.24315   0.00000  Uiso   1.00
C100   C     0.95903   0.11256   0.28276   0.00000  Uiso   1.00
C101   C     0.99604   0.18641   0.32897   0.00000  Uiso   1.00
C102   C     0.93660   0.92092   0.23462   0.00000  Uiso   1.00
C103   C     0.97559   0.85637   0.18753   0.00000  Uiso   1.00
C104   C     0.01123   0.80065   0.20170   0.00000  Uiso   1.00
C105   C     0.07844   0.69399   0.20099   0.00000  Uiso   1.00
C106   C     0.88763   0.00461   0.33816   0.00000  Uiso   1.00
C107   C     0.81980   0.02767   0.32214   0.00000  Uiso   1.00
C108   C     0.75992   0.05456   0.36025   0.00000  Uiso   1.00
C109   C     0.70335   0.07258   0.33709   0.00000  Uiso   1.00
C110   C     0.91388   0.04579   0.32397   0.00000  Uiso   1.00
C111   C     0.93311   0.08791   0.36362   0.00000  Uiso   1.00
C112   C     0.95575   0.12117   0.34201   0.00000  Uiso   1.00
C113   C     0.93333   0.92952   0.29376   0.00000  Uiso   1.00
C114   C     0.96892   0.87389   0.30800   0.00000  Uiso   1.00
C115   C     0.00795   0.80927   0.26094   0.00000  Uiso   1.00
H116   H     0.89621   0.98208   0.18324   0.00000  Uiso   1.00
H117   H     0.76914   0.03039   0.19402   0.00000  Uiso   1.00
H118   H     0.94231   0.06372   0.19739   0.00000  Uiso   1.00
H119   H     0.97811   0.84974   0.14177   0.00000  Uiso   1.00
H120   H     0.62681   0.08777   0.23206   0.00000  Uiso   1.00
H121   H     0.99198   0.15803   0.23915   0.00000  Uiso   1.00
H122   H     0.06748   0.70680   0.12188   0.00000  Uiso   1.00
H123   H     0.88508   0.01130   0.38421   0.00000  Uiso   1.00
H124   H     0.75740   0.06121   0.40602   0.00000  Uiso   1.00
H125   H     0.93057   0.09455   0.40938   0.00000  Uiso   1.00
H126   H     0.96638   0.88057   0.35377   0.00000  Uiso   1.00
H127   H     0.61728   0.11279   0.40412   0.00000  Uiso   1.00
H128   H     0.98245   0.18305   0.41121   0.00000  Uiso   1.00
H129   H     0.05796   0.73183   0.29395   0.00000  Uiso   1.00
O130   O     0.53825   0.13261   0.32881   0.00000  Uiso   1.00
O131   O     0.01735   0.22477   0.33811   0.00000  Uiso   1.00
O132   O     0.11640   0.63278   0.18426   0.00000  Uiso   1.00
N133   N     0.64209   0.08679   0.26956   0.00000  Uiso   1.00
N134   N     0.98349   0.15249   0.27619   0.00000  Uiso   1.00
N135   N     0.05410   0.73064   0.16655   0.00000  Uiso   1.00
N136   N     0.63696   0.10026   0.36214   0.00000  Uiso   1.00
N137   N     0.97836   0.16596   0.36878   0.00000  Uiso   1.00
N138   N     0.04897   0.74410   0.25914   0.00000  Uiso   1.00
C139   C     0.36391   0.57290   0.31365   0.00000  Uiso   1.00
C140   C     0.33140   0.62201   0.28411   0.00000  Uiso   1.00
C141   C     0.26331   0.66357   0.29088   0.00000  Uiso   1.00
C142   C     0.24358   0.70487   0.26009   0.00000  Uiso   1.00
C143   C     0.18599   0.78120   0.21975   0.00000  Uiso   1.00
C144   C     0.40892   0.59453   0.34783   0.00000  Uiso   1.00
C145   C     0.40600   0.61298   0.40817   0.00000  Uiso   1.00
C146   C     0.45153   0.63115   0.43103   0.00000  Uiso   1.00
C147   C     0.51431   0.66478   0.48961   0.00000  Uiso   1.00
C148   C     0.41039   0.50178   0.26331   0.00000  Uiso   1.00
C149   C     0.40873   0.44223   0.25258   0.00000  Uiso   1.00
C150   C     0.45551   0.38230   0.20428   0.00000  Uiso   1.00
C151   C     0.52058   0.27191   0.13162   0.00000  Uiso   1.00
C152   C     0.44997   0.57235   0.24694   0.00000  Uiso   1.00
C153   C     0.37814   0.62171   0.24788   0.00000  Uiso   1.00
C154   C     0.35851   0.66296   0.21707   0.00000  Uiso   1.00
C155   C     0.29040   0.70457   0.22379   0.00000  Uiso   1.00
C156   C     0.45566   0.59424   0.31160   0.00000  Uiso   1.00
C157   C     0.50121   0.61237   0.33437   0.00000  Uiso   1.00
C158   C     0.49836   0.63085   0.39473   0.00000  Uiso   1.00
C159   C     0.45713   0.50148   0.22707   0.00000  Uiso   1.00
C160   C     0.50393   0.44162   0.17878   0.00000  Uiso   1.00
C161   C     0.50233   0.38200   0.16798   0.00000  Uiso   1.00
H162   H     0.32753   0.57313   0.34187   0.00000  Uiso   1.00
H163   H     0.22715   0.66379   0.31893   0.00000  Uiso   1.00
H164   H     0.36983   0.61321   0.43620   0.00000  Uiso   1.00
H165   H     0.37255   0.44248   0.28063   0.00000  Uiso   1.00
H166   H     0.13648   0.76419   0.27753   0.00000  Uiso   1.00
H167   H     0.43733   0.65751   0.52481   0.00000  Uiso   1.00
H168   H     0.44308   0.29750   0.19677   0.00000  Uiso   1.00
H169   H     0.48636   0.57211   0.21873   0.00000  Uiso   1.00
H170   H     0.39470   0.66272   0.18903   0.00000  Uiso   1.00
H171   H     0.53737   0.61213   0.30631   0.00000  Uiso   1.00
H172   H     0.54009   0.44141   0.15075   0.00000  Uiso   1.00
H173   H     0.27246   0.76332   0.17211   0.00000  Uiso   1.00
H174   H     0.57332   0.65663   0.41939   0.00000  Uiso   1.00
H175   H     0.57906   0.29663   0.09134   0.00000  Uiso   1.00
O176   O     0.14131   0.82339   0.20752   0.00000  Uiso   1.00
O177   O     0.53603   0.68341   0.53194   0.00000  Uiso   1.00
O178   O     0.54355   0.21110   0.10155   0.00000  Uiso   1.00
N179   N     0.18106   0.75154   0.25678   0.00000  Uiso   1.00
N180   N     0.46234   0.65181   0.48798   0.00000  Uiso   1.00
N181   N     0.46772   0.31523   0.18130   0.00000  Uiso   1.00
N182   N     0.25424   0.75107   0.20006   0.00000  Uiso   1.00
N183   N     0.53551   0.65134   0.43125   0.00000  Uiso   1.00
N184   N     0.54089   0.31476   0.12457   0.00000  Uiso   1.00
C185   C     0.77047   0.67545   0.71277   0.00000  Uiso   1.00
C186   C     0.80970   0.70615   0.74706   0.00000  Uiso   1.00
C187   C     0.84862   0.72522   0.72453   0.00000  Uiso   1.00
C188   C     0.88052   0.75234   0.76303   0.00000  Uiso   1.00
C189   C     0.94245   0.79886   0.80732   0.00000  Uiso   1.00
C190   C     0.69828   0.72294   0.74830   0.00000  Uiso   1.00
C191   C     0.64352   0.75612   0.72682   0.00000  Uiso   1.00
C192   C     0.58164   0.79737   0.76637   0.00000  Uiso   1.00
C193   C     0.47058   0.86991   0.81258   0.00000  Uiso   1.00
C194   C     0.79481   0.60703   0.71725   0.00000  Uiso   1.00
C195   C     0.82121   0.54275   0.66966   0.00000  Uiso   1.00
C196   C     0.84058   0.48641   0.68306   0.00000  Uiso   1.00
C197   C     0.87940   0.37899   0.68106   0.00000  Uiso   1.00
C198   C     0.75791   0.68968   0.82119   0.00000  Uiso   1.00
C199   C     0.80287   0.71388   0.80595   0.00000  Uiso   1.00
C200   C     0.83473   0.74097   0.84449   0.00000  Uiso   1.00
C201   C     0.87369   0.76008   0.82202   0.00000  Uiso   1.00
C202   C     0.69145   0.73067   0.80719   0.00000  Uiso   1.00
C203   C     0.62963   0.77187   0.84678   0.00000  Uiso   1.00
C204   C     0.57480   0.80511   0.82537   0.00000  Uiso   1.00
C205   C     0.78799   0.61475   0.77614   0.00000  Uiso   1.00
C206   C     0.80732   0.55850   0.78962   0.00000  Uiso   1.00
C207   C     0.83374   0.49415   0.74206   0.00000  Uiso   1.00
H208   H     0.77577   0.66944   0.66692   0.00000  Uiso   1.00
H209   H     0.85388   0.71924   0.67895   0.00000  Uiso   1.00
H210   H     0.64882   0.75013   0.68124   0.00000  Uiso   1.00
H211   H     0.82648   0.53679   0.62409   0.00000  Uiso   1.00
H212   H     0.93745   0.77789   0.71827   0.00000  Uiso   1.00
H213   H     0.50506   0.84300   0.72309   0.00000  Uiso   1.00
H214   H     0.87969   0.39314   0.60258   0.00000  Uiso   1.00
H215   H     0.75259   0.69570   0.86705   0.00000  Uiso   1.00
H216   H     0.82944   0.74694   0.89006   0.00000  Uiso   1.00
H217   H     0.62437   0.77783   0.89235   0.00000  Uiso   1.00
H218   H     0.80203   0.56450   0.83520   0.00000  Uiso   1.00
H219   H     0.91761   0.80038   0.88962   0.00000  Uiso   1.00
H220   H     0.48522   0.86548   0.89444   0.00000  Uiso   1.00
H221   H     0.85985   0.41563   0.77393   0.00000  Uiso   1.00
O222   O     0.97848   0.82239   0.81548   0.00000  Uiso   1.00
O223   O     0.41120   0.90780   0.82180   0.00000  Uiso   1.00
O224   O     0.90271   0.31760   0.66369   0.00000  Uiso   1.00
N225   N     0.92225   0.77614   0.75544   0.00000  Uiso   1.00
N226   N     0.51799   0.83702   0.75995   0.00000  Uiso   1.00
N227   N     0.86822   0.41644   0.64728   0.00000  Uiso   1.00
N228   N     0.91157   0.78824   0.84764   0.00000  Uiso   1.00
N229   N     0.50731   0.84912   0.85215   0.00000  Uiso   1.00
N230   N     0.85755   0.42854   0.73948   0.00000  Uiso   1.00
C231   C     0.24707   0.57079   0.57816   0.00000  Uiso   1.00
C232   C     0.20729   0.60163   0.64134   0.00000  Uiso   1.00
C233   C     0.22965   0.61942   0.69289   0.00000  Uiso   1.00
C234   C     0.18569   0.64692   0.74638   0.00000  Uiso   1.00
C235   C     0.13365   0.69342   0.84422   0.00000  Uiso   1.00
C236   C     0.20486   0.61922   0.55060   0.00000  Uiso   1.00
C237   C     0.22518   0.65181   0.52584   0.00000  Uiso   1.00
C238   C     0.17919   0.69411   0.50293   0.00000  Uiso   1.00
C239   C     0.12339   0.76788   0.45985   0.00000  Uiso   1.00
C240   C     0.24832   0.50329   0.54482   0.00000  Uiso   1.00
C241   C     0.30517   0.43841   0.51518   0.00000  Uiso   1.00
C242   C     0.29576   0.38311   0.48740   0.00000  Uiso   1.00
C243   C     0.30744   0.27689   0.43533   0.00000  Uiso   1.00
C244   C     0.12926   0.58797   0.58149   0.00000  Uiso   1.00
C245   C     0.14330   0.61096   0.64315   0.00000  Uiso   1.00
C246   C     0.09930   0.63844   0.69658   0.00000  Uiso   1.00
C247   C     0.12159   0.65627   0.74819   0.00000  Uiso   1.00
C248   C     0.14088   0.62856   0.55241   0.00000  Uiso   1.00
C249   C     0.09484   0.67082   0.52953   0.00000  Uiso   1.00
C250   C     0.11508   0.70346   0.50475   0.00000  Uiso   1.00
C251   C     0.18433   0.51263   0.54662   0.00000  Uiso   1.00
C252   C     0.17483   0.45742   0.51887   0.00000  Uiso   1.00
C253   C     0.23166   0.39246   0.48921   0.00000  Uiso   1.00
H254   H     0.29689   0.56352   0.57675   0.00000  Uiso   1.00
H255   H     0.27917   0.61220   0.69147   0.00000  Uiso   1.00
H256   H     0.27471   0.64457   0.52444   0.00000  Uiso   1.00
H257   H     0.35468   0.43120   0.51379   0.00000  Uiso   1.00
H258   H     0.23129   0.67031   0.81947   0.00000  Uiso   1.00
H259   H     0.22190   0.73854   0.46726   0.00000  Uiso   1.00
H260   H     0.39054   0.28862   0.44479   0.00000  Uiso   1.00
H261   H     0.07944   0.59524   0.58289   0.00000  Uiso   1.00
H262   H     0.04978   0.64565   0.69796   0.00000  Uiso   1.00
H263   H     0.04532   0.67802   0.53093   0.00000  Uiso   1.00
H264   H     0.12530   0.46466   0.52028   0.00000  Uiso   1.00
H265   H     0.04511   0.69746   0.82473   0.00000  Uiso   1.00
H266   H     0.03572   0.76569   0.47252   0.00000  Uiso   1.00
H267   H     0.20437   0.31577   0.45006   0.00000  Uiso   1.00
O268   O     0.12261   0.71650   0.89768   0.00000  Uiso   1.00
O269   O     0.11029   0.80601   0.43559   0.00000  Uiso   1.00
O270   O     0.33155   0.21572   0.40612   0.00000  Uiso   1.00
N271   N     0.19155   0.66977   0.80491   0.00000  Uiso   1.00
N272   N     0.18276   0.73357   0.47563   0.00000  Uiso   1.00
N273   N     0.34043   0.31293   0.45461   0.00000  Uiso   1.00
N274   N     0.09137   0.68438   0.80775   0.00000  Uiso   1.00
N275   N     0.08258   0.74818   0.47846   0.00000  Uiso   1.00
N276   N     0.24025   0.32754   0.45745   0.00000  Uiso   1.00
C277   C     0.84544   0.96856   0.95445   0.00000  Uiso   1.00
C278   C     0.79433   0.95678   0.92244   0.00000  Uiso   1.00
C279   C     0.79381   0.94362   0.86319   0.00000  Uiso   1.00
C280   C     0.74283   0.93430   0.84230   0.00000  Uiso   1.00
C281   C     0.67090   0.91541   0.78694   0.00000  Uiso   1.00
C282   C     0.87490   0.91495   0.97995   0.00000  Uiso   1.00
C283   C     0.94212   0.86663   0.96906   0.00000  Uiso   1.00
C284   C     0.95896   0.82210   0.99659   0.00000  Uiso   1.00
C285   C     0.01211   0.73830   0.03056   0.00000  Uiso   1.00
C286   C     0.80568   0.03864   0.00775   0.00000  Uiso   1.00
C287   C     0.81472   0.09431   0.02023   0.00000  Uiso   1.00
C288   C     0.77330   0.15392   0.07117   0.00000  Uiso   1.00
C289   C     0.71899   0.26216   0.14829   0.00000  Uiso   1.00
C290   C     0.75583   0.97541   0.02273   0.00000  Uiso   1.00
C291   C     0.74566   0.96050   0.95953   0.00000  Uiso   1.00
C292   C     0.69467   0.95120   0.93872   0.00000  Uiso   1.00
C293   C     0.69407   0.93804   0.87945   0.00000  Uiso   1.00
C294   C     0.82623   0.91867   0.01704   0.00000  Uiso   1.00
C295   C     0.84297   0.87421   0.04460   0.00000  Uiso   1.00
C296   C     0.91020   0.82583   0.03374   0.00000  Uiso   1.00
C297   C     0.75701   0.04236   0.04483   0.00000  Uiso   1.00
C298   C     0.71557   0.10189   0.09577   0.00000  Uiso   1.00
C299   C     0.72454   0.15764   0.10832   0.00000  Uiso   1.00
H300   H     0.88334   0.96566   0.92558   0.00000  Uiso   1.00
H301   H     0.83149   0.94074   0.83450   0.00000  Uiso   1.00
H302   H     0.97977   0.86376   0.94036   0.00000  Uiso   1.00
H303   H     0.85239   0.09141   0.99152   0.00000  Uiso   1.00
H304   H     0.75256   0.91473   0.74987   0.00000  Uiso   1.00
H305   H     0.06522   0.75243   0.97310   0.00000  Uiso   1.00
H306   H     0.79662   0.23247   0.08098   0.00000  Uiso   1.00
H307   H     0.71793   0.97831   0.05160   0.00000  Uiso   1.00
H308   H     0.65701   0.95409   0.96743   0.00000  Uiso   1.00
H309   H     0.80529   0.87710   0.07330   0.00000  Uiso   1.00
H310   H     0.67791   0.10475   0.12446   0.00000  Uiso   1.00
H311   H     0.61095   0.92556   0.85776   0.00000  Uiso   1.00
H312   H     0.92361   0.76326   0.08100   0.00000  Uiso   1.00
H313   H     0.65500   0.24330   0.18888   0.00000  Uiso   1.00
O314   O     0.64467   0.90396   0.74617   0.00000  Uiso   1.00
O315   O     0.05487   0.69104   0.03905   0.00000  Uiso   1.00
O316   O     0.70247   0.32084   0.18059   0.00000  Uiso   1.00
N317   N     0.72759   0.92062   0.78681   0.00000  Uiso   1.00
N318   N     0.01990   0.76887   0.99552   0.00000  Uiso   1.00
N319   N     0.76879   0.21766   0.09639   0.00000  Uiso   1.00
N320   N     0.65138   0.92644   0.84487   0.00000  Uiso   1.00
N321   N     0.94370   0.77470   0.05357   0.00000  Uiso   1.00
N322   N     0.69259   0.22349   0.15444   0.00000  Uiso   1.00
C323   C     0.20383   0.94521   0.28304   0.00000  Uiso   1.00
C324   C     0.23482   0.90285   0.31852   0.00000  Uiso   1.00
C325   C     0.20334   0.88175   0.34743   0.00000  Uiso   1.00
C326   C     0.24022   0.84336   0.37747   0.00000  Uiso   1.00
C327   C     0.27830   0.78009   0.43238   0.00000  Uiso   1.00
C328   C     0.24980   0.90276   0.22110   0.00000  Uiso   1.00
C329   C     0.23092   0.88159   0.16812   0.00000  Uiso   1.00
C330   C     0.28040   0.84313   0.11615   0.00000  Uiso   1.00
C331   C     0.34174   0.77977   0.01982   0.00000  Uiso   1.00
C332   C     0.21012   0.00900   0.31080   0.00000  Uiso   1.00
C333   C     0.15787   0.07717   0.33321   0.00000  Uiso   1.00
C334   C     0.17395   0.12816   0.35674   0.00000  Uiso   1.00
C335   C     0.17368   0.22975   0.39967   0.00000  Uiso   1.00
C336   C     0.32529   0.91456   0.28495   0.00000  Uiso   1.00
C337   C     0.30079   0.88620   0.31955   0.00000  Uiso   1.00
C338   C     0.33772   0.84784   0.34955   0.00000  Uiso   1.00
C339   C     0.30630   0.82668   0.37851   0.00000  Uiso   1.00
C340   C     0.31577   0.88611   0.22214   0.00000  Uiso   1.00
C341   C     0.36530   0.84768   0.17024   0.00000  Uiso   1.00
C342   C     0.34649   0.82645   0.11719   0.00000  Uiso   1.00
C343   C     0.27609   0.99236   0.31184   0.00000  Uiso   1.00
C344   C     0.29225   0.04325   0.33533   0.00000  Uiso   1.00
C345   C     0.24004   0.11147   0.35778   0.00000  Uiso   1.00
H346   H     0.15247   0.95817   0.28222   0.00000  Uiso   1.00
H347   H     0.15229   0.89464   0.34661   0.00000  Uiso   1.00
H348   H     0.17986   0.89449   0.16733   0.00000  Uiso   1.00
H349   H     0.10683   0.09003   0.33240   0.00000  Uiso   1.00
H350   H     0.18119   0.81684   0.41844   0.00000  Uiso   1.00
H351   H     0.23931   0.81655   0.04041   0.00000  Uiso   1.00
H352   H     0.08531   0.22888   0.38849   0.00000  Uiso   1.00
H353   H     0.37665   0.90159   0.28576   0.00000  Uiso   1.00
H354   H     0.38877   0.83496   0.35035   0.00000  Uiso   1.00
H355   H     0.41634   0.83481   0.17106   0.00000  Uiso   1.00
H356   H     0.34331   0.03035   0.33613   0.00000  Uiso   1.00
H357   H     0.37312   0.76840   0.42147   0.00000  Uiso   1.00
H358   H     0.43125   0.76810   0.04343   0.00000  Uiso   1.00
H359   H     0.27725   0.18044   0.39152   0.00000  Uiso   1.00
O360   O     0.28109   0.74979   0.46237   0.00000  Uiso   1.00
O361   O     0.35735   0.74941   0.96640   0.00000  Uiso   1.00
O362   O     0.15530   0.29038   0.42307   0.00000  Uiso   1.00
N363   N     0.22469   0.81460   0.41030   0.00000  Uiso   1.00
N364   N     0.27904   0.81431   0.05686   0.00000  Uiso   1.00
N365   N     0.13506   0.19981   0.38227   0.00000  Uiso   1.00
N366   N     0.32797   0.78853   0.41193   0.00000  Uiso   1.00
N367   N     0.38232   0.78824   0.05849   0.00000  Uiso   1.00
N368   N     0.23834   0.17374   0.38390   0.00000  Uiso   1.00
C369   C     0.10635   0.01123   0.77072   0.00000  Uiso   1.00
C370   C     0.17693   0.98093   0.73700   0.00000  Uiso   1.00
C371   C     0.23342   0.96295   0.76021   0.00000  Uiso   1.00
C372   C     0.29338   0.93603   0.72215   0.00000  Uiso   1.00
C373   C     0.40248   0.89027   0.67878   0.00000  Uiso   1.00
C374   C     0.08284   0.96282   0.73516   0.00000  Uiso   1.00
C375   C     0.06022   0.92961   0.75685   0.00000  Uiso   1.00
C376   C     0.04097   0.88744   0.71724   0.00000  Uiso   1.00
C377   C     0.00396   0.81359   0.67103   0.00000  Uiso   1.00
C378   C     0.06340   0.07908   0.76538   0.00000  Uiso   1.00
C379   C     0.02441   0.14363   0.81247   0.00000  Uiso   1.00
C380   C     0.98877   0.19935   0.79830   0.00000  Uiso   1.00
C381   C     0.92156   0.30601   0.79901   0.00000  Uiso   1.00
C382   C     0.11237   0.99539   0.66184   0.00000  Uiso   1.00
C383   C     0.18020   0.97233   0.67786   0.00000  Uiso   1.00
C384   C     0.24008   0.94544   0.63975   0.00000  Uiso   1.00
C385   C     0.29665   0.92742   0.66291   0.00000  Uiso   1.00
C386   C     0.08612   0.95421   0.67603   0.00000  Uiso   1.00
C387   C     0.06689   0.91209   0.63638   0.00000  Uiso   1.00
C388   C     0.04425   0.87883   0.65799   0.00000  Uiso   1.00
C389   C     0.06667   0.07048   0.70624   0.00000  Uiso   1.00
C390   C     0.03108   0.12611   0.69200   0.00000  Uiso   1.00
C391   C     0.99205   0.19073   0.73906   0.00000  Uiso   1.00
H392   H     0.10379   0.01792   0.81676   0.00000  Uiso   1.00
H393   H     0.23086   0.96961   0.80598   0.00000  Uiso   1.00
H394   H     0.05769   0.93628   0.80261   0.00000  Uiso   1.00
H395   H     0.02189   0.15026   0.85823   0.00000  Uiso   1.00
H396   H     0.37319   0.91223   0.76794   0.00000  Uiso   1.00
H397   H     0.00802   0.84197   0.76085   0.00000  Uiso   1.00
H398   H     0.93252   0.29320   0.87812   0.00000  Uiso   1.00
H399   H     0.11492   0.98870   0.61579   0.00000  Uiso   1.00
H400   H     0.24260   0.93879   0.59398   0.00000  Uiso   1.00
H401   H     0.06943   0.90545   0.59062   0.00000  Uiso   1.00
H402   H     0.03362   0.11943   0.64623   0.00000  Uiso   1.00
H403   H     0.38272   0.88721   0.59588   0.00000  Uiso   1.00
H404   H     0.01755   0.81695   0.58879   0.00000  Uiso   1.00
H405   H     0.94204   0.26817   0.70605   0.00000  Uiso   1.00
O406   O     0.46175   0.86739   0.67119   0.00000  Uiso   1.00
O407   O     0.98265   0.77523   0.66189   0.00000  Uiso   1.00
O408   O     0.88360   0.36722   0.81574   0.00000  Uiso   1.00
N409   N     0.35791   0.91321   0.73044   0.00000  Uiso   1.00
N410   N     0.01651   0.84751   0.72381   0.00000  Uiso   1.00
N411   N     0.94590   0.26936   0.83345   0.00000  Uiso   1.00
N412   N     0.36304   0.89974   0.63786   0.00000  Uiso   1.00
N413   N     0.02164   0.83404   0.63122   0.00000  Uiso   1.00
N414   N     0.95103   0.25590   0.74086   0.00000  Uiso   1.00
C415   C     0.63609   0.42710   0.68635   0.00000  Uiso   1.00
C416   C     0.66860   0.37799   0.71589   0.00000  Uiso   1.00
C417   C     0.73669   0.33643   0.70912   0.00000  Uiso   1.00
C418   C     0.75642   0.29513   0.73991   0.00000  Uiso   1.00
C419   C     0.81401   0.21880   0.78025   0.00000  Uiso   1.00
C420   C     0.59108   0.40547   0.65217   0.00000  Uiso   1.00
C421   C     0.59400   0.38702   0.59183   0.00000  Uiso   1.00
C422   C     0.54847   0.36885   0.56897   0.00000  Uiso   1.00
C423   C     0.48569   0.33522   0.51039   0.00000  Uiso   1.00
C424   C     0.58961   0.49822   0.73669   0.00000  Uiso   1.00
C425   C     0.59127   0.55777   0.74742   0.00000  Uiso   1.00
C426   C     0.54449   0.61770   0.79572   0.00000  Uiso   1.00
C427   C     0.47942   0.72809   0.86838   0.00000  Uiso   1.00
C428   C     0.55003   0.42765   0.75306   0.00000  Uiso   1.00
C429   C     0.62186   0.37829   0.75212   0.00000  Uiso   1.00
C430   C     0.64149   0.33704   0.78293   0.00000  Uiso   1.00
C431   C     0.70960   0.29543   0.77621   0.00000  Uiso   1.00
C432   C     0.54434   0.40576   0.68840   0.00000  Uiso   1.00
C433   C     0.49879   0.38763   0.66563   0.00000  Uiso   1.00
C434   C     0.50164   0.36915   0.60527   0.00000  Uiso   1.00
C435   C     0.54287   0.49852   0.77293   0.00000  Uiso   1.00
C436   C     0.49607   0.55838   0.82122   0.00000  Uiso   1.00
C437   C     0.49767   0.61800   0.83202   0.00000  Uiso   1.00
H438   H     0.67247   0.42687   0.65813   0.00000  Uiso   1.00
H439   H     0.77285   0.33621   0.68107   0.00000  Uiso   1.00
H440   H     0.63017   0.38679   0.56380   0.00000  Uiso   1.00
H441   H     0.62745   0.55752   0.71937   0.00000  Uiso   1.00
H442   H     0.86352   0.23581   0.72247   0.00000  Uiso   1.00
H443   H     0.56267   0.34249   0.47519   0.00000  Uiso   1.00
H444   H     0.55692   0.70250   0.80323   0.00000  Uiso   1.00
H445   H     0.51364   0.42789   0.78127   0.00000  Uiso   1.00
H446   H     0.60530   0.33728   0.81097   0.00000  Uiso   1.00
H447   H     0.46263   0.38787   0.69369   0.00000  Uiso   1.00
H448   H     0.45991   0.55859   0.84925   0.00000  Uiso   1.00
H449   H     0.72754   0.23668   0.82789   0.00000  Uiso   1.00
H450   H     0.42668   0.34337   0.58061   0.00000  Uiso   1.00
H451   H     0.42094   0.70337   0.90866   0.00000  Uiso   1.00
O452   O     0.85869   0.17661   0.79248   0.00000  Uiso   1.00
O453   O     0.46397   0.31659   0.46806   0.00000  Uiso   1.00
O454   O     0.45645   0.78890   0.89845   0.00000  Uiso   1.00
N455   N     0.81894   0.24846   0.74322   0.00000  Uiso   1.00
N456   N     0.53766   0.34819   0.51202   0.00000  Uiso   1.00
N457   N     0.53228   0.68477   0.81870   0.00000  Uiso   1.00
N458   N     0.74576   0.24893   0.79994   0.00000  Uiso   1.00
N459   N     0.46449   0.34866   0.56875   0.00000  Uiso   1.00
N460   N     0.45911   0.68524   0.87543   0.00000  Uiso   1.00
C461   C     0.22953   0.32455   0.28723   0.00000  Uiso   1.00
C462   C     0.19030   0.29385   0.25294   0.00000  Uiso   1.00
C463   C     0.15138   0.27478   0.27547   0.00000  Uiso   1.00
C464   C     0.11948   0.24766   0.23697   0.00000  Uiso   1.00
C465   C     0.05755   0.20114   0.19268   0.00000  Uiso   1.00
C466   C     0.30172   0.27706   0.25170   0.00000  Uiso   1.00
C467   C     0.35648   0.24388   0.27318   0.00000  Uiso   1.00
C468   C     0.41836   0.20263   0.23363   0.00000  Uiso   1.00
C469   C     0.52942   0.13009   0.18742   0.00000  Uiso   1.00
C470   C     0.20519   0.39297   0.28275   0.00000  Uiso   1.00
C471   C     0.17879   0.45725   0.33034   0.00000  Uiso   1.00
C472   C     0.15942   0.51359   0.31694   0.00000  Uiso   1.00
C473   C     0.12060   0.62101   0.31894   0.00000  Uiso   1.00
C474   C     0.24209   0.31032   0.17881   0.00000  Uiso   1.00
C475   C     0.19713   0.28612   0.19405   0.00000  Uiso   1.00
C476   C     0.16527   0.25903   0.15551   0.00000  Uiso   1.00
C477   C     0.12631   0.23992   0.17798   0.00000  Uiso   1.00
C478   C     0.30855   0.26933   0.19281   0.00000  Uiso   1.00
C479   C     0.37037   0.22813   0.15322   0.00000  Uiso   1.00
C480   C     0.42520   0.19489   0.17463   0.00000  Uiso   1.00
C481   C     0.21201   0.38525   0.22386   0.00000  Uiso   1.00
C482   C     0.19268   0.44150   0.21038   0.00000  Uiso   1.00
C483   C     0.16626   0.50585   0.25794   0.00000  Uiso   1.00
H484   H     0.22423   0.33056   0.33308   0.00000  Uiso   1.00
H485   H     0.14612   0.28076   0.32105   0.00000  Uiso   1.00
H486   H     0.35118   0.24987   0.31876   0.00000  Uiso   1.00
H487   H     0.17352   0.46321   0.37591   0.00000  Uiso   1.00
H488   H     0.06255   0.22211   0.28173   0.00000  Uiso   1.00
H489   H     0.49494   0.15700   0.27691   0.00000  Uiso   1.00
H490   H     0.12031   0.60686   0.39742   0.00000  Uiso   1.00
H491   H     0.24741   0.30430   0.13295   0.00000  Uiso   1.00
H492   H     0.17056   0.25306   0.10994   0.00000  Uiso   1.00
H493   H     0.37563   0.22217   0.10765   0.00000  Uiso   1.00
H494   H     0.19797   0.43550   0.16480   0.00000  Uiso   1.00
H495   H     0.08239   0.19962   0.11038   0.00000  Uiso   1.00
H496   H     0.51478   0.13452   0.10556   0.00000  Uiso   1.00
H497   H     0.14015   0.58437   0.22607   0.00000  Uiso   1.00
O498   O     0.02152   0.17761   0.18452   0.00000  Uiso   1.00
O499   O     0.58880   0.09220   0.17820   0.00000  Uiso   1.00
O500   O     0.09729   0.68240   0.33631   0.00000  Uiso   1.00
N501   N     0.07775   0.22386   0.24456   0.00000  Uiso   1.00
N502   N     0.48201   0.16298   0.24005   0.00000  Uiso   1.00
N503   N     0.13178   0.58356   0.35272   0.00000  Uiso   1.00
N504   N     0.08843   0.21176   0.15236   0.00000  Uiso   1.00
N505   N     0.49269   0.15088   0.14785   0.00000  Uiso   1.00
N506   N     0.14245   0.57146   0.26052   0.00000  Uiso   1.00
C507   C     0.75293   0.42921   0.42184   0.00000  Uiso   1.00
C508   C     0.79271   0.39837   0.35866   0.00000  Uiso   1.00
C509   C     0.77035   0.38058   0.30711   0.00000  Uiso   1.00
C510   C     0.81431   0.35308   0.25362   0.00000  Uiso   1.00
C511   C     0.86635   0.30658   0.15578   0.00000  Uiso   1.00
C512   C     0.79514   0.38078   0.44940   0.00000  Uiso   1.00
C513   C     0.77482   0.34819   0.47416   0.00000  Uiso   1.00
C514   C     0.82081   0.30589   0.49707   0.00000  Uiso   1.00
C515   C     0.87661   0.23212   0.54015   0.00000  Uiso   1.00
C516   C     0.75168   0.49671   0.45518   0.00000  Uiso   1.00
C517   C     0.69483   0.56159   0.48482   0.00000  Uiso   1.00
C518   C     0.70424   0.61689   0.51260   0.00000  Uiso   1.00
C519   C     0.69256   0.72311   0.56467   0.00000  Uiso   1.00
C520   C     0.87074   0.41203   0.41851   0.00000  Uiso   1.00
C521   C     0.85670   0.38904   0.35685   0.00000  Uiso   1.00
C522   C     0.90070   0.36156   0.30342   0.00000  Uiso   1.00
C523   C     0.87841   0.34373   0.25181   0.00000  Uiso   1.00
C524   C     0.85912   0.37144   0.44759   0.00000  Uiso   1.00
C525   C     0.90516   0.32918   0.47047   0.00000  Uiso   1.00
C526   C     0.88492   0.29654   0.49525   0.00000  Uiso   1.00
C527   C     0.81567   0.48737   0.45338   0.00000  Uiso   1.00
C528   C     0.82517   0.54258   0.48113   0.00000  Uiso   1.00
C529   C     0.76834   0.60754   0.51079   0.00000  Uiso   1.00
H530   H     0.70311   0.43648   0.42325   0.00000  Uiso   1.00
H531   H     0.72083   0.38780   0.30853   0.00000  Uiso   1.00
H532   H     0.72529   0.35543   0.47556   0.00000  Uiso   1.00
H533   H     0.64532   0.56880   0.48621   0.00000  Uiso   1.00
H534   H     0.76871   0.32969   0.18053   0.00000  Uiso   1.00
H535   H     0.77810   0.26146   0.53274   0.00000  Uiso   1.00
H536   H     0.60946   0.71138   0.55521   0.00000  Uiso   1.00
H537   H     0.92056   0.40476   0.41711   0.00000  Uiso   1.00
H538   H     0.95022   0.35435   0.30204   0.00000  Uiso   1.00
H539   H     0.95468   0.32198   0.46907   0.00000  Uiso   1.00
H540   H     0.87470   0.53534   0.47972   0.00000  Uiso   1.00
H541   H     0.95489   0.30254   0.17527   0.00000  Uiso   1.00
H542   H     0.96428   0.23431   0.52748   0.00000  Uiso   1.00
H543   H     0.79563   0.68423   0.54994   0.00000  Uiso   1.00
O544   O     0.87739   0.28350   0.10232   0.00000  Uiso   1.00
O545   O     0.88971   0.19399   0.56441   0.00000  Uiso   1.00
O546   O     0.66845   0.78428   0.59388   0.00000  Uiso   1.00
N547   N     0.80845   0.33023   0.19509   0.00000  Uiso   1.00
N548   N     0.81724   0.26643   0.52437   0.00000  Uiso   1.00
N549   N     0.65957   0.68707   0.54539   0.00000  Uiso   1.00
N550   N     0.90863   0.31562   0.19225   0.00000  Uiso   1.00
N551   N     0.91742   0.25182   0.52154   0.00000  Uiso   1.00
N552   N     0.75975   0.67246   0.54255   0.00000  Uiso   1.00
