data_job_05031
_audit_creation_date              2018-12-19
_audit_creation_method            'Materials Studio'
_symmetry_space_group_name_H-M    'P1'
_symmetry_Int_Tables_number       1
_symmetry_cell_setting            triclinic
loop_
_symmetry_equiv_pos_as_xyz
  x,y,z
_cell_length_a                    15.0881
_cell_length_b                    28.7485
_cell_length_c                    12.5150
_cell_angle_alpha                 90.0000
_cell_angle_beta                  89.0163
_cell_angle_gamma                 90.0000
loop_
_atom_site_label
_atom_site_type_symbol
_atom_site_fract_x
_atom_site_fract_y
_atom_site_fract_z
_atom_site_U_iso_or_equiv
_atom_site_adp_type
_atom_site_occupancy
C1     C     0.53238   0.64603   0.09290   0.00000  Uiso   1.00
C2     C     0.56217   0.59559   0.08092   0.00000  Uiso   1.00
C3     C     0.64750   0.57910   0.09592   0.00000  Uiso   1.00
C4     C     0.66128   0.53177   0.08112   0.00000  Uiso   1.00
C5     C     0.71806   0.45797   0.06685   0.00000  Uiso   1.00
C6     C     0.49136   0.65934   0.98666   0.00000  Uiso   1.00
C7     C     0.51716   0.69646   0.92241   0.00000  Uiso   1.00
C8     C     0.47132   0.70280   0.82826   0.00000  Uiso   1.00
C9     C     0.41813   0.72799   0.66768   0.00000  Uiso   1.00
C10    C     0.45639   0.64566   0.17481   0.00000  Uiso   1.00
C11    C     0.45277   0.67130   0.26875   0.00000  Uiso   1.00
C12    C     0.37748   0.66613   0.33301   0.00000  Uiso   1.00
C13    C     0.26999   0.67009   0.46457   0.00000  Uiso   1.00
C14    C     0.40510   0.59129   0.03994   0.00000  Uiso   1.00
C15    C     0.49303   0.56585   0.05216   0.00000  Uiso   1.00
C16    C     0.50668   0.51854   0.03734   0.00000  Uiso   1.00
C17    C     0.59202   0.50198   0.05231   0.00000  Uiso   1.00
C18    C     0.42223   0.62961   0.95789   0.00000  Uiso   1.00
C19    C     0.37634   0.63589   0.86382   0.00000  Uiso   1.00
C20    C     0.40206   0.67301   0.79945   0.00000  Uiso   1.00
C21    C     0.38726   0.61593   0.14605   0.00000  Uiso   1.00
C22    C     0.31195   0.61072   0.21017   0.00000  Uiso   1.00
C23    C     0.30822   0.63634   0.30419   0.00000  Uiso   1.00
H24    H     0.58620   0.66919   0.11528   0.00000  Uiso   1.00
H25    H     0.70099   0.60213   0.11817   0.00000  Uiso   1.00
H26    H     0.57065   0.71947   0.94469   0.00000  Uiso   1.00
H27    H     0.50628   0.69430   0.29098   0.00000  Uiso   1.00
H28    H     0.79777   0.51467   0.10865   0.00000  Uiso   1.00
H29    H     0.52293   0.76210   0.74288   0.00000  Uiso   1.00
H30    H     0.38719   0.70903   0.47310   0.00000  Uiso   1.00
H31    H     0.35127   0.56814   0.01755   0.00000  Uiso   1.00
H32    H     0.45317   0.49554   0.01508   0.00000  Uiso   1.00
H33    H     0.32284   0.61288   0.84159   0.00000  Uiso   1.00
H34    H     0.25847   0.58771   0.18788   0.00000  Uiso   1.00
H35    H     0.59663   0.42816   0.02497   0.00000  Uiso   1.00
H36    H     0.32180   0.67559   0.65920   0.00000  Uiso   1.00
H37    H     0.18605   0.62252   0.38942   0.00000  Uiso   1.00
O38    O     0.76847   0.42548   0.06691   0.00000  Uiso   1.00
O39    O     0.40789   0.75010   0.58705   0.00000  Uiso   1.00
O40    O     0.22980   0.68048   0.54508   0.00000  Uiso   1.00
N41    N     0.73644   0.50427   0.08932   0.00000  Uiso   1.00
N42    N     0.47950   0.73560   0.74734   0.00000  Uiso   1.00
N43    N     0.35258   0.68600   0.43002   0.00000  Uiso   1.00
N44    N     0.62821   0.45772   0.04429   0.00000  Uiso   1.00
N45    N     0.37127   0.68905   0.70231   0.00000  Uiso   1.00
N46    N     0.24435   0.63945   0.38499   0.00000  Uiso   1.00
C47    C     0.22425   0.33062   0.10506   0.00000  Uiso   1.00
C48    C     0.17552   0.37678   0.09357   0.00000  Uiso   1.00
C49    C     0.08537   0.38375   0.11062   0.00000  Uiso   1.00
C50    C     0.05357   0.42857   0.09592   0.00000  Uiso   1.00
C51    C     0.96932   0.49468   0.08268   0.00000  Uiso   1.00
C52    C     0.27084   0.32188   0.99784   0.00000  Uiso   1.00
C53    C     0.26085   0.28269   0.93443   0.00000  Uiso   1.00
C54    C     0.30929   0.28129   0.83915   0.00000  Uiso   1.00
C55    C     0.37309   0.26215   0.67735   0.00000  Uiso   1.00
C56    C     0.29753   0.33926   0.18508   0.00000  Uiso   1.00
C57    C     0.30999   0.31469   0.27908   0.00000  Uiso   1.00
C58    C     0.38092   0.32793   0.34143   0.00000  Uiso   1.00
C59    C     0.48615   0.33579   0.47033   0.00000  Uiso   1.00
C60    C     0.32808   0.39783   0.04863   0.00000  Uiso   1.00
C61    C     0.23192   0.41328   0.06291   0.00000  Uiso   1.00
C62    C     0.20024   0.45810   0.04819   0.00000  Uiso   1.00
C63    C     0.11006   0.46514   0.06522   0.00000  Uiso   1.00
C64    C     0.32724   0.35838   0.96719   0.00000  Uiso   1.00
C65    C     0.37572   0.35704   0.87199   0.00000  Uiso   1.00
C66    C     0.36579   0.31786   0.80844   0.00000  Uiso   1.00
C67    C     0.35392   0.37577   0.15443   0.00000  Uiso   1.00
C68    C     0.42486   0.38904   0.21664   0.00000  Uiso   1.00
C69    C     0.43742   0.36449   0.31072   0.00000  Uiso   1.00
H70    H     0.18035   0.30220   0.12891   0.00000  Uiso   1.00
H71    H     0.04175   0.35549   0.13433   0.00000  Uiso   1.00
H72    H     0.21721   0.25444   0.95817   0.00000  Uiso   1.00
H73    H     0.26633   0.28644   0.30277   0.00000  Uiso   1.00
H74    H     0.91295   0.43066   0.12678   0.00000  Uiso   1.00
H75    H     0.28293   0.21759   0.75536   0.00000  Uiso   1.00
H76    H     0.38654   0.28507   0.48201   0.00000  Uiso   1.00
H77    H     0.37198   0.42625   0.02476   0.00000  Uiso   1.00
H78    H     0.24390   0.48634   0.02447   0.00000  Uiso   1.00
H79    H     0.41936   0.38529   0.84830   0.00000  Uiso   1.00
H80    H     0.46848   0.41729   0.19290   0.00000  Uiso   1.00
H81    H     0.07703   0.53687   0.03760   0.00000  Uiso   1.00
H82    H     0.44701   0.32380   0.66618   0.00000  Uiso   1.00
H83    H     0.55061   0.39127   0.39283   0.00000  Uiso   1.00
O84    O     0.90727   0.52106   0.08384   0.00000  Uiso   1.00
O85    O     0.39268   0.24151   0.59656   0.00000  Uiso   1.00
O86    O     0.52860   0.33004   0.54991   0.00000  Uiso   1.00
N87    N     0.96915   0.44741   0.10585   0.00000  Uiso   1.00
N88    N     0.31505   0.24821   0.75859   0.00000  Uiso   1.00
N89    N     0.41192   0.31128   0.43793   0.00000  Uiso   1.00
N90    N     0.05743   0.50456   0.05787   0.00000  Uiso   1.00
N91    N     0.40333   0.30536   0.71060   0.00000  Uiso   1.00
N92    N     0.50021   0.36843   0.38995   0.00000  Uiso   1.00
C93    C     0.69705   0.33411   0.72883   0.00000  Uiso   1.00
C94    C     0.67086   0.38518   0.73849   0.00000  Uiso   1.00
C95    C     0.58697   0.40325   0.72157   0.00000  Uiso   1.00
C96    C     0.57652   0.45091   0.73441   0.00000  Uiso   1.00
C97    C     0.52506   0.52588   0.74508   0.00000  Uiso   1.00
C98    C     0.73599   0.32073   0.83620   0.00000  Uiso   1.00
C99    C     0.70685   0.28460   0.90142   0.00000  Uiso   1.00
C100   C     0.75123   0.27800   0.99650   0.00000  Uiso   1.00
C101   C     0.80090   0.25288   0.15883   0.00000  Uiso   1.00
C102   C     0.77382   0.33240   0.64808   0.00000  Uiso   1.00
C103   C     0.77651   0.30607   0.55513   0.00000  Uiso   1.00
C104   C     0.85275   0.30929   0.49185   0.00000  Uiso   1.00
C105   C     0.96117   0.30229   0.36209   0.00000  Uiso   1.00
C106   C     0.82767   0.38664   0.78173   0.00000  Uiso   1.00
C107   C     0.74181   0.41372   0.76722   0.00000  Uiso   1.00
C108   C     0.73149   0.46137   0.78009   0.00000  Uiso   1.00
C109   C     0.64760   0.47950   0.76319   0.00000  Uiso   1.00
C110   C     0.80693   0.34926   0.86493   0.00000  Uiso   1.00
C111   C     0.85137   0.34272   0.95994   0.00000  Uiso   1.00
C112   C     0.82230   0.30659   0.02529   0.00000  Uiso   1.00
C113   C     0.84477   0.36093   0.67681   0.00000  Uiso   1.00
C114   C     0.92102   0.36419   0.61366   0.00000  Uiso   1.00
C115   C     0.92383   0.33787   0.52063   0.00000  Uiso   1.00
H116   H     0.64182   0.31189   0.70647   0.00000  Uiso   1.00
H117   H     0.53208   0.38116   0.69934   0.00000  Uiso   1.00
H118   H     0.65195   0.26252   0.87916   0.00000  Uiso   1.00
H119   H     0.72160   0.28399   0.53293   0.00000  Uiso   1.00
H120   H     0.44170   0.47053   0.70415   0.00000  Uiso   1.00
H121   H     0.69447   0.22037   0.08328   0.00000  Uiso   1.00
H122   H     0.84133   0.26565   0.35318   0.00000  Uiso   1.00
H123   H     0.88291   0.40885   0.80410   0.00000  Uiso   1.00
H124   H     0.78640   0.48344   0.80233   0.00000  Uiso   1.00
H125   H     0.90627   0.36480   0.98214   0.00000  Uiso   1.00
H126   H     0.97591   0.38627   0.63591   0.00000  Uiso   1.00
H127   H     0.64811   0.55354   0.78774   0.00000  Uiso   1.00
H128   H     0.90088   0.30338   0.16687   0.00000  Uiso   1.00
H129   H     0.04774   0.34866   0.43678   0.00000  Uiso   1.00
O130   O     0.47707   0.55935   0.74305   0.00000  Uiso   1.00
O131   O     0.80870   0.23115   0.24044   0.00000  Uiso   1.00
O132   O     0.00137   0.29055   0.28258   0.00000  Uiso   1.00
N133   N     0.50353   0.47983   0.72404   0.00000  Uiso   1.00
N134   N     0.73984   0.24595   0.07852   0.00000  Uiso   1.00
N135   N     0.87715   0.28827   0.39595   0.00000  Uiso   1.00
N136   N     0.61460   0.52450   0.76902   0.00000  Uiso   1.00
N137   N     0.85091   0.29062   0.12349   0.00000  Uiso   1.00
N138   N     0.98822   0.33294   0.44093   0.00000  Uiso   1.00
C139   C     0.03457   0.64396   0.72935   0.00000  Uiso   1.00
C140   C     0.08094   0.59694   0.73590   0.00000  Uiso   1.00
C141   C     0.17021   0.58879   0.71491   0.00000  Uiso   1.00
C142   C     0.19983   0.54333   0.72541   0.00000  Uiso   1.00
C143   C     0.28061   0.47580   0.73100   0.00000  Uiso   1.00
C144   C     0.99129   0.65201   0.83879   0.00000  Uiso   1.00
C145   C     0.00517   0.69019   0.90430   0.00000  Uiso   1.00
C146   C     0.95931   0.69108   0.00141   0.00000  Uiso   1.00
C147   C     0.90085   0.70908   0.16671   0.00000  Uiso   1.00
C148   C     0.95874   0.63750   0.65173   0.00000  Uiso   1.00
C149   C     0.94524   0.66348   0.55997   0.00000  Uiso   1.00
C150   C     0.87196   0.65217   0.49961   0.00000  Uiso   1.00
C151   C     0.76297   0.64763   0.37447   0.00000  Uiso   1.00
C152   C     0.92842   0.57768   0.78533   0.00000  Uiso   1.00
C153   C     0.02328   0.56094   0.76631   0.00000  Uiso   1.00
C154   C     0.05277   0.51547   0.77684   0.00000  Uiso   1.00
C155   C     0.14207   0.50726   0.75586   0.00000  Uiso   1.00
C156   C     0.93363   0.61602   0.86920   0.00000  Uiso   1.00
C157   C     0.88773   0.61686   0.96623   0.00000  Uiso   1.00
C158   C     0.90154   0.65502   0.03187   0.00000  Uiso   1.00
C159   C     0.90108   0.60150   0.68214   0.00000  Uiso   1.00
C160   C     0.82780   0.59015   0.62191   0.00000  Uiso   1.00
C161   C     0.81420   0.61610   0.53007   0.00000  Uiso   1.00
H162   H     0.07946   0.67198   0.70569   0.00000  Uiso   1.00
H163   H     0.21482   0.61666   0.69139   0.00000  Uiso   1.00
H164   H     0.04979   0.71804   0.88074   0.00000  Uiso   1.00
H165   H     0.98987   0.69133   0.53647   0.00000  Uiso   1.00
H166   H     0.33946   0.53946   0.68898   0.00000  Uiso   1.00
H167   H     0.99148   0.75322   0.08823   0.00000  Uiso   1.00
H168   H     0.86513   0.69691   0.36227   0.00000  Uiso   1.00
H169   H     0.88353   0.54966   0.80900   0.00000  Uiso   1.00
H170   H     0.00813   0.48762   0.80037   0.00000  Uiso   1.00
H171   H     0.84311   0.58900   0.98973   0.00000  Uiso   1.00
H172   H     0.78319   0.56229   0.64546   0.00000  Uiso   1.00
H173   H     0.17171   0.43472   0.77744   0.00000  Uiso   1.00
H174   H     0.82372   0.64849   0.17669   0.00000  Uiso   1.00
H175   H     0.69738   0.59218   0.45073   0.00000  Uiso   1.00
O176   O     0.34110   0.44849   0.72570   0.00000  Uiso   1.00
O177   O     0.88454   0.72895   0.24950   0.00000  Uiso   1.00
O178   O     0.71878   0.65507   0.29704   0.00000  Uiso   1.00
N179   N     0.28288   0.52332   0.71096   0.00000  Uiso   1.00
N180   N     0.95754   0.72318   0.08425   0.00000  Uiso   1.00
N181   N     0.83941   0.67054   0.40555   0.00000  Uiso   1.00
N182   N     0.19261   0.46696   0.75856   0.00000  Uiso   1.00
N183   N     0.86728   0.66682   0.13185   0.00000  Uiso   1.00
N184   N     0.74914   0.61418   0.45314   0.00000  Uiso   1.00
C185   C     0.46762   0.14603   0.90710   0.00000  Uiso   1.00
C186   C     0.43783   0.09559   0.91908   0.00000  Uiso   1.00
C187   C     0.35250   0.07910   0.90408   0.00000  Uiso   1.00
C188   C     0.33872   0.03177   0.91888   0.00000  Uiso   1.00
C189   C     0.28194   0.95797   0.93315   0.00000  Uiso   1.00
C190   C     0.50864   0.15934   0.01334   0.00000  Uiso   1.00
C191   C     0.48284   0.19646   0.07759   0.00000  Uiso   1.00
C192   C     0.52868   0.20280   0.17174   0.00000  Uiso   1.00
C193   C     0.58187   0.22799   0.33232   0.00000  Uiso   1.00
C194   C     0.54361   0.14566   0.82519   0.00000  Uiso   1.00
C195   C     0.54723   0.17130   0.73125   0.00000  Uiso   1.00
C196   C     0.62252   0.16613   0.66699   0.00000  Uiso   1.00
C197   C     0.73001   0.17009   0.53543   0.00000  Uiso   1.00
C198   C     0.59490   0.09129   0.96006   0.00000  Uiso   1.00
C199   C     0.50697   0.06585   0.94784   0.00000  Uiso   1.00
C200   C     0.49332   0.01854   0.96266   0.00000  Uiso   1.00
C201   C     0.40798   0.00198   0.94769   0.00000  Uiso   1.00
C202   C     0.57777   0.12961   0.04211   0.00000  Uiso   1.00
C203   C     0.62366   0.13589   0.13618   0.00000  Uiso   1.00
C204   C     0.59794   0.17301   0.20055   0.00000  Uiso   1.00
C205   C     0.61274   0.11593   0.85395   0.00000  Uiso   1.00
C206   C     0.68805   0.11072   0.78983   0.00000  Uiso   1.00
C207   C     0.69178   0.13634   0.69581   0.00000  Uiso   1.00
H208   H     0.41380   0.16919   0.88472   0.00000  Uiso   1.00
H209   H     0.29901   0.10213   0.88183   0.00000  Uiso   1.00
H210   H     0.42935   0.21947   0.05531   0.00000  Uiso   1.00
H211   H     0.49372   0.19430   0.70902   0.00000  Uiso   1.00
H212   H     0.20223   0.01467   0.89135   0.00000  Uiso   1.00
H213   H     0.47707   0.26210   0.25712   0.00000  Uiso   1.00
H214   H     0.61281   0.20903   0.52690   0.00000  Uiso   1.00
H215   H     0.64873   0.06814   0.98245   0.00000  Uiso   1.00
H216   H     0.54683   0.99554   0.98492   0.00000  Uiso   1.00
H217   H     0.67716   0.11288   0.15841   0.00000  Uiso   1.00
H218   H     0.74153   0.08771   0.81212   0.00000  Uiso   1.00
H219   H     0.40337   0.92816   0.97503   0.00000  Uiso   1.00
H220   H     0.67820   0.17559   0.34080   0.00000  Uiso   1.00
H221   H     0.81395   0.12252   0.61058   0.00000  Uiso   1.00
O222   O     0.23153   0.92548   0.93309   0.00000  Uiso   1.00
O223   O     0.59211   0.25010   0.41295   0.00000  Uiso   1.00
O224   O     0.77020   0.18048   0.45492   0.00000  Uiso   1.00
N225   N     0.26356   0.00427   0.91068   0.00000  Uiso   1.00
N226   N     0.52050   0.23560   0.25266   0.00000  Uiso   1.00
N227   N     0.64742   0.18600   0.56998   0.00000  Uiso   1.00
N228   N     0.37179   0.95772   0.95571   0.00000  Uiso   1.00
N229   N     0.62873   0.18905   0.29769   0.00000  Uiso   1.00
N230   N     0.75565   0.13945   0.61501   0.00000  Uiso   1.00
C231   C     0.77575   0.83062   0.89494   0.00000  Uiso   1.00
C232   C     0.82448   0.87678   0.90643   0.00000  Uiso   1.00
C233   C     0.91463   0.88375   0.88938   0.00000  Uiso   1.00
C234   C     0.94643   0.92857   0.90408   0.00000  Uiso   1.00
C235   C     0.03068   0.99468   0.91732   0.00000  Uiso   1.00
C236   C     0.72916   0.82188   0.00216   0.00000  Uiso   1.00
C237   C     0.73915   0.78269   0.06557   0.00000  Uiso   1.00
C238   C     0.69071   0.78129   0.16085   0.00000  Uiso   1.00
C239   C     0.62691   0.76215   0.32265   0.00000  Uiso   1.00
C240   C     0.70247   0.83926   0.81492   0.00000  Uiso   1.00
C241   C     0.69001   0.81469   0.72092   0.00000  Uiso   1.00
C242   C     0.61908   0.82793   0.65857   0.00000  Uiso   1.00
C243   C     0.51385   0.83579   0.52967   0.00000  Uiso   1.00
C244   C     0.67192   0.89783   0.95137   0.00000  Uiso   1.00
C245   C     0.76808   0.91328   0.93709   0.00000  Uiso   1.00
C246   C     0.79976   0.95810   0.95181   0.00000  Uiso   1.00
C247   C     0.88994   0.96514   0.93478   0.00000  Uiso   1.00
C248   C     0.67276   0.85838   0.03281   0.00000  Uiso   1.00
C249   C     0.62428   0.85704   0.12801   0.00000  Uiso   1.00
C250   C     0.63421   0.81786   0.19156   0.00000  Uiso   1.00
C251   C     0.64608   0.87577   0.84557   0.00000  Uiso   1.00
C252   C     0.57514   0.88904   0.78336   0.00000  Uiso   1.00
C253   C     0.56258   0.86449   0.68928   0.00000  Uiso   1.00
H254   H     0.81965   0.80220   0.87109   0.00000  Uiso   1.00
H255   H     0.95825   0.85549   0.86567   0.00000  Uiso   1.00
H256   H     0.78279   0.75444   0.04183   0.00000  Uiso   1.00
H257   H     0.73367   0.78644   0.69723   0.00000  Uiso   1.00
H258   H     0.08705   0.93066   0.87322   0.00000  Uiso   1.00
H259   H     0.71707   0.71759   0.24464   0.00000  Uiso   1.00
H260   H     0.61346   0.78507   0.51799   0.00000  Uiso   1.00
H261   H     0.62802   0.92625   0.97524   0.00000  Uiso   1.00
H262   H     0.75610   0.98634   0.97553   0.00000  Uiso   1.00
H263   H     0.58064   0.88529   0.15170   0.00000  Uiso   1.00
H264   H     0.53152   0.91729   0.80710   0.00000  Uiso   1.00
H265   H     0.92297   0.03687   0.96240   0.00000  Uiso   1.00
H266   H     0.55299   0.82380   0.33382   0.00000  Uiso   1.00
H267   H     0.44939   0.89127   0.60717   0.00000  Uiso   1.00
O268   O     0.09273   0.02106   0.91616   0.00000  Uiso   1.00
O269   O     0.60732   0.74151   0.40344   0.00000  Uiso   1.00
O270   O     0.47140   0.83004   0.45009   0.00000  Uiso   1.00
N271   N     0.03085   0.94741   0.89415   0.00000  Uiso   1.00
N272   N     0.68495   0.74821   0.24141   0.00000  Uiso   1.00
N273   N     0.58808   0.81128   0.56207   0.00000  Uiso   1.00
N274   N     0.94257   0.00456   0.94213   0.00000  Uiso   1.00
N275   N     0.59667   0.80536   0.28940   0.00000  Uiso   1.00
N276   N     0.49979   0.86843   0.61005   0.00000  Uiso   1.00
C277   C     0.30295   0.83411   0.27117   0.00000  Uiso   1.00
C278   C     0.32914   0.88518   0.26151   0.00000  Uiso   1.00
C279   C     0.41303   0.90325   0.27843   0.00000  Uiso   1.00
C280   C     0.42348   0.95091   0.26559   0.00000  Uiso   1.00
C281   C     0.47494   0.02588   0.25492   0.00000  Uiso   1.00
C282   C     0.26401   0.82073   0.16380   0.00000  Uiso   1.00
C283   C     0.29315   0.78460   0.09858   0.00000  Uiso   1.00
C284   C     0.24877   0.77800   0.00350   0.00000  Uiso   1.00
C285   C     0.19910   0.75288   0.84117   0.00000  Uiso   1.00
C286   C     0.22618   0.83240   0.35192   0.00000  Uiso   1.00
C287   C     0.22349   0.80607   0.44487   0.00000  Uiso   1.00
C288   C     0.14725   0.80929   0.50815   0.00000  Uiso   1.00
C289   C     0.03883   0.80229   0.63791   0.00000  Uiso   1.00
C290   C     0.17233   0.88664   0.21827   0.00000  Uiso   1.00
C291   C     0.25819   0.91372   0.23278   0.00000  Uiso   1.00
C292   C     0.26851   0.96137   0.21991   0.00000  Uiso   1.00
C293   C     0.35240   0.97950   0.23681   0.00000  Uiso   1.00
C294   C     0.19307   0.84926   0.13507   0.00000  Uiso   1.00
C295   C     0.14863   0.84272   0.04006   0.00000  Uiso   1.00
C296   C     0.17770   0.80659   0.97471   0.00000  Uiso   1.00
C297   C     0.15523   0.86093   0.32319   0.00000  Uiso   1.00
C298   C     0.07898   0.86419   0.38634   0.00000  Uiso   1.00
C299   C     0.07617   0.83787   0.47937   0.00000  Uiso   1.00
H300   H     0.35818   0.81189   0.29353   0.00000  Uiso   1.00
H301   H     0.46792   0.88116   0.30066   0.00000  Uiso   1.00
H302   H     0.34805   0.76252   0.12084   0.00000  Uiso   1.00
H303   H     0.27840   0.78399   0.46707   0.00000  Uiso   1.00
H304   H     0.55830   0.97053   0.29585   0.00000  Uiso   1.00
H305   H     0.30553   0.72037   0.91672   0.00000  Uiso   1.00
H306   H     0.15867   0.76565   0.64682   0.00000  Uiso   1.00
H307   H     0.11709   0.90885   0.19590   0.00000  Uiso   1.00
H308   H     0.21360   0.98344   0.19767   0.00000  Uiso   1.00
H309   H     0.09373   0.86480   0.01786   0.00000  Uiso   1.00
H310   H     0.02409   0.88627   0.36409   0.00000  Uiso   1.00
H311   H     0.35189   0.05354   0.21226   0.00000  Uiso   1.00
H312   H     0.09912   0.80338   0.83313   0.00000  Uiso   1.00
H313   H     0.95226   0.84866   0.56322   0.00000  Uiso   1.00
O314   O     0.52293   0.05935   0.25695   0.00000  Uiso   1.00
O315   O     0.19130   0.73115   0.75956   0.00000  Uiso   1.00
O316   O     0.99863   0.79055   0.71742   0.00000  Uiso   1.00
N317   N     0.49647   0.97983   0.27596   0.00000  Uiso   1.00
N318   N     0.26016   0.74595   0.92148   0.00000  Uiso   1.00
N319   N     0.12285   0.78827   0.60405   0.00000  Uiso   1.00
N320   N     0.38540   0.02450   0.23098   0.00000  Uiso   1.00
N321   N     0.14909   0.79062   0.87651   0.00000  Uiso   1.00
N322   N     0.01178   0.83294   0.55907   0.00000  Uiso   1.00
C323   C     0.96543   0.14396   0.27065   0.00000  Uiso   1.00
C324   C     0.91906   0.09694   0.26410   0.00000  Uiso   1.00
C325   C     0.82979   0.08879   0.28509   0.00000  Uiso   1.00
C326   C     0.80017   0.04333   0.27459   0.00000  Uiso   1.00
C327   C     0.71939   0.97580   0.26900   0.00000  Uiso   1.00
C328   C     0.00871   0.15201   0.16121   0.00000  Uiso   1.00
C329   C     0.99483   0.19019   0.09570   0.00000  Uiso   1.00
C330   C     0.04069   0.19108   0.99859   0.00000  Uiso   1.00
C331   C     0.09915   0.20908   0.83329   0.00000  Uiso   1.00
C332   C     0.04126   0.13750   0.34827   0.00000  Uiso   1.00
C333   C     0.05476   0.16348   0.44003   0.00000  Uiso   1.00
C334   C     0.12804   0.15217   0.50039   0.00000  Uiso   1.00
C335   C     0.23703   0.14763   0.62553   0.00000  Uiso   1.00
C336   C     0.07158   0.07768   0.21467   0.00000  Uiso   1.00
C337   C     0.97672   0.06094   0.23369   0.00000  Uiso   1.00
C338   C     0.94723   0.01547   0.22316   0.00000  Uiso   1.00
C339   C     0.85793   0.00726   0.24414   0.00000  Uiso   1.00
C340   C     0.06637   0.11602   0.13080   0.00000  Uiso   1.00
C341   C     0.11227   0.11686   0.03377   0.00000  Uiso   1.00
C342   C     0.09846   0.15502   0.96813   0.00000  Uiso   1.00
C343   C     0.09892   0.10150   0.31786   0.00000  Uiso   1.00
C344   C     0.17220   0.09015   0.37809   0.00000  Uiso   1.00
C345   C     0.18580   0.11610   0.46993   0.00000  Uiso   1.00
H346   H     0.92054   0.17198   0.29431   0.00000  Uiso   1.00
H347   H     0.78518   0.11666   0.30861   0.00000  Uiso   1.00
H348   H     0.95021   0.21804   0.11926   0.00000  Uiso   1.00
H349   H     0.01013   0.19133   0.46353   0.00000  Uiso   1.00
H350   H     0.66054   0.03946   0.31102   0.00000  Uiso   1.00
H351   H     0.00852   0.25322   0.91177   0.00000  Uiso   1.00
H352   H     0.13487   0.19691   0.63773   0.00000  Uiso   1.00
H353   H     0.11647   0.04966   0.19100   0.00000  Uiso   1.00
H354   H     0.99187   0.98762   0.19963   0.00000  Uiso   1.00
H355   H     0.15689   0.08900   0.01027   0.00000  Uiso   1.00
H356   H     0.21681   0.06229   0.35454   0.00000  Uiso   1.00
H357   H     0.82829   0.93472   0.22256   0.00000  Uiso   1.00
H358   H     0.17628   0.14849   0.82331   0.00000  Uiso   1.00
H359   H     0.30262   0.09218   0.54927   0.00000  Uiso   1.00
O360   O     0.65890   0.94849   0.27430   0.00000  Uiso   1.00
O361   O     0.11546   0.22895   0.75050   0.00000  Uiso   1.00
O362   O     0.28122   0.15507   0.70296   0.00000  Uiso   1.00
N363   N     0.71712   0.02332   0.28904   0.00000  Uiso   1.00
N364   N     0.04246   0.22318   0.91575   0.00000  Uiso   1.00
N365   N     0.16059   0.17054   0.59445   0.00000  Uiso   1.00
N366   N     0.80739   0.96696   0.24144   0.00000  Uiso   1.00
N367   N     0.13272   0.16682   0.86815   0.00000  Uiso   1.00
N368   N     0.25086   0.11418   0.54686   0.00000  Uiso   1.00
