data_job_03794
_audit_creation_date              2018-12-19
_audit_creation_method            'Materials Studio'
_symmetry_space_group_name_H-M    'P1'
_symmetry_Int_Tables_number       1
_symmetry_cell_setting            triclinic
loop_
_symmetry_equiv_pos_as_xyz
  x,y,z
_cell_length_a                    10.1560
_cell_length_b                    39.5136
_cell_length_c                    7.2164
_cell_angle_alpha                 90.0000
_cell_angle_beta                  86.3812
_cell_angle_gamma                 90.0000
loop_
_atom_site_label
_atom_site_type_symbol
_atom_site_fract_x
_atom_site_fract_y
_atom_site_fract_z
_atom_site_U_iso_or_equiv
_atom_site_adp_type
_atom_site_occupancy
C1     C     0.58525   0.39842   0.59498   0.00000  Uiso   1.00
C2     C     0.66496   0.36952   0.67206   0.00000  Uiso   1.00
C3     C     0.69975   0.33974   0.57945   0.00000  Uiso   1.00
C4     C     0.77287   0.31644   0.67386   0.00000  Uiso   1.00
C5     C     0.89096   0.27061   0.76611   0.00000  Uiso   1.00
C6     C     0.46710   0.40361   0.73317   0.00000  Uiso   1.00
C7     C     0.33553   0.40251   0.69193   0.00000  Uiso   1.00
C8     C     0.24210   0.40791   0.83779   0.00000  Uiso   1.00
C9     C     0.05302   0.41503   0.02489   0.00000  Uiso   1.00
C10    C     0.67029   0.43004   0.60749   0.00000  Uiso   1.00
C11    C     0.70954   0.45116   0.46058   0.00000  Uiso   1.00
C12    C     0.78716   0.47882   0.50064   0.00000  Uiso   1.00
C13    C     0.91355   0.52697   0.49260   0.00000  Uiso   1.00
C14    C     0.65327   0.40998   0.92735   0.00000  Uiso   1.00
C15    C     0.70190   0.37580   0.85259   0.00000  Uiso   1.00
C16    C     0.77500   0.35253   0.94717   0.00000  Uiso   1.00
C17    C     0.80989   0.32273   0.85471   0.00000  Uiso   1.00
C18    C     0.50404   0.40989   0.91369   0.00000  Uiso   1.00
C19    C     0.41078   0.41530   0.05965   0.00000  Uiso   1.00
C20    C     0.27911   0.41420   0.01864   0.00000  Uiso   1.00
C21    C     0.70724   0.43632   0.78802   0.00000  Uiso   1.00
C22    C     0.78479   0.46395   0.82831   0.00000  Uiso   1.00
C23    C     0.82416   0.48511   0.68149   0.00000  Uiso   1.00
H24    H     0.55648   0.39353   0.45444   0.00000  Uiso   1.00
H25    H     0.67113   0.33489   0.43974   0.00000  Uiso   1.00
H26    H     0.30698   0.39765   0.55221   0.00000  Uiso   1.00
H27    H     0.68093   0.44630   0.32090   0.00000  Uiso   1.00
H28    H     0.81448   0.27265   0.50309   0.00000  Uiso   1.00
H29    H     0.04665   0.40499   0.74021   0.00000  Uiso   1.00
H30    H     0.83520   0.50757   0.25245   0.00000  Uiso   1.00
H31    H     0.68202   0.41487   0.06790   0.00000  Uiso   1.00
H32    H     0.80357   0.35740   0.08687   0.00000  Uiso   1.00
H33    H     0.43941   0.42016   0.19933   0.00000  Uiso   1.00
H34    H     0.81336   0.46880   0.96802   0.00000  Uiso   1.00
H35    H     0.92197   0.29091   0.02832   0.00000  Uiso   1.00
H36    H     0.15413   0.42326   0.26544   0.00000  Uiso   1.00
H37    H     0.94269   0.52583   0.77769   0.00000  Uiso   1.00
O38    O     0.94588   0.24359   0.76714   0.00000  Uiso   1.00
O39    O     0.93851   0.41722   0.07822   0.00000  Uiso   1.00
O40    O     0.97308   0.55180   0.43829   0.00000  Uiso   1.00
N41    N     0.82313   0.28484   0.62409   0.00000  Uiso   1.00
N42    N     0.10524   0.40856   0.84579   0.00000  Uiso   1.00
N43    N     0.84244   0.50447   0.38978   0.00000  Uiso   1.00
N44    N     0.88096   0.29467   0.90671   0.00000  Uiso   1.00
N45    N     0.16308   0.41839   0.12841   0.00000  Uiso   1.00
N46    N     0.90028   0.51430   0.67240   0.00000  Uiso   1.00
C47    C     0.53399   0.60143   0.58244   0.00000  Uiso   1.00
C48    C     0.44837   0.63088   0.65475   0.00000  Uiso   1.00
C49    C     0.42197   0.66006   0.55672   0.00000  Uiso   1.00
C50    C     0.34137   0.68403   0.64738   0.00000  Uiso   1.00
C51    C     0.21643   0.73054   0.73198   0.00000  Uiso   1.00
C52    C     0.64047   0.59703   0.72031   0.00000  Uiso   1.00
C53    C     0.77559   0.59775   0.67739   0.00000  Uiso   1.00
C54    C     0.85670   0.59323   0.82324   0.00000  Uiso   1.00
C55    C     0.03000   0.58716   0.00960   0.00000  Uiso   1.00
C56    C     0.44720   0.56998   0.60207   0.00000  Uiso   1.00
C57    C     0.41983   0.54795   0.45975   0.00000  Uiso   1.00
C58    C     0.33824   0.52064   0.50606   0.00000  Uiso   1.00
C59    C     0.21145   0.47257   0.50884   0.00000  Uiso   1.00
C60    C     0.43778   0.59210   0.91776   0.00000  Uiso   1.00
C61    C     0.39612   0.62582   0.83689   0.00000  Uiso   1.00
C62    C     0.31553   0.64975   0.92772   0.00000  Uiso   1.00
C63    C     0.28901   0.67896   0.82984   0.00000  Uiso   1.00
C64    C     0.58822   0.59197   0.90244   0.00000  Uiso   1.00
C65    C     0.66915   0.58744   0.04839   0.00000  Uiso   1.00
C66    C     0.80435   0.58815   0.00571   0.00000  Uiso   1.00
C67    C     0.39494   0.56492   0.78420   0.00000  Uiso   1.00
C68    C     0.31338   0.53763   0.83075   0.00000  Uiso   1.00
C69    C     0.28589   0.51557   0.68852   0.00000  Uiso   1.00
H70    H     0.57468   0.60537   0.44065   0.00000  Uiso   1.00
H71    H     0.46244   0.66398   0.41578   0.00000  Uiso   1.00
H72    H     0.81600   0.60167   0.53643   0.00000  Uiso   1.00
H73    H     0.46029   0.55188   0.31882   0.00000  Uiso   1.00
H74    H     0.31500   0.72672   0.46855   0.00000  Uiso   1.00
H75    H     0.06050   0.59534   0.72294   0.00000  Uiso   1.00
H76    H     0.31042   0.49033   0.26407   0.00000  Uiso   1.00
H77    H     0.39710   0.58816   0.05957   0.00000  Uiso   1.00
H78    H     0.27510   0.64582   0.06866   0.00000  Uiso   1.00
H79    H     0.62867   0.58352   0.18931   0.00000  Uiso   1.00
H80    H     0.27296   0.53372   0.97170   0.00000  Uiso   1.00
H81    H     0.16296   0.71199   0.99846   0.00000  Uiso   1.00
H82    H     0.90846   0.58060   0.25285   0.00000  Uiso   1.00
H83    H     0.15837   0.47560   0.79398   0.00000  Uiso   1.00
O84    O     0.16197   0.75760   0.72834   0.00000  Uiso   1.00
O85    O     0.14004   0.58522   0.06208   0.00000  Uiso   1.00
O86    O     0.15594   0.44746   0.46005   0.00000  Uiso   1.00
N87    N     0.29594   0.71534   0.59200   0.00000  Uiso   1.00
N88    N     0.99294   0.59251   0.82985   0.00000  Uiso   1.00
N89    N     0.29170   0.49433   0.40085   0.00000  Uiso   1.00
N90    N     0.21412   0.70741   0.87714   0.00000  Uiso   1.00
N91    N     0.91112   0.58458   0.11499   0.00000  Uiso   1.00
N92    N     0.20988   0.48640   0.68599   0.00000  Uiso   1.00
C93    C     0.41475   0.89842   0.40502   0.00000  Uiso   1.00
C94    C     0.33504   0.86952   0.32794   0.00000  Uiso   1.00
C95    C     0.30025   0.83974   0.42055   0.00000  Uiso   1.00
C96    C     0.22713   0.81644   0.32614   0.00000  Uiso   1.00
C97    C     0.10904   0.77061   0.23389   0.00000  Uiso   1.00
C98    C     0.53290   0.90361   0.26683   0.00000  Uiso   1.00
C99    C     0.66447   0.90251   0.30807   0.00000  Uiso   1.00
C100   C     0.75790   0.90791   0.16221   0.00000  Uiso   1.00
C101   C     0.94698   0.91503   0.97511   0.00000  Uiso   1.00
C102   C     0.32971   0.93004   0.39251   0.00000  Uiso   1.00
C103   C     0.29046   0.95116   0.53942   0.00000  Uiso   1.00
C104   C     0.21284   0.97882   0.49936   0.00000  Uiso   1.00
C105   C     0.08645   0.02697   0.50740   0.00000  Uiso   1.00
C106   C     0.34673   0.90998   0.07265   0.00000  Uiso   1.00
C107   C     0.29810   0.87580   0.14741   0.00000  Uiso   1.00
C108   C     0.22500   0.85253   0.05283   0.00000  Uiso   1.00
C109   C     0.19011   0.82273   0.14529   0.00000  Uiso   1.00
C110   C     0.49596   0.90989   0.08631   0.00000  Uiso   1.00
C111   C     0.58922   0.91530   0.94035   0.00000  Uiso   1.00
C112   C     0.72089   0.91420   0.98136   0.00000  Uiso   1.00
C113   C     0.29276   0.93632   0.21198   0.00000  Uiso   1.00
C114   C     0.21521   0.96395   0.17169   0.00000  Uiso   1.00
C115   C     0.17584   0.98511   0.31851   0.00000  Uiso   1.00
H116   H     0.44352   0.89353   0.54556   0.00000  Uiso   1.00
H117   H     0.32887   0.83489   0.56026   0.00000  Uiso   1.00
H118   H     0.69302   0.89765   0.44779   0.00000  Uiso   1.00
H119   H     0.31907   0.94630   0.67910   0.00000  Uiso   1.00
H120   H     0.18552   0.77265   0.49691   0.00000  Uiso   1.00
H121   H     0.95335   0.90499   0.25979   0.00000  Uiso   1.00
H122   H     0.16480   0.00757   0.74755   0.00000  Uiso   1.00
H123   H     0.31798   0.91487   0.93210   0.00000  Uiso   1.00
H124   H     0.19643   0.85740   0.91313   0.00000  Uiso   1.00
H125   H     0.56059   0.92016   0.80067   0.00000  Uiso   1.00
H126   H     0.18664   0.96880   0.03198   0.00000  Uiso   1.00
H127   H     0.07803   0.79091   0.97168   0.00000  Uiso   1.00
H128   H     0.84587   0.92326   0.73456   0.00000  Uiso   1.00
H129   H     0.05731   0.02583   0.22231   0.00000  Uiso   1.00
O130   O     0.05412   0.74359   0.23286   0.00000  Uiso   1.00
O131   O     0.06149   0.91722   0.92178   0.00000  Uiso   1.00
O132   O     0.02692   0.05180   0.56171   0.00000  Uiso   1.00
N133   N     0.17687   0.78484   0.37591   0.00000  Uiso   1.00
N134   N     0.89476   0.90856   0.15421   0.00000  Uiso   1.00
N135   N     0.15756   0.00447   0.61022   0.00000  Uiso   1.00
N136   N     0.11904   0.79467   0.09329   0.00000  Uiso   1.00
N137   N     0.83692   0.91839   0.87159   0.00000  Uiso   1.00
N138   N     0.09972   0.01430   0.32760   0.00000  Uiso   1.00
C139   C     0.46601   0.10143   0.41756   0.00000  Uiso   1.00
C140   C     0.55163   0.13088   0.34525   0.00000  Uiso   1.00
C141   C     0.57803   0.16006   0.44328   0.00000  Uiso   1.00
C142   C     0.65863   0.18403   0.35262   0.00000  Uiso   1.00
C143   C     0.78357   0.23054   0.26802   0.00000  Uiso   1.00
C144   C     0.35953   0.09703   0.27969   0.00000  Uiso   1.00
C145   C     0.22441   0.09775   0.32261   0.00000  Uiso   1.00
C146   C     0.14330   0.09323   0.17676   0.00000  Uiso   1.00
C147   C     0.97000   0.08716   0.99040   0.00000  Uiso   1.00
C148   C     0.55280   0.06998   0.39793   0.00000  Uiso   1.00
C149   C     0.58017   0.04795   0.54025   0.00000  Uiso   1.00
C150   C     0.66176   0.02064   0.49394   0.00000  Uiso   1.00
C151   C     0.78855   0.97257   0.49116   0.00000  Uiso   1.00
C152   C     0.56222   0.09210   0.08224   0.00000  Uiso   1.00
C153   C     0.60388   0.12582   0.16311   0.00000  Uiso   1.00
C154   C     0.68447   0.14975   0.07228   0.00000  Uiso   1.00
C155   C     0.71099   0.17896   0.17016   0.00000  Uiso   1.00
C156   C     0.41178   0.09197   0.09756   0.00000  Uiso   1.00
C157   C     0.33085   0.08744   0.95161   0.00000  Uiso   1.00
C158   C     0.19565   0.08815   0.99429   0.00000  Uiso   1.00
C159   C     0.60506   0.06492   0.21580   0.00000  Uiso   1.00
C160   C     0.68662   0.03763   0.16925   0.00000  Uiso   1.00
C161   C     0.71411   0.01557   0.31148   0.00000  Uiso   1.00
H162   H     0.42532   0.10537   0.55935   0.00000  Uiso   1.00
H163   H     0.53756   0.16398   0.58422   0.00000  Uiso   1.00
H164   H     0.18400   0.10167   0.46357   0.00000  Uiso   1.00
H165   H     0.53971   0.05188   0.68118   0.00000  Uiso   1.00
H166   H     0.68500   0.22672   0.53145   0.00000  Uiso   1.00
H167   H     0.93950   0.09534   0.27706   0.00000  Uiso   1.00
H168   H     0.68958   0.99033   0.73593   0.00000  Uiso   1.00
H169   H     0.60290   0.08816   0.94043   0.00000  Uiso   1.00
H170   H     0.72490   0.14582   0.93134   0.00000  Uiso   1.00
H171   H     0.37133   0.08352   0.81069   0.00000  Uiso   1.00
H172   H     0.72704   0.03372   0.02830   0.00000  Uiso   1.00
H173   H     0.83704   0.21199   0.00154   0.00000  Uiso   1.00
H174   H     0.09154   0.08060   0.74715   0.00000  Uiso   1.00
H175   H     0.84163   0.97560   0.20602   0.00000  Uiso   1.00
O176   O     0.83803   0.25760   0.27166   0.00000  Uiso   1.00
O177   O     0.85996   0.08522   0.93792   0.00000  Uiso   1.00
O178   O     0.84406   0.94746   0.53995   0.00000  Uiso   1.00
N179   N     0.70406   0.21534   0.40800   0.00000  Uiso   1.00
N180   N     0.00706   0.09251   0.17015   0.00000  Uiso   1.00
N181   N     0.70830   0.99433   0.59915   0.00000  Uiso   1.00
N182   N     0.78588   0.20741   0.12286   0.00000  Uiso   1.00
N183   N     0.08888   0.08458   0.88501   0.00000  Uiso   1.00
N184   N     0.79012   0.98640   0.31401   0.00000  Uiso   1.00
