data_job_02107
_audit_creation_date              2018-12-19
_audit_creation_method            'Materials Studio'
_symmetry_space_group_name_H-M    'P1'
_symmetry_Int_Tables_number       1
_symmetry_cell_setting            triclinic
loop_
_symmetry_equiv_pos_as_xyz
  x,y,z
_cell_length_a                    24.5048
_cell_length_b                    24.4949
_cell_length_c                    11.0523
_cell_angle_alpha                 90.4063
_cell_angle_beta                  88.0575
_cell_angle_gamma                 89.9173
loop_
_atom_site_label
_atom_site_type_symbol
_atom_site_fract_x
_atom_site_fract_y
_atom_site_fract_z
_atom_site_U_iso_or_equiv
_atom_site_adp_type
_atom_site_occupancy
C1     C     0.73628   0.90736   0.26928   0.00000  Uiso   1.00
C2     C     0.79439   0.92444   0.23349   0.00000  Uiso   1.00
C3     C     0.82965   0.89641   0.15412   0.00000  Uiso   1.00
C4     C     0.88113   0.91873   0.13325   0.00000  Uiso   1.00
C5     C     0.96900   0.93785   0.06913   0.00000  Uiso   1.00
C6     C     0.73429   0.90346   0.40700   0.00000  Uiso   1.00
C7     C     0.71900   0.85779   0.47350   0.00000  Uiso   1.00
C8     C     0.71988   0.86245   0.59869   0.00000  Uiso   1.00
C9     C     0.71440   0.84901   0.80395   0.00000  Uiso   1.00
C10    C     0.69984   0.95550   0.23869   0.00000  Uiso   1.00
C11    C     0.65558   0.95359   0.16370   0.00000  Uiso   1.00
C12    C     0.62744   0.00207   0.14720   0.00000  Uiso   1.00
C13    C     0.56848   0.06942   0.09112   0.00000  Uiso   1.00
C14    C     0.76500   0.99685   0.37337   0.00000  Uiso   1.00
C15    C     0.80999   0.97305   0.29004   0.00000  Uiso   1.00
C16    C     0.86143   0.99542   0.26928   0.00000  Uiso   1.00
C17    C     0.89676   0.96743   0.18988   0.00000  Uiso   1.00
C18    C     0.74989   0.95206   0.46354   0.00000  Uiso   1.00
C19    C     0.75079   0.95680   0.58866   0.00000  Uiso   1.00
C20    C     0.73551   0.91115   0.65533   0.00000  Uiso   1.00
C21    C     0.71544   0.00411   0.29522   0.00000  Uiso   1.00
C22    C     0.68737   0.05260   0.27885   0.00000  Uiso   1.00
C23    C     0.64308   0.05076   0.20384   0.00000  Uiso   1.00
H24    H     0.72413   0.86952   0.22528   0.00000  Uiso   1.00
H25    H     0.81756   0.85879   0.11039   0.00000  Uiso   1.00
H26    H     0.70693   0.82018   0.42973   0.00000  Uiso   1.00
H27    H     0.64352   0.91597   0.11996   0.00000  Uiso   1.00
H28    H     0.92803   0.86833   0.00799   0.00000  Uiso   1.00
H29    H     0.69474   0.78692   0.68132   0.00000  Uiso   1.00
H30    H     0.56102   0.98890   0.02813   0.00000  Uiso   1.00
H31    H     0.77715   0.03469   0.41739   0.00000  Uiso   1.00
H32    H     0.87350   0.03304   0.31304   0.00000  Uiso   1.00
H33    H     0.76286   0.99442   0.63238   0.00000  Uiso   1.00
H34    H     0.69945   0.09021   0.32261   0.00000  Uiso   1.00
H35    H     0.97344   0.00975   0.17247   0.00000  Uiso   1.00
H36    H     0.74014   0.92834   0.84581   0.00000  Uiso   1.00
H37    H     0.60643   0.13032   0.19261   0.00000  Uiso   1.00
O38    O     0.01316   0.93496   0.01815   0.00000  Uiso   1.00
O39    O     0.70708   0.82816   0.90154   0.00000  Uiso   1.00
O40    O     0.53165   0.09315   0.04456   0.00000  Uiso   1.00
N41    N     0.92549   0.90185   0.06100   0.00000  Uiso   1.00
N42    N     0.70739   0.82573   0.69053   0.00000  Uiso   1.00
N43    N     0.58236   0.01456   0.07987   0.00000  Uiso   1.00
N44    N     0.94992   0.97794   0.14951   0.00000  Uiso   1.00
N45    N     0.73182   0.90183   0.77903   0.00000  Uiso   1.00
N46    N     0.60679   0.09066   0.16838   0.00000  Uiso   1.00
C47    C     0.04502   0.21770   0.73744   0.00000  Uiso   1.00
C48    C     0.02473   0.27103   0.68442   0.00000  Uiso   1.00
C49    C     0.05215   0.30189   0.59694   0.00000  Uiso   1.00
C50    C     0.02674   0.34941   0.56037   0.00000  Uiso   1.00
C51    C     0.00302   0.42979   0.47060   0.00000  Uiso   1.00
C52    C     0.04546   0.22667   0.87408   0.00000  Uiso   1.00
C53    C     0.09031   0.22023   0.94606   0.00000  Uiso   1.00
C54    C     0.08235   0.23040   0.06914   0.00000  Uiso   1.00
C55    C     0.09079   0.24187   0.27383   0.00000  Uiso   1.00
C56    C     0.00052   0.17562   0.71593   0.00000  Uiso   1.00
C57    C     0.00758   0.12626   0.65496   0.00000  Uiso   1.00
C58    C     0.96178   0.09345   0.64491   0.00000  Uiso   1.00
C59    C     0.90044   0.02567   0.60404   0.00000  Uiso   1.00
C60    C     0.95112   0.24720   0.82805   0.00000  Uiso   1.00
C61    C     0.97373   0.28705   0.73365   0.00000  Uiso   1.00
C62    C     0.94827   0.33453   0.69719   0.00000  Uiso   1.00
C63    C     0.97565   0.36546   0.60966   0.00000  Uiso   1.00
C64    C     0.99447   0.24269   0.92330   0.00000  Uiso   1.00
C65    C     0.98643   0.25287   0.04631   0.00000  Uiso   1.00
C66    C     0.03126   0.24645   0.11845   0.00000  Uiso   1.00
C67    C     0.94952   0.19165   0.76514   0.00000  Uiso   1.00
C68    C     0.90370   0.15890   0.75520   0.00000  Uiso   1.00
C69    C     0.91069   0.10950   0.69421   0.00000  Uiso   1.00
H70    H     0.08472   0.20523   0.69914   0.00000  Uiso   1.00
H71    H     0.09162   0.28948   0.55889   0.00000  Uiso   1.00
H72    H     0.12977   0.20783   0.90795   0.00000  Uiso   1.00
H73    H     0.04705   0.11388   0.61688   0.00000  Uiso   1.00
H74    H     0.07679   0.38997   0.42513   0.00000  Uiso   1.00
H75    H     0.15723   0.21778   0.16115   0.00000  Uiso   1.00
H76    H     0.98280   0.01966   0.54739   0.00000  Uiso   1.00
H77    H     0.91142   0.25967   0.86637   0.00000  Uiso   1.00
H78    H     0.90881   0.34692   0.73529   0.00000  Uiso   1.00
H79    H     0.94696   0.26526   0.08436   0.00000  Uiso   1.00
H80    H     0.86424   0.17131   0.79329   0.00000  Uiso   1.00
H81    H     0.92841   0.43659   0.56831   0.00000  Uiso   1.00
H82    H     0.00885   0.26440   0.30434   0.00000  Uiso   1.00
H83    H     0.83442   0.06628   0.69057   0.00000  Uiso   1.00
O84    O     0.00402   0.46970   0.40750   0.00000  Uiso   1.00
O85    O     0.10954   0.24378   0.37314   0.00000  Uiso   1.00
O86    O     0.88070   0.98386   0.56789   0.00000  Uiso   1.00
N87    N     0.04222   0.38897   0.47679   0.00000  Uiso   1.00
N88    N     0.11743   0.22799   0.16494   0.00000  Uiso   1.00
N89    N     0.95435   0.04275   0.59114   0.00000  Uiso   1.00
N90    N     0.96238   0.41405   0.55384   0.00000  Uiso   1.00
N91    N     0.03758   0.25307   0.24198   0.00000  Uiso   1.00
N92    N     0.87451   0.06784   0.66819   0.00000  Uiso   1.00
C93    C     0.69928   0.62713   0.07396   0.00000  Uiso   1.00
C94    C     0.64459   0.60839   0.02668   0.00000  Uiso   1.00
C95    C     0.61463   0.63505   0.94059   0.00000  Uiso   1.00
C96    C     0.56559   0.61133   0.90949   0.00000  Uiso   1.00
C97    C     0.48346   0.58964   0.82803   0.00000  Uiso   1.00
C98    C     0.69126   0.63191   0.21106   0.00000  Uiso   1.00
C99    C     0.70055   0.67835   0.27998   0.00000  Uiso   1.00
C100   C     0.69080   0.67441   0.40409   0.00000  Uiso   1.00
C101   C     0.68116   0.68923   0.60889   0.00000  Uiso   1.00
C102   C     0.73880   0.57973   0.05123   0.00000  Uiso   1.00
C103   C     0.78806   0.58229   0.98579   0.00000  Uiso   1.00
C104   C     0.81833   0.53443   0.97536   0.00000  Uiso   1.00
C105   C     0.88250   0.46823   0.93200   0.00000  Uiso   1.00
C106   C     0.66545   0.53757   0.17184   0.00000  Uiso   1.00
C107   C     0.62622   0.55975   0.07985   0.00000  Uiso   1.00
C108   C     0.57720   0.53597   0.04887   0.00000  Uiso   1.00
C109   C     0.54718   0.56260   0.96274   0.00000  Uiso   1.00
C110   C     0.67289   0.58327   0.26422   0.00000  Uiso   1.00
C111   C     0.66312   0.57926   0.38826   0.00000  Uiso   1.00
C112   C     0.67239   0.62568   0.45735   0.00000  Uiso   1.00
C113   C     0.72042   0.53108   0.10439   0.00000  Uiso   1.00
C114   C     0.75063   0.48321   0.09407   0.00000  Uiso   1.00
C115   C     0.79992   0.48570   0.02862   0.00000  Uiso   1.00
H116   H     0.71359   0.66500   0.03258   0.00000  Uiso   1.00
H117   H     0.62887   0.67270   0.89947   0.00000  Uiso   1.00
H118   H     0.71477   0.71598   0.23881   0.00000  Uiso   1.00
H119   H     0.80227   0.61994   0.94466   0.00000  Uiso   1.00
H120   H     0.52683   0.65980   0.77538   0.00000  Uiso   1.00
H121   H     0.70799   0.75105   0.49089   0.00000  Uiso   1.00
H122   H     0.89248   0.54853   0.87062   0.00000  Uiso   1.00
H123   H     0.65114   0.49970   0.21323   0.00000  Uiso   1.00
H124   H     0.56300   0.49833   0.09002   0.00000  Uiso   1.00
H125   H     0.64890   0.54161   0.42937   0.00000  Uiso   1.00
H126   H     0.73639   0.44557   0.13522   0.00000  Uiso   1.00
H127   H     0.47336   0.51827   0.93004   0.00000  Uiso   1.00
H128   H     0.65452   0.60952   0.64556   0.00000  Uiso   1.00
H129   H     0.83902   0.40701   0.02529   0.00000  Uiso   1.00
O130   O     0.44323   0.59112   0.76843   0.00000  Uiso   1.00
O131   O     0.68091   0.71084   0.70716   0.00000  Uiso   1.00
O132   O     0.92296   0.44514   0.89338   0.00000  Uiso   1.00
N133   N     0.52635   0.62667   0.82867   0.00000  Uiso   1.00
N134   N     0.69571   0.71199   0.49763   0.00000  Uiso   1.00
N135   N     0.86821   0.52266   0.91776   0.00000  Uiso   1.00
N136   N     0.49758   0.55052   0.91189   0.00000  Uiso   1.00
N137   N     0.66694   0.63584   0.58085   0.00000  Uiso   1.00
N138   N     0.83944   0.44650   0.00098   0.00000  Uiso   1.00
C139   C     0.39446   0.30117   0.78028   0.00000  Uiso   1.00
C140   C     0.41335   0.24668   0.72586   0.00000  Uiso   1.00
C141   C     0.38511   0.21548   0.64349   0.00000  Uiso   1.00
C142   C     0.40928   0.16686   0.60455   0.00000  Uiso   1.00
C143   C     0.43091   0.08479   0.51371   0.00000  Uiso   1.00
C144   C     0.39383   0.29390   0.91724   0.00000  Uiso   1.00
C145   C     0.34919   0.30241   0.99577   0.00000  Uiso   1.00
C146   C     0.35693   0.29354   0.11794   0.00000  Uiso   1.00
C147   C     0.34827   0.28482   0.32422   0.00000  Uiso   1.00
C148   C     0.44002   0.34177   0.75075   0.00000  Uiso   1.00
C149   C     0.43421   0.39055   0.68933   0.00000  Uiso   1.00
C150   C     0.48084   0.42200   0.67136   0.00000  Uiso   1.00
C151   C     0.54388   0.48760   0.61915   0.00000  Uiso   1.00
C152   C     0.48760   0.27030   0.85761   0.00000  Uiso   1.00
C153   C     0.46394   0.22991   0.76787   0.00000  Uiso   1.00
C154   C     0.48816   0.18133   0.72904   0.00000  Uiso   1.00
C155   C     0.45996   0.15007   0.64663   0.00000  Uiso   1.00
C156   C     0.44442   0.27713   0.95924   0.00000  Uiso   1.00
C157   C     0.45223   0.26825   0.08132   0.00000  Uiso   1.00
C158   C     0.40761   0.27675   0.16002   0.00000  Uiso   1.00
C159   C     0.49061   0.32500   0.79275   0.00000  Uiso   1.00
C160   C     0.53726   0.35639   0.77488   0.00000  Uiso   1.00
C161   C     0.53152   0.40520   0.71344   0.00000  Uiso   1.00
H162   H     0.35507   0.31422   0.74759   0.00000  Uiso   1.00
H163   H     0.34596   0.22847   0.61101   0.00000  Uiso   1.00
H164   H     0.31005   0.31539   0.96324   0.00000  Uiso   1.00
H165   H     0.39505   0.40351   0.65684   0.00000  Uiso   1.00
H166   H     0.35816   0.12599   0.47815   0.00000  Uiso   1.00
H167   H     0.28243   0.30928   0.22084   0.00000  Uiso   1.00
H168   H     0.46169   0.49510   0.57475   0.00000  Uiso   1.00
H169   H     0.52699   0.25725   0.89032   0.00000  Uiso   1.00
H170   H     0.52731   0.16837   0.76157   0.00000  Uiso   1.00
H171   H     0.49139   0.25528   0.11380   0.00000  Uiso   1.00
H172   H     0.57640   0.34340   0.80740   0.00000  Uiso   1.00
H173   H     0.50535   0.07721   0.60035   0.00000  Uiso   1.00
H174   H     0.42962   0.26050   0.34305   0.00000  Uiso   1.00
H175   H     0.60887   0.44632   0.69695   0.00000  Uiso   1.00
O176   O     0.42886   0.04415   0.45201   0.00000  Uiso   1.00
O177   O     0.32951   0.28463   0.42639   0.00000  Uiso   1.00
O178   O     0.56468   0.52842   0.57873   0.00000  Uiso   1.00
N179   N     0.39276   0.12672   0.52456   0.00000  Uiso   1.00
N180   N     0.32196   0.29807   0.21893   0.00000  Uiso   1.00
N181   N     0.48954   0.47180   0.61492   0.00000  Uiso   1.00
N182   N     0.47196   0.10047   0.59031   0.00000  Uiso   1.00
N183   N     0.40116   0.27182   0.28468   0.00000  Uiso   1.00
N184   N     0.56874   0.44555   0.68067   0.00000  Uiso   1.00
C185   C     0.26746   0.12084   0.84090   0.00000  Uiso   1.00
C186   C     0.21707   0.09481   0.90102   0.00000  Uiso   1.00
C187   C     0.18718   0.11602   0.99940   0.00000  Uiso   1.00
C188   C     0.14241   0.08603   0.04103   0.00000  Uiso   1.00
C189   C     0.06633   0.05314   0.14268   0.00000  Uiso   1.00
C190   C     0.25460   0.12727   0.70772   0.00000  Uiso   1.00
C191   C     0.25627   0.17578   0.64357   0.00000  Uiso   1.00
C192   C     0.24311   0.17311   0.52248   0.00000  Uiso   1.00
C193   C     0.22533   0.19062   0.32401   0.00000  Uiso   1.00
C194   C     0.31266   0.07810   0.84474   0.00000  Uiso   1.00
C195   C     0.36315   0.08526   0.89577   0.00000  Uiso   1.00
C196   C     0.39887   0.04119   0.89001   0.00000  Uiso   1.00
C197   C     0.47123   0.98234   0.90428   0.00000  Uiso   1.00
C198   C     0.24113   0.02986   0.73989   0.00000  Uiso   1.00
C199   C     0.20277   0.04539   0.84615   0.00000  Uiso   1.00
C200   C     0.15804   0.01536   0.88764   0.00000  Uiso   1.00
C201   C     0.12808   0.03652   0.98607   0.00000  Uiso   1.00
C202   C     0.24030   0.07786   0.65285   0.00000  Uiso   1.00
C203   C     0.22713   0.07511   0.53182   0.00000  Uiso   1.00
C204   C     0.22878   0.12360   0.46751   0.00000  Uiso   1.00
C205   C     0.29836   0.02868   0.78987   0.00000  Uiso   1.00
C206   C     0.33401   0.98459   0.78402   0.00000  Uiso   1.00
C207   C     0.38454   0.99168   0.83504   0.00000  Uiso   1.00
H208   H     0.27860   0.15932   0.88361   0.00000  Uiso   1.00
H209   H     0.19826   0.15427   0.04183   0.00000  Uiso   1.00
H210   H     0.26735   0.21402   0.68605   0.00000  Uiso   1.00
H211   H     0.37420   0.12351   0.93822   0.00000  Uiso   1.00
H212   H     0.10286   0.12689   0.19302   0.00000  Uiso   1.00
H213   H     0.24856   0.25286   0.44284   0.00000  Uiso   1.00
H214   H     0.47389   0.06201   0.97457   0.00000  Uiso   1.00
H215   H     0.22999   0.99138   0.69717   0.00000  Uiso   1.00
H216   H     0.14698   0.97711   0.84516   0.00000  Uiso   1.00
H217   H     0.21607   0.03686   0.48939   0.00000  Uiso   1.00
H218   H     0.32292   0.94635   0.74155   0.00000  Uiso   1.00
H219   H     0.06124   0.98310   0.03339   0.00000  Uiso   1.00
H220   H     0.20694   0.10908   0.28321   0.00000  Uiso   1.00
H221   H     0.43227   0.91822   0.81495   0.00000  Uiso   1.00
O222   O     0.02831   0.04865   0.21390   0.00000  Uiso   1.00
O223   O     0.21947   0.21393   0.22970   0.00000  Uiso   1.00
O224   O     0.51509   0.96353   0.92732   0.00000  Uiso   1.00
N225   N     0.10446   0.09500   0.13515   0.00000  Uiso   1.00
N226   N     0.24068   0.21278   0.43379   0.00000  Uiso   1.00
N227   N     0.45134   0.03435   0.93089   0.00000  Uiso   1.00
N228   N     0.08207   0.01763   0.04926   0.00000  Uiso   1.00
N229   N     0.21828   0.13541   0.34790   0.00000  Uiso   1.00
N230   N     0.42895   0.95698   0.84500   0.00000  Uiso   1.00
C231   C     0.85265   0.74334   0.27846   0.00000  Uiso   1.00
C232   C     0.87012   0.68825   0.32775   0.00000  Uiso   1.00
C233   C     0.84017   0.65668   0.40983   0.00000  Uiso   1.00
C234   C     0.86324   0.60753   0.44369   0.00000  Uiso   1.00
C235   C     0.88256   0.52455   0.52726   0.00000  Uiso   1.00
C236   C     0.85428   0.73718   0.14099   0.00000  Uiso   1.00
C237   C     0.81102   0.74676   0.06606   0.00000  Uiso   1.00
C238   C     0.82075   0.73880   0.94270   0.00000  Uiso   1.00
C239   C     0.81549   0.73182   0.73633   0.00000  Uiso   1.00
C240   C     0.89812   0.78325   0.30780   0.00000  Uiso   1.00
C241   C     0.89173   0.83157   0.37310   0.00000  Uiso   1.00
C242   C     0.93837   0.86241   0.39017   0.00000  Uiso   1.00
C243   C     0.00119   0.92696   0.44280   0.00000  Uiso   1.00
C244   C     0.94686   0.71220   0.19262   0.00000  Uiso   1.00
C245   C     0.92129   0.67134   0.28111   0.00000  Uiso   1.00
C246   C     0.94440   0.62222   0.31486   0.00000  Uiso   1.00
C247   C     0.91450   0.59058   0.39698   0.00000  Uiso   1.00
C248   C     0.90544   0.72026   0.09436   0.00000  Uiso   1.00
C249   C     0.91525   0.71230   0.97109   0.00000  Uiso   1.00
C250   C     0.87201   0.72185   0.89599   0.00000  Uiso   1.00
C251   C     0.94929   0.76633   0.26118   0.00000  Uiso   1.00
C252   C     0.99595   0.79711   0.27814   0.00000  Uiso   1.00
C253   C     0.98963   0.84546   0.34345   0.00000  Uiso   1.00
H254   H     0.81281   0.75652   0.31475   0.00000  Uiso   1.00
H255   H     0.80057   0.66979   0.44589   0.00000  Uiso   1.00
H256   H     0.77143   0.75985   0.10217   0.00000  Uiso   1.00
H257   H     0.85212   0.84465   0.40917   0.00000  Uiso   1.00
H258   H     0.80956   0.56616   0.57068   0.00000  Uiso   1.00
H259   H     0.74810   0.75609   0.84593   0.00000  Uiso   1.00
H260   H     0.91827   0.93490   0.49330   0.00000  Uiso   1.00
H261   H     0.98670   0.69902   0.15631   0.00000  Uiso   1.00
H262   H     0.98400   0.60914   0.27876   0.00000  Uiso   1.00
H263   H     0.95485   0.69921   0.93504   0.00000  Uiso   1.00
H264   H     0.03554   0.78400   0.24204   0.00000  Uiso   1.00
H265   H     0.95843   0.51694   0.43502   0.00000  Uiso   1.00
H266   H     0.89698   0.70687   0.71027   0.00000  Uiso   1.00
H267   H     0.06714   0.88568   0.35765   0.00000  Uiso   1.00
O268   O     0.87908   0.48345   0.58623   0.00000  Uiso   1.00
O269   O     0.79845   0.73264   0.63538   0.00000  Uiso   1.00
O270   O     0.02170   0.96723   0.48472   0.00000  Uiso   1.00
N271   N     0.84497   0.56692   0.52197   0.00000  Uiso   1.00
N272   N     0.78751   0.74448   0.84437   0.00000  Uiso   1.00
N273   N     0.94660   0.91166   0.44958   0.00000  Uiso   1.00
N274   N     0.92508   0.54043   0.44897   0.00000  Uiso   1.00
N275   N     0.86762   0.71799   0.77138   0.00000  Uiso   1.00
N276   N     0.02670   0.88518   0.37659   0.00000  Uiso   1.00
C277   C     0.17655   0.41970   0.63640   0.00000  Uiso   1.00
C278   C     0.22875   0.44268   0.68802   0.00000  Uiso   1.00
C279   C     0.25892   0.41877   0.77759   0.00000  Uiso   1.00
C280   C     0.30544   0.44621   0.81239   0.00000  Uiso   1.00
C281   C     0.38411   0.47433   0.90056   0.00000  Uiso   1.00
C282   C     0.18738   0.41476   0.50007   0.00000  Uiso   1.00
C283   C     0.18275   0.36738   0.43161   0.00000  Uiso   1.00
C284   C     0.19444   0.37132   0.30818   0.00000  Uiso   1.00
C285   C     0.20884   0.35611   0.10454   0.00000  Uiso   1.00
C286   C     0.13339   0.46420   0.65428   0.00000  Uiso   1.00
C287   C     0.08336   0.45838   0.71546   0.00000  Uiso   1.00
C288   C     0.04959   0.50395   0.72184   0.00000  Uiso   1.00
C289   C     0.98016   0.56550   0.75765   0.00000  Uiso   1.00
C290   C     0.20553   0.51095   0.53892   0.00000  Uiso   1.00
C291   C     0.24449   0.49224   0.63508   0.00000  Uiso   1.00
C292   C     0.29097   0.51973   0.66975   0.00000  Uiso   1.00
C293   C     0.32120   0.49587   0.75935   0.00000  Uiso   1.00
C294   C     0.20312   0.46432   0.44713   0.00000  Uiso   1.00
C295   C     0.21481   0.46833   0.32377   0.00000  Uiso   1.00
C296   C     0.21021   0.42097   0.25514   0.00000  Uiso   1.00
C297   C     0.14913   0.51376   0.60134   0.00000  Uiso   1.00
C298   C     0.11542   0.55934   0.60763   0.00000  Uiso   1.00
C299   C     0.06535   0.55360   0.66880   0.00000  Uiso   1.00
H300   H     0.16430   0.38111   0.67760   0.00000  Uiso   1.00
H301   H     0.24673   0.38041   0.81853   0.00000  Uiso   1.00
H302   H     0.17057   0.32903   0.47260   0.00000  Uiso   1.00
H303   H     0.07120   0.42002   0.75642   0.00000  Uiso   1.00
H304   H     0.34506   0.40148   0.95139   0.00000  Uiso   1.00
H305   H     0.18446   0.29314   0.22198   0.00000  Uiso   1.00
H306   H     0.97491   0.48502   0.82045   0.00000  Uiso   1.00
H307   H     0.21778   0.54954   0.49770   0.00000  Uiso   1.00
H308   H     0.30314   0.55808   0.62876   0.00000  Uiso   1.00
H309   H     0.22698   0.50670   0.28283   0.00000  Uiso   1.00
H310   H     0.12761   0.59769   0.56665   0.00000  Uiso   1.00
H311   H     0.39085   0.54568   0.79737   0.00000  Uiso   1.00
H312   H     0.23025   0.43734   0.06795   0.00000  Uiso   1.00
H313   H     0.02070   0.62922   0.66643   0.00000  Uiso   1.00
O314   O     0.42316   0.47615   0.96381   0.00000  Uiso   1.00
O315   O     0.21244   0.33402   0.00685   0.00000  Uiso   1.00
O316   O     0.93752   0.58576   0.79204   0.00000  Uiso   1.00
N317   N     0.34412   0.43425   0.89718   0.00000  Uiso   1.00
N318   N     0.19397   0.33296   0.21522   0.00000  Uiso   1.00
N319   N     0.99806   0.51234   0.77471   0.00000  Uiso   1.00
N320   N     0.36876   0.51185   0.81430   0.00000  Uiso   1.00
N321   N     0.21861   0.41055   0.13234   0.00000  Uiso   1.00
N322   N     0.02270   0.58994   0.69183   0.00000  Uiso   1.00
C323   C     0.56220   0.76831   0.24116   0.00000  Uiso   1.00
C324   C     0.54859   0.82329   0.30040   0.00000  Uiso   1.00
C325   C     0.58430   0.85546   0.36456   0.00000  Uiso   1.00
C326   C     0.56400   0.90440   0.41172   0.00000  Uiso   1.00
C327   C     0.55110   0.98734   0.50615   0.00000  Uiso   1.00
C328   C     0.54900   0.77410   0.10802   0.00000  Uiso   1.00
C329   C     0.58505   0.76489   0.01043   0.00000  Uiso   1.00
C330   C     0.56509   0.77241   0.89564   0.00000  Uiso   1.00
C331   C     0.55281   0.77893   0.69140   0.00000  Uiso   1.00
C332   C     0.52079   0.72788   0.29426   0.00000  Uiso   1.00
C333   C     0.53314   0.67981   0.35325   0.00000  Uiso   1.00
C334   C     0.48943   0.64841   0.39524   0.00000  Uiso   1.00
C335   C     0.43336   0.58318   0.48018   0.00000  Uiso   1.00
C336   C     0.46264   0.79800   0.21082   0.00000  Uiso   1.00
C337   C     0.49451   0.83942   0.28391   0.00000  Uiso   1.00
C338   C     0.47415   0.88832   0.33099   0.00000  Uiso   1.00
C339   C     0.50983   0.92055   0.39521   0.00000  Uiso   1.00
C340   C     0.49492   0.79023   0.09153   0.00000  Uiso   1.00
C341   C     0.47490   0.79775   0.97686   0.00000  Uiso   1.00
C342   C     0.51092   0.78857   0.87913   0.00000  Uiso   1.00
C343   C     0.46672   0.74401   0.27779   0.00000  Uiso   1.00
C344   C     0.42298   0.71267   0.31968   0.00000  Uiso   1.00
C345   C     0.43526   0.66457   0.37873   0.00000  Uiso   1.00
H346   H     0.60430   0.75575   0.25399   0.00000  Uiso   1.00
H347   H     0.62615   0.84297   0.37729   0.00000  Uiso   1.00
H348   H     0.62690   0.75241   0.02322   0.00000  Uiso   1.00
H349   H     0.57499   0.66735   0.36599   0.00000  Uiso   1.00
H350   H     0.62653   0.94679   0.50668   0.00000  Uiso   1.00
H351   H     0.62810   0.75582   0.76010   0.00000  Uiso   1.00
H352   H     0.51864   0.57645   0.48290   0.00000  Uiso   1.00
H353   H     0.42054   0.81056   0.19798   0.00000  Uiso   1.00
H354   H     0.43230   0.90079   0.31822   0.00000  Uiso   1.00
H355   H     0.43305   0.81023   0.96414   0.00000  Uiso   1.00
H356   H     0.38114   0.72517   0.30691   0.00000  Uiso   1.00
H357   H     0.46919   0.99372   0.45874   0.00000  Uiso   1.00
H358   H     0.47077   0.80275   0.71215   0.00000  Uiso   1.00
H359   H     0.36131   0.62338   0.43495   0.00000  Uiso   1.00
O360   O     0.55892   0.02863   0.56278   0.00000  Uiso   1.00
O361   O     0.56098   0.77808   0.58330   0.00000  Uiso   1.00
O362   O     0.41738   0.54275   0.53159   0.00000  Uiso   1.00
N363   N     0.58788   0.94545   0.47892   0.00000  Uiso   1.00
N364   N     0.58936   0.76691   0.78091   0.00000  Uiso   1.00
N365   N     0.48702   0.59920   0.45664   0.00000  Uiso   1.00
N366   N     0.50322   0.97070   0.45312   0.00000  Uiso   1.00
N367   N     0.50469   0.79216   0.75511   0.00000  Uiso   1.00
N368   N     0.40236   0.62446   0.43084   0.00000  Uiso   1.00
