data_job_04103
_audit_creation_date              2018-12-19
_audit_creation_method            'Materials Studio'
_symmetry_space_group_name_H-M    'P1'
_symmetry_Int_Tables_number       1
_symmetry_cell_setting            triclinic
loop_
_symmetry_equiv_pos_as_xyz
  x,y,z
_cell_length_a                    24.1212
_cell_length_b                    24.1212
_cell_length_c                    12.0404
_cell_angle_alpha                 90.0000
_cell_angle_beta                  90.0000
_cell_angle_gamma                 120.0000
loop_
_atom_site_label
_atom_site_type_symbol
_atom_site_fract_x
_atom_site_fract_y
_atom_site_fract_z
_atom_site_U_iso_or_equiv
_atom_site_adp_type
_atom_site_occupancy
C1     C     0.80982   0.50698   0.20013   0.00000  Uiso   1.00
C2     C     0.74672   0.44923   0.16409   0.00000  Uiso   1.00
C3     C     0.68754   0.44578   0.16314   0.00000  Uiso   1.00
C4     C     0.63556   0.38870   0.12731   0.00000  Uiso   1.00
C5     C     0.53651   0.30688   0.07652   0.00000  Uiso   1.00
C6     C     0.83626   0.48313   0.29190   0.00000  Uiso   1.00
C7     C     0.85237   0.50819   0.39840   0.00000  Uiso   1.00
C8     C     0.87578   0.47965   0.47016   0.00000  Uiso   1.00
C9     C     0.91578   0.45050   0.61777   0.00000  Uiso   1.00
C10    C     0.85534   0.52331   0.10196   0.00000  Uiso   1.00
C11    C     0.88752   0.58217   0.04878   0.00000  Uiso   1.00
C12    C     0.92700   0.58747   0.96065   0.00000  Uiso   1.00
C13    C     0.99663   0.62071   0.81335   0.00000  Uiso   1.00
C14    C     0.82274   0.41173   0.13818   0.00000  Uiso   1.00
C15    C     0.75374   0.39749   0.13045   0.00000  Uiso   1.00
C16    C     0.70184   0.34040   0.09461   0.00000  Uiso   1.00
C17    C     0.64259   0.33687   0.09360   0.00000  Uiso   1.00
C18    C     0.84328   0.43140   0.25826   0.00000  Uiso   1.00
C19    C     0.86667   0.40282   0.32987   0.00000  Uiso   1.00
C20    C     0.88281   0.42783   0.43646   0.00000  Uiso   1.00
C21    C     0.86236   0.47158   0.06831   0.00000  Uiso   1.00
C22    C     0.90181   0.47679   0.98025   0.00000  Uiso   1.00
C23    C     0.93403   0.53564   0.92694   0.00000  Uiso   1.00
H24    H     0.80436   0.54726   0.22633   0.00000  Uiso   1.00
H25    H     0.68213   0.48583   0.18919   0.00000  Uiso   1.00
H26    H     0.84694   0.54823   0.42441   0.00000  Uiso   1.00
H27    H     0.88208   0.62219   0.07484   0.00000  Uiso   1.00
H28    H     0.54971   0.39489   0.13322   0.00000  Uiso   1.00
H29    H     0.89724   0.52650   0.62918   0.00000  Uiso   1.00
H30    H     0.97133   0.68246   0.89205   0.00000  Uiso   1.00
H31    H     0.82821   0.37146   0.11199   0.00000  Uiso   1.00
H32    H     0.70728   0.30037   0.06858   0.00000  Uiso   1.00
H33    H     0.87209   0.36278   0.30380   0.00000  Uiso   1.00
H34    H     0.90723   0.43674   0.95424   0.00000  Uiso   1.00
H35    H     0.57012   0.24437   0.03533   0.00000  Uiso   1.00
H36    H     0.91766   0.37598   0.53130   0.00000  Uiso   1.00
H37    H     0.99174   0.53194   0.79417   0.00000  Uiso   1.00
O38    O     0.47993   0.27604   0.05782   0.00000  Uiso   1.00
O39    O     0.93589   0.44871   0.70849   0.00000  Uiso   1.00
O40    O     0.03309   0.65333   0.74139   0.00000  Uiso   1.00
N41    N     0.57111   0.36923   0.11612   0.00000  Uiso   1.00
N42    N     0.89602   0.49226   0.57982   0.00000  Uiso   1.00
N43    N     0.96530   0.63808   0.89069   0.00000  Uiso   1.00
N44    N     0.58209   0.28823   0.06345   0.00000  Uiso   1.00
N45    N     0.90701   0.41127   0.52715   0.00000  Uiso   1.00
N46    N     0.97629   0.55709   0.83801   0.00000  Uiso   1.00
C47    C     0.49302   0.30284   0.53346   0.00000  Uiso   1.00
C48    C     0.55077   0.29749   0.49742   0.00000  Uiso   1.00
C49    C     0.55422   0.24176   0.49647   0.00000  Uiso   1.00
C50    C     0.61130   0.24687   0.46065   0.00000  Uiso   1.00
C51    C     0.69312   0.22963   0.40986   0.00000  Uiso   1.00
C52    C     0.51687   0.35313   0.62523   0.00000  Uiso   1.00
C53    C     0.49181   0.34418   0.73174   0.00000  Uiso   1.00
C54    C     0.52035   0.39612   0.80350   0.00000  Uiso   1.00
C55    C     0.54950   0.46528   0.95111   0.00000  Uiso   1.00
C56    C     0.47669   0.33203   0.43529   0.00000  Uiso   1.00
C57    C     0.41783   0.30535   0.38212   0.00000  Uiso   1.00
C58    C     0.41253   0.33953   0.29398   0.00000  Uiso   1.00
C59    C     0.37929   0.37593   0.14669   0.00000  Uiso   1.00
C60    C     0.58827   0.41101   0.47152   0.00000  Uiso   1.00
C61    C     0.60251   0.35625   0.46378   0.00000  Uiso   1.00
C62    C     0.65960   0.36144   0.42794   0.00000  Uiso   1.00
C63    C     0.66313   0.30572   0.42694   0.00000  Uiso   1.00
C64    C     0.56860   0.41188   0.59159   0.00000  Uiso   1.00
C65    C     0.59718   0.46385   0.66320   0.00000  Uiso   1.00
C66    C     0.57217   0.45498   0.76979   0.00000  Uiso   1.00
C67    C     0.52842   0.39078   0.40165   0.00000  Uiso   1.00
C68    C     0.52321   0.42502   0.31358   0.00000  Uiso   1.00
C69    C     0.46436   0.39839   0.26028   0.00000  Uiso   1.00
H70    H     0.45274   0.25710   0.55966   0.00000  Uiso   1.00
H71    H     0.51417   0.19631   0.52253   0.00000  Uiso   1.00
H72    H     0.45177   0.29871   0.75774   0.00000  Uiso   1.00
H73    H     0.37781   0.25988   0.40818   0.00000  Uiso   1.00
H74    H     0.60511   0.15481   0.46656   0.00000  Uiso   1.00
H75    H     0.47350   0.37074   0.96252   0.00000  Uiso   1.00
H76    H     0.31754   0.28887   0.22539   0.00000  Uiso   1.00
H77    H     0.62854   0.45675   0.44533   0.00000  Uiso   1.00
H78    H     0.69963   0.40691   0.40191   0.00000  Uiso   1.00
H79    H     0.63722   0.50931   0.63714   0.00000  Uiso   1.00
H80    H     0.56326   0.47048   0.28757   0.00000  Uiso   1.00
H81    H     0.75563   0.32575   0.36867   0.00000  Uiso   1.00
H82    H     0.62402   0.54168   0.86463   0.00000  Uiso   1.00
H83    H     0.46806   0.45980   0.12750   0.00000  Uiso   1.00
O84    O     0.72396   0.20389   0.39115   0.00000  Uiso   1.00
O85    O     0.55129   0.48719   0.04183   0.00000  Uiso   1.00
O86    O     0.34667   0.37977   0.07473   0.00000  Uiso   1.00
N87    N     0.63077   0.20188   0.44945   0.00000  Uiso   1.00
N88    N     0.50774   0.40376   0.91316   0.00000  Uiso   1.00
N89    N     0.36192   0.32722   0.22402   0.00000  Uiso   1.00
N90    N     0.71177   0.29386   0.39678   0.00000  Uiso   1.00
N91    N     0.58873   0.49574   0.86048   0.00000  Uiso   1.00
N92    N     0.44291   0.41920   0.17135   0.00000  Uiso   1.00
C93    C     0.69716   0.19018   0.86679   0.00000  Uiso   1.00
C94    C     0.70251   0.25328   0.83075   0.00000  Uiso   1.00
C95    C     0.75824   0.31246   0.82980   0.00000  Uiso   1.00
C96    C     0.75313   0.36444   0.79398   0.00000  Uiso   1.00
C97    C     0.77037   0.46349   0.74319   0.00000  Uiso   1.00
C98    C     0.64687   0.16374   0.95856   0.00000  Uiso   1.00
C99    C     0.65582   0.14763   0.06507   0.00000  Uiso   1.00
C100   C     0.60388   0.12422   0.13683   0.00000  Uiso   1.00
C101   C     0.53472   0.08422   0.28444   0.00000  Uiso   1.00
C102   C     0.66797   0.14466   0.76863   0.00000  Uiso   1.00
C103   C     0.69465   0.11248   0.71545   0.00000  Uiso   1.00
C104   C     0.66047   0.07300   0.62731   0.00000  Uiso   1.00
C105   C     0.62407   0.00337   0.48002   0.00000  Uiso   1.00
C106   C     0.58899   0.17726   0.80485   0.00000  Uiso   1.00
C107   C     0.64375   0.24626   0.79711   0.00000  Uiso   1.00
C108   C     0.63856   0.29816   0.76127   0.00000  Uiso   1.00
C109   C     0.69428   0.35741   0.76027   0.00000  Uiso   1.00
C110   C     0.58812   0.15672   0.92492   0.00000  Uiso   1.00
C111   C     0.53615   0.13333   0.99654   0.00000  Uiso   1.00
C112   C     0.54502   0.11719   0.10313   0.00000  Uiso   1.00
C113   C     0.60922   0.13764   0.73498   0.00000  Uiso   1.00
C114   C     0.57498   0.09819   0.64692   0.00000  Uiso   1.00
C115   C     0.60161   0.06597   0.59361   0.00000  Uiso   1.00
H116   H     0.74290   0.19564   0.89299   0.00000  Uiso   1.00
H117   H     0.80369   0.31787   0.85586   0.00000  Uiso   1.00
H118   H     0.70129   0.15306   0.09108   0.00000  Uiso   1.00
H119   H     0.74012   0.11792   0.74151   0.00000  Uiso   1.00
H120   H     0.84519   0.45029   0.79989   0.00000  Uiso   1.00
H121   H     0.62926   0.10276   0.29585   0.00000  Uiso   1.00
H122   H     0.71113   0.02867   0.55872   0.00000  Uiso   1.00
H123   H     0.54325   0.17179   0.77866   0.00000  Uiso   1.00
H124   H     0.59309   0.29272   0.73524   0.00000  Uiso   1.00
H125   H     0.49069   0.12791   0.97047   0.00000  Uiso   1.00
H126   H     0.52952   0.09277   0.62090   0.00000  Uiso   1.00
H127   H     0.67425   0.42988   0.70200   0.00000  Uiso   1.00
H128   H     0.45832   0.08234   0.19797   0.00000  Uiso   1.00
H129   H     0.54020   0.00826   0.46083   0.00000  Uiso   1.00
O130   O     0.79611   0.52007   0.72448   0.00000  Uiso   1.00
O131   O     0.51281   0.06411   0.37516   0.00000  Uiso   1.00
O132   O     0.62023   0.96691   0.40806   0.00000  Uiso   1.00
N133   N     0.79812   0.42889   0.78279   0.00000  Uiso   1.00
N134   N     0.59624   0.10398   0.24649   0.00000  Uiso   1.00
N135   N     0.67278   0.03470   0.55735   0.00000  Uiso   1.00
N136   N     0.70614   0.41791   0.73011   0.00000  Uiso   1.00
N137   N     0.50426   0.09299   0.19382   0.00000  Uiso   1.00
N138   N     0.58080   0.02371   0.50468   0.00000  Uiso   1.00
C139   C     0.19018   0.49302   0.70013   0.00000  Uiso   1.00
C140   C     0.25328   0.55077   0.66409   0.00000  Uiso   1.00
C141   C     0.31246   0.55422   0.66314   0.00000  Uiso   1.00
C142   C     0.36444   0.61130   0.62731   0.00000  Uiso   1.00
C143   C     0.46349   0.69312   0.57652   0.00000  Uiso   1.00
C144   C     0.16374   0.51687   0.79190   0.00000  Uiso   1.00
C145   C     0.14763   0.49181   0.89840   0.00000  Uiso   1.00
C146   C     0.12422   0.52035   0.97016   0.00000  Uiso   1.00
C147   C     0.08422   0.54950   0.11777   0.00000  Uiso   1.00
C148   C     0.14466   0.47669   0.60196   0.00000  Uiso   1.00
C149   C     0.11248   0.41783   0.54878   0.00000  Uiso   1.00
C150   C     0.07300   0.41253   0.46065   0.00000  Uiso   1.00
C151   C     0.00337   0.37929   0.31335   0.00000  Uiso   1.00
C152   C     0.17726   0.58827   0.63818   0.00000  Uiso   1.00
C153   C     0.24626   0.60251   0.63045   0.00000  Uiso   1.00
C154   C     0.29816   0.65960   0.59461   0.00000  Uiso   1.00
C155   C     0.35741   0.66313   0.59360   0.00000  Uiso   1.00
C156   C     0.15672   0.56860   0.75826   0.00000  Uiso   1.00
C157   C     0.13333   0.59718   0.82987   0.00000  Uiso   1.00
C158   C     0.11719   0.57217   0.93646   0.00000  Uiso   1.00
C159   C     0.13764   0.52842   0.56831   0.00000  Uiso   1.00
C160   C     0.09819   0.52321   0.48025   0.00000  Uiso   1.00
C161   C     0.06597   0.46436   0.42694   0.00000  Uiso   1.00
H162   H     0.19564   0.45274   0.72633   0.00000  Uiso   1.00
H163   H     0.31787   0.51417   0.68919   0.00000  Uiso   1.00
H164   H     0.15306   0.45177   0.92441   0.00000  Uiso   1.00
H165   H     0.11792   0.37781   0.57484   0.00000  Uiso   1.00
H166   H     0.45029   0.60511   0.63322   0.00000  Uiso   1.00
H167   H     0.10276   0.47350   0.12918   0.00000  Uiso   1.00
H168   H     0.02867   0.31754   0.39205   0.00000  Uiso   1.00
H169   H     0.17179   0.62854   0.61199   0.00000  Uiso   1.00
H170   H     0.29272   0.69963   0.56858   0.00000  Uiso   1.00
H171   H     0.12791   0.63722   0.80380   0.00000  Uiso   1.00
H172   H     0.09277   0.56326   0.45424   0.00000  Uiso   1.00
H173   H     0.42988   0.75563   0.53533   0.00000  Uiso   1.00
H174   H     0.08234   0.62402   0.03130   0.00000  Uiso   1.00
H175   H     0.00826   0.46806   0.29417   0.00000  Uiso   1.00
O176   O     0.52007   0.72396   0.55782   0.00000  Uiso   1.00
O177   O     0.06411   0.55129   0.20849   0.00000  Uiso   1.00
O178   O     0.96691   0.34667   0.24139   0.00000  Uiso   1.00
N179   N     0.42889   0.63077   0.61612   0.00000  Uiso   1.00
N180   N     0.10398   0.50774   0.07982   0.00000  Uiso   1.00
N181   N     0.03470   0.36192   0.39069   0.00000  Uiso   1.00
N182   N     0.41791   0.71177   0.56345   0.00000  Uiso   1.00
N183   N     0.09299   0.58873   0.02715   0.00000  Uiso   1.00
N184   N     0.02371   0.44291   0.33801   0.00000  Uiso   1.00
C185   C     0.50698   0.69716   0.03346   0.00000  Uiso   1.00
C186   C     0.44923   0.70251   0.99742   0.00000  Uiso   1.00
C187   C     0.44578   0.75824   0.99647   0.00000  Uiso   1.00
C188   C     0.38870   0.75313   0.96065   0.00000  Uiso   1.00
C189   C     0.30688   0.77037   0.90986   0.00000  Uiso   1.00
C190   C     0.48313   0.64687   0.12523   0.00000  Uiso   1.00
C191   C     0.50819   0.65582   0.23174   0.00000  Uiso   1.00
C192   C     0.47965   0.60388   0.30350   0.00000  Uiso   1.00
C193   C     0.45050   0.53472   0.45111   0.00000  Uiso   1.00
C194   C     0.52331   0.66797   0.93529   0.00000  Uiso   1.00
C195   C     0.58217   0.69465   0.88212   0.00000  Uiso   1.00
C196   C     0.58747   0.66047   0.79398   0.00000  Uiso   1.00
C197   C     0.62071   0.62407   0.64669   0.00000  Uiso   1.00
C198   C     0.41173   0.58899   0.97152   0.00000  Uiso   1.00
C199   C     0.39749   0.64375   0.96378   0.00000  Uiso   1.00
C200   C     0.34040   0.63856   0.92794   0.00000  Uiso   1.00
C201   C     0.33687   0.69428   0.92694   0.00000  Uiso   1.00
C202   C     0.43140   0.58812   0.09159   0.00000  Uiso   1.00
C203   C     0.40282   0.53615   0.16320   0.00000  Uiso   1.00
C204   C     0.42783   0.54502   0.26979   0.00000  Uiso   1.00
C205   C     0.47158   0.60922   0.90165   0.00000  Uiso   1.00
C206   C     0.47679   0.57498   0.81358   0.00000  Uiso   1.00
C207   C     0.53564   0.60161   0.76028   0.00000  Uiso   1.00
H208   H     0.54726   0.74290   0.05966   0.00000  Uiso   1.00
H209   H     0.48583   0.80369   0.02253   0.00000  Uiso   1.00
H210   H     0.54823   0.70129   0.25774   0.00000  Uiso   1.00
H211   H     0.62219   0.74012   0.90818   0.00000  Uiso   1.00
H212   H     0.39489   0.84519   0.96656   0.00000  Uiso   1.00
H213   H     0.52650   0.62926   0.46252   0.00000  Uiso   1.00
H214   H     0.68246   0.71113   0.72539   0.00000  Uiso   1.00
H215   H     0.37146   0.54325   0.94533   0.00000  Uiso   1.00
H216   H     0.30037   0.59309   0.90191   0.00000  Uiso   1.00
H217   H     0.36278   0.49069   0.13714   0.00000  Uiso   1.00
H218   H     0.43674   0.52952   0.78757   0.00000  Uiso   1.00
H219   H     0.24437   0.67425   0.86867   0.00000  Uiso   1.00
H220   H     0.37598   0.45832   0.36463   0.00000  Uiso   1.00
H221   H     0.53194   0.54020   0.62750   0.00000  Uiso   1.00
O222   O     0.27604   0.79611   0.89115   0.00000  Uiso   1.00
O223   O     0.44871   0.51281   0.54183   0.00000  Uiso   1.00
O224   O     0.65333   0.62023   0.57473   0.00000  Uiso   1.00
N225   N     0.36923   0.79812   0.94945   0.00000  Uiso   1.00
N226   N     0.49226   0.59624   0.41316   0.00000  Uiso   1.00
N227   N     0.63808   0.67278   0.72402   0.00000  Uiso   1.00
N228   N     0.28823   0.70614   0.89678   0.00000  Uiso   1.00
N229   N     0.41127   0.50426   0.36048   0.00000  Uiso   1.00
N230   N     0.55709   0.58080   0.67135   0.00000  Uiso   1.00
C231   C     0.30284   0.80982   0.36679   0.00000  Uiso   1.00
C232   C     0.29749   0.74672   0.33075   0.00000  Uiso   1.00
C233   C     0.24176   0.68754   0.32980   0.00000  Uiso   1.00
C234   C     0.24687   0.63556   0.29398   0.00000  Uiso   1.00
C235   C     0.22963   0.53651   0.24319   0.00000  Uiso   1.00
C236   C     0.35313   0.83626   0.45856   0.00000  Uiso   1.00
C237   C     0.34418   0.85237   0.56507   0.00000  Uiso   1.00
C238   C     0.39612   0.87578   0.63683   0.00000  Uiso   1.00
C239   C     0.46528   0.91578   0.78444   0.00000  Uiso   1.00
C240   C     0.33203   0.85534   0.26863   0.00000  Uiso   1.00
C241   C     0.30535   0.88752   0.21545   0.00000  Uiso   1.00
C242   C     0.33953   0.92700   0.12731   0.00000  Uiso   1.00
C243   C     0.37593   0.99663   0.98002   0.00000  Uiso   1.00
C244   C     0.41101   0.82274   0.30485   0.00000  Uiso   1.00
C245   C     0.35625   0.75374   0.29711   0.00000  Uiso   1.00
C246   C     0.36144   0.70184   0.26127   0.00000  Uiso   1.00
C247   C     0.30572   0.64259   0.26027   0.00000  Uiso   1.00
C248   C     0.41188   0.84328   0.42492   0.00000  Uiso   1.00
C249   C     0.46385   0.86667   0.49654   0.00000  Uiso   1.00
C250   C     0.45498   0.88281   0.60313   0.00000  Uiso   1.00
C251   C     0.39078   0.86236   0.23498   0.00000  Uiso   1.00
C252   C     0.42502   0.90181   0.14692   0.00000  Uiso   1.00
C253   C     0.39839   0.93403   0.09361   0.00000  Uiso   1.00
H254   H     0.25710   0.80436   0.39299   0.00000  Uiso   1.00
H255   H     0.19631   0.68213   0.35586   0.00000  Uiso   1.00
H256   H     0.29871   0.84694   0.59108   0.00000  Uiso   1.00
H257   H     0.25988   0.88208   0.24151   0.00000  Uiso   1.00
H258   H     0.15481   0.54971   0.29989   0.00000  Uiso   1.00
H259   H     0.37074   0.89724   0.79585   0.00000  Uiso   1.00
H260   H     0.28887   0.97133   0.05872   0.00000  Uiso   1.00
H261   H     0.45675   0.82821   0.27866   0.00000  Uiso   1.00
H262   H     0.40691   0.70728   0.23524   0.00000  Uiso   1.00
H263   H     0.50931   0.87209   0.47047   0.00000  Uiso   1.00
H264   H     0.47048   0.90723   0.12090   0.00000  Uiso   1.00
H265   H     0.32575   0.57012   0.20200   0.00000  Uiso   1.00
H266   H     0.54168   0.91766   0.69797   0.00000  Uiso   1.00
H267   H     0.45980   0.99174   0.96083   0.00000  Uiso   1.00
O268   O     0.20389   0.47993   0.22448   0.00000  Uiso   1.00
O269   O     0.48719   0.93589   0.87516   0.00000  Uiso   1.00
O270   O     0.37977   0.03309   0.90806   0.00000  Uiso   1.00
N271   N     0.20188   0.57111   0.28279   0.00000  Uiso   1.00
N272   N     0.40376   0.89602   0.74649   0.00000  Uiso   1.00
N273   N     0.32722   0.96530   0.05735   0.00000  Uiso   1.00
N274   N     0.29386   0.58209   0.23011   0.00000  Uiso   1.00
N275   N     0.49574   0.90701   0.69382   0.00000  Uiso   1.00
N276   N     0.41920   0.97629   0.00468   0.00000  Uiso   1.00
