data_job_00590
_audit_creation_date              2018-12-19
_audit_creation_method            'Materials Studio'
_symmetry_space_group_name_H-M    'P1'
_symmetry_Int_Tables_number       1
_symmetry_cell_setting            triclinic
loop_
_symmetry_equiv_pos_as_xyz
  x,y,z
_cell_length_a                    17.6778
_cell_length_b                    11.8910
_cell_length_c                    22.4962
_cell_angle_alpha                 90.0000
_cell_angle_beta                  90.0000
_cell_angle_gamma                 90.0000
loop_
_atom_site_label
_atom_site_type_symbol
_atom_site_fract_x
_atom_site_fract_y
_atom_site_fract_z
_atom_site_U_iso_or_equiv
_atom_site_adp_type
_atom_site_occupancy
C1     C     0.86807   0.44849   0.65867   0.00000  Uiso   1.00
C2     C     0.84677   0.45105   0.72434   0.00000  Uiso   1.00
C3     C     0.86474   0.36926   0.76602   0.00000  Uiso   1.00
C4     C     0.84006   0.38714   0.82384   0.00000  Uiso   1.00
C5     C     0.81321   0.37645   0.92345   0.00000  Uiso   1.00
C6     C     0.79398   0.45886   0.62439   0.00000  Uiso   1.00
C7     C     0.76758   0.38364   0.58202   0.00000  Uiso   1.00
C8     C     0.69847   0.40811   0.55570   0.00000  Uiso   1.00
C9     C     0.58969   0.40958   0.50009   0.00000  Uiso   1.00
C10    C     0.91153   0.55699   0.64686   0.00000  Uiso   1.00
C11    C     0.98395   0.56429   0.62337   0.00000  Uiso   1.00
C12    C     0.01381   0.67138   0.61595   0.00000  Uiso   1.00
C13    C     0.08754   0.82521   0.59524   0.00000  Uiso   1.00
C14    C     0.79229   0.62569   0.68724   0.00000  Uiso   1.00
C15    C     0.80560   0.54730   0.73986   0.00000  Uiso   1.00
C16    C     0.78090   0.56531   0.79764   0.00000  Uiso   1.00
C17    C     0.79883   0.48356   0.83939   0.00000  Uiso   1.00
C18    C     0.75282   0.55510   0.63991   0.00000  Uiso   1.00
C19    C     0.68374   0.57969   0.61364   0.00000  Uiso   1.00
C20    C     0.65723   0.50453   0.57125   0.00000  Uiso   1.00
C21    C     0.87037   0.65324   0.66238   0.00000  Uiso   1.00
C22    C     0.90011   0.76034   0.65499   0.00000  Uiso   1.00
C23    C     0.97257   0.76780   0.63150   0.00000  Uiso   1.00
H24    H     0.90011   0.37356   0.64658   0.00000  Uiso   1.00
H25    H     0.89659   0.29479   0.75399   0.00000  Uiso   1.00
H26    H     0.79945   0.30917   0.57001   0.00000  Uiso   1.00
H27    H     0.01579   0.48979   0.61136   0.00000  Uiso   1.00
H28    H     0.87451   0.24987   0.87991   0.00000  Uiso   1.00
H29    H     0.66969   0.28023   0.49198   0.00000  Uiso   1.00
H30    H     0.12589   0.66110   0.57916   0.00000  Uiso   1.00
H31    H     0.76024   0.70062   0.69933   0.00000  Uiso   1.00
H32    H     0.74904   0.63980   0.80964   0.00000  Uiso   1.00
H33    H     0.65190   0.65418   0.62566   0.00000  Uiso   1.00
H34    H     0.86824   0.83480   0.66701   0.00000  Uiso   1.00
H35    H     0.75475   0.52989   0.92507   0.00000  Uiso   1.00
H36    H     0.54993   0.56025   0.53714   0.00000  Uiso   1.00
H37    H     0.00613   0.94112   0.62433   0.00000  Uiso   1.00
O38    O     0.80976   0.34395   0.97410   0.00000  Uiso   1.00
O39    O     0.54106   0.38379   0.46514   0.00000  Uiso   1.00
O40    O     0.13958   0.88348   0.57953   0.00000  Uiso   1.00
N41    N     0.84787   0.32414   0.87540   0.00000  Uiso   1.00
N42    N     0.65638   0.35251   0.51272   0.00000  Uiso   1.00
N43    N     0.08288   0.70859   0.59421   0.00000  Uiso   1.00
N44    N     0.78343   0.47481   0.89971   0.00000  Uiso   1.00
N45    N     0.59194   0.50318   0.53702   0.00000  Uiso   1.00
N46    N     0.01843   0.85927   0.61852   0.00000  Uiso   1.00
C47    C     0.63193   0.05151   0.15867   0.00000  Uiso   1.00
C48    C     0.65323   0.04895   0.22434   0.00000  Uiso   1.00
C49    C     0.63526   0.13074   0.26602   0.00000  Uiso   1.00
C50    C     0.65994   0.11286   0.32384   0.00000  Uiso   1.00
C51    C     0.68679   0.12355   0.42345   0.00000  Uiso   1.00
C52    C     0.70602   0.04114   0.12439   0.00000  Uiso   1.00
C53    C     0.73242   0.11636   0.08202   0.00000  Uiso   1.00
C54    C     0.80153   0.09189   0.05570   0.00000  Uiso   1.00
C55    C     0.91031   0.09042   0.00009   0.00000  Uiso   1.00
C56    C     0.58847   0.94301   0.14686   0.00000  Uiso   1.00
C57    C     0.51605   0.93571   0.12337   0.00000  Uiso   1.00
C58    C     0.48619   0.82862   0.11595   0.00000  Uiso   1.00
C59    C     0.41246   0.67479   0.09524   0.00000  Uiso   1.00
C60    C     0.70771   0.87431   0.18724   0.00000  Uiso   1.00
C61    C     0.69440   0.95270   0.23986   0.00000  Uiso   1.00
C62    C     0.71910   0.93469   0.29764   0.00000  Uiso   1.00
C63    C     0.70117   0.01644   0.33939   0.00000  Uiso   1.00
C64    C     0.74718   0.94490   0.13991   0.00000  Uiso   1.00
C65    C     0.81626   0.92031   0.11364   0.00000  Uiso   1.00
C66    C     0.84277   0.99547   0.07125   0.00000  Uiso   1.00
C67    C     0.62963   0.84676   0.16238   0.00000  Uiso   1.00
C68    C     0.59989   0.73966   0.15499   0.00000  Uiso   1.00
C69    C     0.52743   0.73220   0.13150   0.00000  Uiso   1.00
H70    H     0.59989   0.12644   0.14658   0.00000  Uiso   1.00
H71    H     0.60341   0.20521   0.25399   0.00000  Uiso   1.00
H72    H     0.70055   0.19083   0.07001   0.00000  Uiso   1.00
H73    H     0.48421   0.01021   0.11136   0.00000  Uiso   1.00
H74    H     0.62549   0.25013   0.37991   0.00000  Uiso   1.00
H75    H     0.83031   0.21977   0.99198   0.00000  Uiso   1.00
H76    H     0.37411   0.83890   0.07916   0.00000  Uiso   1.00
H77    H     0.73976   0.79938   0.19933   0.00000  Uiso   1.00
H78    H     0.75096   0.86020   0.30964   0.00000  Uiso   1.00
H79    H     0.84810   0.84582   0.12566   0.00000  Uiso   1.00
H80    H     0.63176   0.66520   0.16701   0.00000  Uiso   1.00
H81    H     0.74525   0.97011   0.42507   0.00000  Uiso   1.00
H82    H     0.95007   0.93975   0.03714   0.00000  Uiso   1.00
H83    H     0.49387   0.55888   0.12433   0.00000  Uiso   1.00
O84    O     0.69024   0.15605   0.47410   0.00000  Uiso   1.00
O85    O     0.95894   0.11621   0.96514   0.00000  Uiso   1.00
O86    O     0.36042   0.61652   0.07953   0.00000  Uiso   1.00
N87    N     0.65213   0.17586   0.37540   0.00000  Uiso   1.00
N88    N     0.84362   0.14749   0.01272   0.00000  Uiso   1.00
N89    N     0.41712   0.79141   0.09421   0.00000  Uiso   1.00
N90    N     0.71657   0.02519   0.39971   0.00000  Uiso   1.00
N91    N     0.90806   0.99682   0.03702   0.00000  Uiso   1.00
N92    N     0.48157   0.64073   0.11852   0.00000  Uiso   1.00
C93    C     0.13193   0.44849   0.84133   0.00000  Uiso   1.00
C94    C     0.15323   0.45105   0.77566   0.00000  Uiso   1.00
C95    C     0.13526   0.36926   0.73398   0.00000  Uiso   1.00
C96    C     0.15994   0.38714   0.67616   0.00000  Uiso   1.00
C97    C     0.18679   0.37645   0.57655   0.00000  Uiso   1.00
C98    C     0.20602   0.45886   0.87561   0.00000  Uiso   1.00
C99    C     0.23242   0.38364   0.91798   0.00000  Uiso   1.00
C100   C     0.30153   0.40811   0.94430   0.00000  Uiso   1.00
C101   C     0.41031   0.40958   0.99991   0.00000  Uiso   1.00
C102   C     0.08847   0.55699   0.85314   0.00000  Uiso   1.00
C103   C     0.01605   0.56429   0.87663   0.00000  Uiso   1.00
C104   C     0.98619   0.67138   0.88405   0.00000  Uiso   1.00
C105   C     0.91246   0.82521   0.90476   0.00000  Uiso   1.00
C106   C     0.20771   0.62569   0.81276   0.00000  Uiso   1.00
C107   C     0.19440   0.54730   0.76014   0.00000  Uiso   1.00
C108   C     0.21910   0.56531   0.70236   0.00000  Uiso   1.00
C109   C     0.20117   0.48356   0.66061   0.00000  Uiso   1.00
C110   C     0.24718   0.55510   0.86009   0.00000  Uiso   1.00
C111   C     0.31626   0.57969   0.88636   0.00000  Uiso   1.00
C112   C     0.34277   0.50453   0.92875   0.00000  Uiso   1.00
C113   C     0.12963   0.65324   0.83762   0.00000  Uiso   1.00
C114   C     0.09989   0.76034   0.84501   0.00000  Uiso   1.00
C115   C     0.02743   0.76780   0.86850   0.00000  Uiso   1.00
H116   H     0.09989   0.37356   0.85342   0.00000  Uiso   1.00
H117   H     0.10341   0.29479   0.74601   0.00000  Uiso   1.00
H118   H     0.20055   0.30917   0.92999   0.00000  Uiso   1.00
H119   H     0.98421   0.48979   0.88864   0.00000  Uiso   1.00
H120   H     0.12549   0.24987   0.62009   0.00000  Uiso   1.00
H121   H     0.33031   0.28023   0.00802   0.00000  Uiso   1.00
H122   H     0.87411   0.66110   0.92084   0.00000  Uiso   1.00
H123   H     0.23976   0.70062   0.80067   0.00000  Uiso   1.00
H124   H     0.25096   0.63980   0.69036   0.00000  Uiso   1.00
H125   H     0.34810   0.65418   0.87434   0.00000  Uiso   1.00
H126   H     0.13176   0.83480   0.83299   0.00000  Uiso   1.00
H127   H     0.24525   0.52989   0.57493   0.00000  Uiso   1.00
H128   H     0.45007   0.56025   0.96286   0.00000  Uiso   1.00
H129   H     0.99387   0.94112   0.87567   0.00000  Uiso   1.00
O130   O     0.19024   0.34395   0.52590   0.00000  Uiso   1.00
O131   O     0.45894   0.38379   0.03486   0.00000  Uiso   1.00
O132   O     0.86042   0.88348   0.92047   0.00000  Uiso   1.00
N133   N     0.15213   0.32414   0.62460   0.00000  Uiso   1.00
N134   N     0.34362   0.35251   0.98728   0.00000  Uiso   1.00
N135   N     0.91712   0.70859   0.90579   0.00000  Uiso   1.00
N136   N     0.21657   0.47481   0.60029   0.00000  Uiso   1.00
N137   N     0.40806   0.50318   0.96298   0.00000  Uiso   1.00
N138   N     0.98157   0.85927   0.88148   0.00000  Uiso   1.00
C139   C     0.36807   0.05151   0.34133   0.00000  Uiso   1.00
C140   C     0.34677   0.04895   0.27566   0.00000  Uiso   1.00
C141   C     0.36474   0.13074   0.23398   0.00000  Uiso   1.00
C142   C     0.34006   0.11286   0.17616   0.00000  Uiso   1.00
C143   C     0.31321   0.12355   0.07655   0.00000  Uiso   1.00
C144   C     0.29398   0.04114   0.37561   0.00000  Uiso   1.00
C145   C     0.26758   0.11636   0.41798   0.00000  Uiso   1.00
C146   C     0.19847   0.09189   0.44430   0.00000  Uiso   1.00
C147   C     0.08969   0.09042   0.49991   0.00000  Uiso   1.00
C148   C     0.41153   0.94301   0.35314   0.00000  Uiso   1.00
C149   C     0.48395   0.93571   0.37663   0.00000  Uiso   1.00
C150   C     0.51381   0.82862   0.38405   0.00000  Uiso   1.00
C151   C     0.58754   0.67479   0.40476   0.00000  Uiso   1.00
C152   C     0.29229   0.87431   0.31276   0.00000  Uiso   1.00
C153   C     0.30560   0.95270   0.26014   0.00000  Uiso   1.00
C154   C     0.28090   0.93469   0.20236   0.00000  Uiso   1.00
C155   C     0.29883   0.01644   0.16061   0.00000  Uiso   1.00
C156   C     0.25282   0.94490   0.36009   0.00000  Uiso   1.00
C157   C     0.18374   0.92031   0.38636   0.00000  Uiso   1.00
C158   C     0.15723   0.99547   0.42875   0.00000  Uiso   1.00
C159   C     0.37037   0.84676   0.33762   0.00000  Uiso   1.00
C160   C     0.40011   0.73966   0.34501   0.00000  Uiso   1.00
C161   C     0.47257   0.73220   0.36850   0.00000  Uiso   1.00
H162   H     0.40011   0.12644   0.35342   0.00000  Uiso   1.00
H163   H     0.39659   0.20521   0.24601   0.00000  Uiso   1.00
H164   H     0.29945   0.19083   0.42999   0.00000  Uiso   1.00
H165   H     0.51579   0.01021   0.38864   0.00000  Uiso   1.00
H166   H     0.37451   0.25013   0.12009   0.00000  Uiso   1.00
H167   H     0.16969   0.21977   0.50802   0.00000  Uiso   1.00
H168   H     0.62589   0.83890   0.42084   0.00000  Uiso   1.00
H169   H     0.26024   0.79938   0.30067   0.00000  Uiso   1.00
H170   H     0.24904   0.86020   0.19036   0.00000  Uiso   1.00
H171   H     0.15190   0.84582   0.37434   0.00000  Uiso   1.00
H172   H     0.36824   0.66520   0.33299   0.00000  Uiso   1.00
H173   H     0.25475   0.97011   0.07493   0.00000  Uiso   1.00
H174   H     0.04993   0.93975   0.46286   0.00000  Uiso   1.00
H175   H     0.50613   0.55888   0.37567   0.00000  Uiso   1.00
O176   O     0.30976   0.15605   0.02590   0.00000  Uiso   1.00
O177   O     0.04106   0.11621   0.53486   0.00000  Uiso   1.00
O178   O     0.63958   0.61652   0.42047   0.00000  Uiso   1.00
N179   N     0.34787   0.17586   0.12460   0.00000  Uiso   1.00
N180   N     0.15638   0.14749   0.48728   0.00000  Uiso   1.00
N181   N     0.58288   0.79141   0.40579   0.00000  Uiso   1.00
N182   N     0.28343   0.02519   0.10029   0.00000  Uiso   1.00
N183   N     0.09194   0.99682   0.46298   0.00000  Uiso   1.00
N184   N     0.51843   0.64073   0.38148   0.00000  Uiso   1.00
C185   C     0.13193   0.55151   0.34133   0.00000  Uiso   1.00
C186   C     0.15323   0.54895   0.27566   0.00000  Uiso   1.00
C187   C     0.13526   0.63074   0.23398   0.00000  Uiso   1.00
C188   C     0.15994   0.61286   0.17616   0.00000  Uiso   1.00
C189   C     0.18679   0.62355   0.07655   0.00000  Uiso   1.00
C190   C     0.20602   0.54114   0.37561   0.00000  Uiso   1.00
C191   C     0.23242   0.61636   0.41798   0.00000  Uiso   1.00
C192   C     0.30153   0.59189   0.44430   0.00000  Uiso   1.00
C193   C     0.41031   0.59042   0.49991   0.00000  Uiso   1.00
C194   C     0.08847   0.44301   0.35314   0.00000  Uiso   1.00
C195   C     0.01605   0.43571   0.37663   0.00000  Uiso   1.00
C196   C     0.98619   0.32862   0.38405   0.00000  Uiso   1.00
C197   C     0.91246   0.17479   0.40476   0.00000  Uiso   1.00
C198   C     0.20771   0.37431   0.31276   0.00000  Uiso   1.00
C199   C     0.19440   0.45270   0.26014   0.00000  Uiso   1.00
C200   C     0.21910   0.43469   0.20236   0.00000  Uiso   1.00
C201   C     0.20117   0.51644   0.16061   0.00000  Uiso   1.00
C202   C     0.24718   0.44490   0.36009   0.00000  Uiso   1.00
C203   C     0.31626   0.42031   0.38636   0.00000  Uiso   1.00
C204   C     0.34277   0.49547   0.42875   0.00000  Uiso   1.00
C205   C     0.12963   0.34676   0.33762   0.00000  Uiso   1.00
C206   C     0.09989   0.23966   0.34501   0.00000  Uiso   1.00
C207   C     0.02743   0.23220   0.36850   0.00000  Uiso   1.00
H208   H     0.09989   0.62644   0.35342   0.00000  Uiso   1.00
H209   H     0.10341   0.70521   0.24601   0.00000  Uiso   1.00
H210   H     0.20055   0.69083   0.42999   0.00000  Uiso   1.00
H211   H     0.98421   0.51021   0.38864   0.00000  Uiso   1.00
H212   H     0.12549   0.75013   0.12009   0.00000  Uiso   1.00
H213   H     0.33031   0.71977   0.50802   0.00000  Uiso   1.00
H214   H     0.87411   0.33890   0.42084   0.00000  Uiso   1.00
H215   H     0.23976   0.29938   0.30067   0.00000  Uiso   1.00
H216   H     0.25096   0.36020   0.19036   0.00000  Uiso   1.00
H217   H     0.34810   0.34582   0.37434   0.00000  Uiso   1.00
H218   H     0.13176   0.16520   0.33299   0.00000  Uiso   1.00
H219   H     0.24525   0.47011   0.07493   0.00000  Uiso   1.00
H220   H     0.45007   0.43975   0.46286   0.00000  Uiso   1.00
H221   H     0.99387   0.05888   0.37567   0.00000  Uiso   1.00
O222   O     0.19024   0.65605   0.02590   0.00000  Uiso   1.00
O223   O     0.45894   0.61621   0.53486   0.00000  Uiso   1.00
O224   O     0.86042   0.11652   0.42047   0.00000  Uiso   1.00
N225   N     0.15213   0.67586   0.12460   0.00000  Uiso   1.00
N226   N     0.34362   0.64749   0.48728   0.00000  Uiso   1.00
N227   N     0.91712   0.29141   0.40579   0.00000  Uiso   1.00
N228   N     0.21657   0.52519   0.10029   0.00000  Uiso   1.00
N229   N     0.40806   0.49682   0.46298   0.00000  Uiso   1.00
N230   N     0.98157   0.14073   0.38148   0.00000  Uiso   1.00
C231   C     0.36807   0.94849   0.84133   0.00000  Uiso   1.00
C232   C     0.34677   0.95105   0.77566   0.00000  Uiso   1.00
C233   C     0.36474   0.86926   0.73398   0.00000  Uiso   1.00
C234   C     0.34006   0.88714   0.67616   0.00000  Uiso   1.00
C235   C     0.31321   0.87645   0.57655   0.00000  Uiso   1.00
C236   C     0.29398   0.95886   0.87561   0.00000  Uiso   1.00
C237   C     0.26758   0.88364   0.91798   0.00000  Uiso   1.00
C238   C     0.19847   0.90811   0.94430   0.00000  Uiso   1.00
C239   C     0.08969   0.90958   0.99991   0.00000  Uiso   1.00
C240   C     0.41153   0.05699   0.85314   0.00000  Uiso   1.00
C241   C     0.48395   0.06429   0.87663   0.00000  Uiso   1.00
C242   C     0.51381   0.17138   0.88405   0.00000  Uiso   1.00
C243   C     0.58754   0.32521   0.90476   0.00000  Uiso   1.00
C244   C     0.29229   0.12569   0.81276   0.00000  Uiso   1.00
C245   C     0.30560   0.04730   0.76014   0.00000  Uiso   1.00
C246   C     0.28090   0.06531   0.70236   0.00000  Uiso   1.00
C247   C     0.29883   0.98356   0.66061   0.00000  Uiso   1.00
C248   C     0.25282   0.05510   0.86009   0.00000  Uiso   1.00
C249   C     0.18374   0.07969   0.88636   0.00000  Uiso   1.00
C250   C     0.15723   0.00453   0.92875   0.00000  Uiso   1.00
C251   C     0.37037   0.15324   0.83762   0.00000  Uiso   1.00
C252   C     0.40011   0.26034   0.84501   0.00000  Uiso   1.00
C253   C     0.47257   0.26780   0.86850   0.00000  Uiso   1.00
H254   H     0.40011   0.87356   0.85342   0.00000  Uiso   1.00
H255   H     0.39659   0.79479   0.74601   0.00000  Uiso   1.00
H256   H     0.29945   0.80917   0.92999   0.00000  Uiso   1.00
H257   H     0.51579   0.98979   0.88864   0.00000  Uiso   1.00
H258   H     0.37451   0.74987   0.62009   0.00000  Uiso   1.00
H259   H     0.16969   0.78023   0.00802   0.00000  Uiso   1.00
H260   H     0.62589   0.16110   0.92084   0.00000  Uiso   1.00
H261   H     0.26024   0.20062   0.80067   0.00000  Uiso   1.00
H262   H     0.24904   0.13980   0.69036   0.00000  Uiso   1.00
H263   H     0.15190   0.15418   0.87434   0.00000  Uiso   1.00
H264   H     0.36824   0.33480   0.83299   0.00000  Uiso   1.00
H265   H     0.25475   0.02989   0.57493   0.00000  Uiso   1.00
H266   H     0.04993   0.06025   0.96286   0.00000  Uiso   1.00
H267   H     0.50613   0.44112   0.87567   0.00000  Uiso   1.00
O268   O     0.30976   0.84395   0.52590   0.00000  Uiso   1.00
O269   O     0.04106   0.88379   0.03486   0.00000  Uiso   1.00
O270   O     0.63958   0.38348   0.92047   0.00000  Uiso   1.00
N271   N     0.34787   0.82414   0.62460   0.00000  Uiso   1.00
N272   N     0.15638   0.85251   0.98728   0.00000  Uiso   1.00
N273   N     0.58288   0.20859   0.90579   0.00000  Uiso   1.00
N274   N     0.28343   0.97481   0.60029   0.00000  Uiso   1.00
N275   N     0.09194   0.00318   0.96298   0.00000  Uiso   1.00
N276   N     0.51843   0.35927   0.88148   0.00000  Uiso   1.00
C277   C     0.86807   0.55151   0.15867   0.00000  Uiso   1.00
C278   C     0.84677   0.54895   0.22434   0.00000  Uiso   1.00
C279   C     0.86474   0.63074   0.26602   0.00000  Uiso   1.00
C280   C     0.84006   0.61286   0.32384   0.00000  Uiso   1.00
C281   C     0.81321   0.62355   0.42345   0.00000  Uiso   1.00
C282   C     0.79398   0.54114   0.12439   0.00000  Uiso   1.00
C283   C     0.76758   0.61636   0.08202   0.00000  Uiso   1.00
C284   C     0.69847   0.59189   0.05570   0.00000  Uiso   1.00
C285   C     0.58969   0.59042   0.00009   0.00000  Uiso   1.00
C286   C     0.91153   0.44301   0.14686   0.00000  Uiso   1.00
C287   C     0.98395   0.43571   0.12337   0.00000  Uiso   1.00
C288   C     0.01381   0.32862   0.11595   0.00000  Uiso   1.00
C289   C     0.08754   0.17479   0.09524   0.00000  Uiso   1.00
C290   C     0.79229   0.37431   0.18724   0.00000  Uiso   1.00
C291   C     0.80560   0.45270   0.23986   0.00000  Uiso   1.00
C292   C     0.78090   0.43469   0.29764   0.00000  Uiso   1.00
C293   C     0.79883   0.51644   0.33939   0.00000  Uiso   1.00
C294   C     0.75282   0.44490   0.13991   0.00000  Uiso   1.00
C295   C     0.68374   0.42031   0.11364   0.00000  Uiso   1.00
C296   C     0.65723   0.49547   0.07125   0.00000  Uiso   1.00
C297   C     0.87037   0.34676   0.16238   0.00000  Uiso   1.00
C298   C     0.90011   0.23966   0.15499   0.00000  Uiso   1.00
C299   C     0.97257   0.23220   0.13150   0.00000  Uiso   1.00
H300   H     0.90011   0.62644   0.14658   0.00000  Uiso   1.00
H301   H     0.89659   0.70521   0.25399   0.00000  Uiso   1.00
H302   H     0.79945   0.69083   0.07001   0.00000  Uiso   1.00
H303   H     0.01579   0.51021   0.11136   0.00000  Uiso   1.00
H304   H     0.87451   0.75013   0.37991   0.00000  Uiso   1.00
H305   H     0.66969   0.71977   0.99198   0.00000  Uiso   1.00
H306   H     0.12589   0.33890   0.07916   0.00000  Uiso   1.00
H307   H     0.76024   0.29938   0.19933   0.00000  Uiso   1.00
H308   H     0.74904   0.36020   0.30964   0.00000  Uiso   1.00
H309   H     0.65190   0.34582   0.12566   0.00000  Uiso   1.00
H310   H     0.86824   0.16520   0.16701   0.00000  Uiso   1.00
H311   H     0.75475   0.47011   0.42507   0.00000  Uiso   1.00
H312   H     0.54993   0.43975   0.03714   0.00000  Uiso   1.00
H313   H     0.00613   0.05888   0.12433   0.00000  Uiso   1.00
O314   O     0.80976   0.65605   0.47410   0.00000  Uiso   1.00
O315   O     0.54106   0.61621   0.96514   0.00000  Uiso   1.00
O316   O     0.13958   0.11652   0.07953   0.00000  Uiso   1.00
N317   N     0.84787   0.67586   0.37540   0.00000  Uiso   1.00
N318   N     0.65638   0.64749   0.01272   0.00000  Uiso   1.00
N319   N     0.08288   0.29141   0.09421   0.00000  Uiso   1.00
N320   N     0.78343   0.52519   0.39971   0.00000  Uiso   1.00
N321   N     0.59194   0.49682   0.03702   0.00000  Uiso   1.00
N322   N     0.01843   0.14073   0.11852   0.00000  Uiso   1.00
C323   C     0.63193   0.94849   0.65867   0.00000  Uiso   1.00
C324   C     0.65323   0.95105   0.72434   0.00000  Uiso   1.00
C325   C     0.63526   0.86926   0.76602   0.00000  Uiso   1.00
C326   C     0.65994   0.88714   0.82384   0.00000  Uiso   1.00
C327   C     0.68679   0.87645   0.92345   0.00000  Uiso   1.00
C328   C     0.70602   0.95886   0.62439   0.00000  Uiso   1.00
C329   C     0.73242   0.88364   0.58202   0.00000  Uiso   1.00
C330   C     0.80153   0.90811   0.55570   0.00000  Uiso   1.00
C331   C     0.91031   0.90958   0.50009   0.00000  Uiso   1.00
C332   C     0.58847   0.05699   0.64686   0.00000  Uiso   1.00
C333   C     0.51605   0.06429   0.62337   0.00000  Uiso   1.00
C334   C     0.48619   0.17138   0.61595   0.00000  Uiso   1.00
C335   C     0.41246   0.32521   0.59524   0.00000  Uiso   1.00
C336   C     0.70771   0.12569   0.68724   0.00000  Uiso   1.00
C337   C     0.69440   0.04730   0.73986   0.00000  Uiso   1.00
C338   C     0.71910   0.06531   0.79764   0.00000  Uiso   1.00
C339   C     0.70117   0.98356   0.83939   0.00000  Uiso   1.00
C340   C     0.74718   0.05510   0.63991   0.00000  Uiso   1.00
C341   C     0.81626   0.07969   0.61364   0.00000  Uiso   1.00
C342   C     0.84277   0.00453   0.57125   0.00000  Uiso   1.00
C343   C     0.62963   0.15324   0.66238   0.00000  Uiso   1.00
C344   C     0.59989   0.26034   0.65499   0.00000  Uiso   1.00
C345   C     0.52743   0.26780   0.63150   0.00000  Uiso   1.00
H346   H     0.59989   0.87356   0.64658   0.00000  Uiso   1.00
H347   H     0.60341   0.79479   0.75399   0.00000  Uiso   1.00
H348   H     0.70055   0.80917   0.57001   0.00000  Uiso   1.00
H349   H     0.48421   0.98979   0.61136   0.00000  Uiso   1.00
H350   H     0.62549   0.74987   0.87991   0.00000  Uiso   1.00
H351   H     0.83031   0.78023   0.49198   0.00000  Uiso   1.00
H352   H     0.37411   0.16110   0.57916   0.00000  Uiso   1.00
H353   H     0.73976   0.20062   0.69933   0.00000  Uiso   1.00
H354   H     0.75096   0.13980   0.80964   0.00000  Uiso   1.00
H355   H     0.84810   0.15418   0.62566   0.00000  Uiso   1.00
H356   H     0.63176   0.33480   0.66701   0.00000  Uiso   1.00
H357   H     0.74525   0.02989   0.92507   0.00000  Uiso   1.00
H358   H     0.95007   0.06025   0.53714   0.00000  Uiso   1.00
H359   H     0.49387   0.44112   0.62433   0.00000  Uiso   1.00
O360   O     0.69024   0.84395   0.97410   0.00000  Uiso   1.00
O361   O     0.95894   0.88379   0.46514   0.00000  Uiso   1.00
O362   O     0.36042   0.38348   0.57953   0.00000  Uiso   1.00
N363   N     0.65213   0.82414   0.87540   0.00000  Uiso   1.00
N364   N     0.84362   0.85251   0.51272   0.00000  Uiso   1.00
N365   N     0.41712   0.20859   0.59421   0.00000  Uiso   1.00
N366   N     0.71657   0.97481   0.89971   0.00000  Uiso   1.00
N367   N     0.90806   0.00318   0.53702   0.00000  Uiso   1.00
N368   N     0.48157   0.35927   0.61852   0.00000  Uiso   1.00
