data_job_03371
_audit_creation_date              2018-12-19
_audit_creation_method            'Materials Studio'
_symmetry_space_group_name_H-M    'P1'
_symmetry_Int_Tables_number       1
_symmetry_cell_setting            triclinic
loop_
_symmetry_equiv_pos_as_xyz
  x,y,z
_cell_length_a                    20.6044
_cell_length_b                    20.6044
_cell_length_c                    20.6044
_cell_angle_alpha                 90.0000
_cell_angle_beta                  90.0000
_cell_angle_gamma                 90.0000
loop_
_atom_site_label
_atom_site_type_symbol
_atom_site_fract_x
_atom_site_fract_y
_atom_site_fract_z
_atom_site_U_iso_or_equiv
_atom_site_adp_type
_atom_site_occupancy
C1     C     0.50549   0.24120   0.59371   0.00000  Uiso   1.00
C2     C     0.56282   0.20931   0.55946   0.00000  Uiso   1.00
C3     C     0.60248   0.23860   0.51357   0.00000  Uiso   1.00
C4     C     0.65235   0.20123   0.48793   0.00000  Uiso   1.00
C5     C     0.73986   0.16149   0.43174   0.00000  Uiso   1.00
C6     C     0.44696   0.19797   0.58016   0.00000  Uiso   1.00
C7     C     0.38921   0.21774   0.55169   0.00000  Uiso   1.00
C8     C     0.34154   0.17082   0.54349   0.00000  Uiso   1.00
C9     C     0.24916   0.11349   0.51950   0.00000  Uiso   1.00
C10    C     0.51903   0.23514   0.66621   0.00000  Uiso   1.00
C11    C     0.52186   0.28615   0.71010   0.00000  Uiso   1.00
C12    C     0.53485   0.27053   0.77435   0.00000  Uiso   1.00
C13    C     0.55437   0.27091   0.88396   0.00000  Uiso   1.00
C14    C     0.52352   0.12274   0.62977   0.00000  Uiso   1.00
C15    C     0.57262   0.14496   0.57904   0.00000  Uiso   1.00
C16    C     0.62243   0.10754   0.55347   0.00000  Uiso   1.00
C17    C     0.66216   0.13677   0.50755   0.00000  Uiso   1.00
C18    C     0.45676   0.13363   0.59975   0.00000  Uiso   1.00
C19    C     0.40916   0.08667   0.59159   0.00000  Uiso   1.00
C20    C     0.35135   0.10636   0.56311   0.00000  Uiso   1.00
C21    C     0.52883   0.17080   0.68580   0.00000  Uiso   1.00
C22    C     0.54181   0.15509   0.75000   0.00000  Uiso   1.00
C23    C     0.54466   0.20607   0.79398   0.00000  Uiso   1.00
H24    H     0.49786   0.29129   0.57846   0.00000  Uiso   1.00
H25    H     0.59488   0.28839   0.49842   0.00000  Uiso   1.00
H26    H     0.38164   0.26753   0.53655   0.00000  Uiso   1.00
H27    H     0.51427   0.33594   0.69493   0.00000  Uiso   1.00
H28    H     0.70676   0.25680   0.41830   0.00000  Uiso   1.00
H29    H     0.25711   0.21282   0.49872   0.00000  Uiso   1.00
H30    H     0.53679   0.35707   0.83269   0.00000  Uiso   1.00
H31    H     0.53115   0.07264   0.64502   0.00000  Uiso   1.00
H32    H     0.63000   0.05775   0.56863   0.00000  Uiso   1.00
H33    H     0.41675   0.03689   0.60676   0.00000  Uiso   1.00
H34    H     0.54939   0.10529   0.76514   0.00000  Uiso   1.00
H35    H     0.73526   0.06960   0.47529   0.00000  Uiso   1.00
H36    H     0.28561   0.02562   0.55570   0.00000  Uiso   1.00
H37    H     0.56530   0.16986   0.88968   0.00000  Uiso   1.00
O38    O     0.78542   0.15734   0.39533   0.00000  Uiso   1.00
O39    O     0.19550   0.09964   0.50084   0.00000  Uiso   1.00
O40    O     0.56244   0.28889   0.93901   0.00000  Uiso   1.00
N41    N     0.69991   0.21479   0.44221   0.00000  Uiso   1.00
N42    N     0.27952   0.17367   0.51738   0.00000  Uiso   1.00
N43    N     0.54098   0.30853   0.82962   0.00000  Uiso   1.00
N44    N     0.71524   0.11406   0.47287   0.00000  Uiso   1.00
N45    N     0.29485   0.07294   0.54804   0.00000  Uiso   1.00
N46    N     0.55632   0.20780   0.86029   0.00000  Uiso   1.00
C47    C     0.99451   0.75880   0.09371   0.00000  Uiso   1.00
C48    C     0.93718   0.79069   0.05946   0.00000  Uiso   1.00
C49    C     0.89752   0.76140   0.01357   0.00000  Uiso   1.00
C50    C     0.84765   0.79877   0.98793   0.00000  Uiso   1.00
C51    C     0.76014   0.83851   0.93174   0.00000  Uiso   1.00
C52    C     0.05304   0.80203   0.08016   0.00000  Uiso   1.00
C53    C     0.11079   0.78226   0.05169   0.00000  Uiso   1.00
C54    C     0.15846   0.82918   0.04349   0.00000  Uiso   1.00
C55    C     0.25084   0.88651   0.01950   0.00000  Uiso   1.00
C56    C     0.98097   0.76486   0.16621   0.00000  Uiso   1.00
C57    C     0.97814   0.71385   0.21010   0.00000  Uiso   1.00
C58    C     0.96515   0.72947   0.27435   0.00000  Uiso   1.00
C59    C     0.94563   0.72909   0.38396   0.00000  Uiso   1.00
C60    C     0.97648   0.87726   0.12977   0.00000  Uiso   1.00
C61    C     0.92738   0.85504   0.07904   0.00000  Uiso   1.00
C62    C     0.87757   0.89246   0.05347   0.00000  Uiso   1.00
C63    C     0.83784   0.86323   0.00755   0.00000  Uiso   1.00
C64    C     0.04324   0.86637   0.09975   0.00000  Uiso   1.00
C65    C     0.09084   0.91333   0.09159   0.00000  Uiso   1.00
C66    C     0.14865   0.89364   0.06311   0.00000  Uiso   1.00
C67    C     0.97117   0.82920   0.18580   0.00000  Uiso   1.00
C68    C     0.95819   0.84491   0.25000   0.00000  Uiso   1.00
C69    C     0.95534   0.79393   0.29398   0.00000  Uiso   1.00
H70    H     0.00214   0.70871   0.07846   0.00000  Uiso   1.00
H71    H     0.90512   0.71161   0.99842   0.00000  Uiso   1.00
H72    H     0.11836   0.73247   0.03655   0.00000  Uiso   1.00
H73    H     0.98573   0.66406   0.19493   0.00000  Uiso   1.00
H74    H     0.79324   0.74320   0.91830   0.00000  Uiso   1.00
H75    H     0.24289   0.78718   0.99872   0.00000  Uiso   1.00
H76    H     0.96321   0.64293   0.33269   0.00000  Uiso   1.00
H77    H     0.96885   0.92736   0.14502   0.00000  Uiso   1.00
H78    H     0.87000   0.94225   0.06863   0.00000  Uiso   1.00
H79    H     0.08325   0.96311   0.10676   0.00000  Uiso   1.00
H80    H     0.95061   0.89471   0.26514   0.00000  Uiso   1.00
H81    H     0.76474   0.93040   0.97529   0.00000  Uiso   1.00
H82    H     0.21439   0.97438   0.05570   0.00000  Uiso   1.00
H83    H     0.93470   0.83014   0.38968   0.00000  Uiso   1.00
O84    O     0.71458   0.84266   0.89533   0.00000  Uiso   1.00
O85    O     0.30450   0.90036   0.00084   0.00000  Uiso   1.00
O86    O     0.93756   0.71111   0.43901   0.00000  Uiso   1.00
N87    N     0.80009   0.78521   0.94221   0.00000  Uiso   1.00
N88    N     0.22048   0.82633   0.01738   0.00000  Uiso   1.00
N89    N     0.95902   0.69147   0.32962   0.00000  Uiso   1.00
N90    N     0.78476   0.88594   0.97287   0.00000  Uiso   1.00
N91    N     0.20515   0.92706   0.04804   0.00000  Uiso   1.00
N92    N     0.94368   0.79220   0.36029   0.00000  Uiso   1.00
C93    C     0.49451   0.74120   0.90629   0.00000  Uiso   1.00
C94    C     0.43718   0.70931   0.94054   0.00000  Uiso   1.00
C95    C     0.39752   0.73860   0.98643   0.00000  Uiso   1.00
C96    C     0.34765   0.70123   0.01207   0.00000  Uiso   1.00
C97    C     0.26014   0.66149   0.06826   0.00000  Uiso   1.00
C98    C     0.55304   0.69797   0.91984   0.00000  Uiso   1.00
C99    C     0.61079   0.71774   0.94831   0.00000  Uiso   1.00
C100   C     0.65846   0.67082   0.95651   0.00000  Uiso   1.00
C101   C     0.75084   0.61349   0.98050   0.00000  Uiso   1.00
C102   C     0.48097   0.73514   0.83379   0.00000  Uiso   1.00
C103   C     0.47814   0.78615   0.78990   0.00000  Uiso   1.00
C104   C     0.46515   0.77053   0.72565   0.00000  Uiso   1.00
C105   C     0.44563   0.77091   0.61604   0.00000  Uiso   1.00
C106   C     0.47648   0.62274   0.87023   0.00000  Uiso   1.00
C107   C     0.42738   0.64496   0.92096   0.00000  Uiso   1.00
C108   C     0.37757   0.60754   0.94653   0.00000  Uiso   1.00
C109   C     0.33784   0.63677   0.99245   0.00000  Uiso   1.00
C110   C     0.54324   0.63363   0.90025   0.00000  Uiso   1.00
C111   C     0.59084   0.58667   0.90841   0.00000  Uiso   1.00
C112   C     0.64865   0.60636   0.93689   0.00000  Uiso   1.00
C113   C     0.47117   0.67080   0.81420   0.00000  Uiso   1.00
C114   C     0.45819   0.65509   0.75000   0.00000  Uiso   1.00
C115   C     0.45534   0.70607   0.70602   0.00000  Uiso   1.00
H116   H     0.50214   0.79129   0.92154   0.00000  Uiso   1.00
H117   H     0.40512   0.78839   0.00158   0.00000  Uiso   1.00
H118   H     0.61836   0.76753   0.96345   0.00000  Uiso   1.00
H119   H     0.48573   0.83594   0.80507   0.00000  Uiso   1.00
H120   H     0.29324   0.75680   0.08170   0.00000  Uiso   1.00
H121   H     0.74289   0.71282   0.00128   0.00000  Uiso   1.00
H122   H     0.46321   0.85707   0.66731   0.00000  Uiso   1.00
H123   H     0.46885   0.57264   0.85498   0.00000  Uiso   1.00
H124   H     0.37000   0.55775   0.93137   0.00000  Uiso   1.00
H125   H     0.58325   0.53689   0.89324   0.00000  Uiso   1.00
H126   H     0.45061   0.60529   0.73486   0.00000  Uiso   1.00
H127   H     0.26474   0.56960   0.02471   0.00000  Uiso   1.00
H128   H     0.71439   0.52562   0.94430   0.00000  Uiso   1.00
H129   H     0.43470   0.66986   0.61032   0.00000  Uiso   1.00
O130   O     0.21458   0.65734   0.10467   0.00000  Uiso   1.00
O131   O     0.80450   0.59964   0.99916   0.00000  Uiso   1.00
O132   O     0.43756   0.78889   0.56099   0.00000  Uiso   1.00
N133   N     0.30009   0.71479   0.05779   0.00000  Uiso   1.00
N134   N     0.72048   0.67367   0.98262   0.00000  Uiso   1.00
N135   N     0.45902   0.80853   0.67038   0.00000  Uiso   1.00
N136   N     0.28476   0.61406   0.02713   0.00000  Uiso   1.00
N137   N     0.70515   0.57294   0.95196   0.00000  Uiso   1.00
N138   N     0.44368   0.70780   0.63971   0.00000  Uiso   1.00
C139   C     0.00549   0.25880   0.40629   0.00000  Uiso   1.00
C140   C     0.06282   0.29069   0.44054   0.00000  Uiso   1.00
C141   C     0.10248   0.26140   0.48643   0.00000  Uiso   1.00
C142   C     0.15235   0.29877   0.51207   0.00000  Uiso   1.00
C143   C     0.23986   0.33851   0.56826   0.00000  Uiso   1.00
C144   C     0.94696   0.30203   0.41984   0.00000  Uiso   1.00
C145   C     0.88921   0.28226   0.44831   0.00000  Uiso   1.00
C146   C     0.84154   0.32918   0.45651   0.00000  Uiso   1.00
C147   C     0.74916   0.38651   0.48050   0.00000  Uiso   1.00
C148   C     0.01903   0.26486   0.33379   0.00000  Uiso   1.00
C149   C     0.02186   0.21385   0.28990   0.00000  Uiso   1.00
C150   C     0.03485   0.22947   0.22565   0.00000  Uiso   1.00
C151   C     0.05437   0.22909   0.11604   0.00000  Uiso   1.00
C152   C     0.02352   0.37726   0.37023   0.00000  Uiso   1.00
C153   C     0.07262   0.35504   0.42096   0.00000  Uiso   1.00
C154   C     0.12243   0.39246   0.44653   0.00000  Uiso   1.00
C155   C     0.16216   0.36323   0.49245   0.00000  Uiso   1.00
C156   C     0.95676   0.36637   0.40025   0.00000  Uiso   1.00
C157   C     0.90916   0.41333   0.40841   0.00000  Uiso   1.00
C158   C     0.85135   0.39364   0.43689   0.00000  Uiso   1.00
C159   C     0.02883   0.32920   0.31420   0.00000  Uiso   1.00
C160   C     0.04181   0.34491   0.25000   0.00000  Uiso   1.00
C161   C     0.04466   0.29393   0.20602   0.00000  Uiso   1.00
H162   H     0.99786   0.20871   0.42154   0.00000  Uiso   1.00
H163   H     0.09488   0.21161   0.50158   0.00000  Uiso   1.00
H164   H     0.88164   0.23247   0.46345   0.00000  Uiso   1.00
H165   H     0.01427   0.16406   0.30507   0.00000  Uiso   1.00
H166   H     0.20676   0.24320   0.58170   0.00000  Uiso   1.00
H167   H     0.75711   0.28718   0.50128   0.00000  Uiso   1.00
H168   H     0.03679   0.14293   0.16731   0.00000  Uiso   1.00
H169   H     0.03115   0.42736   0.35498   0.00000  Uiso   1.00
H170   H     0.13000   0.44225   0.43137   0.00000  Uiso   1.00
H171   H     0.91675   0.46311   0.39324   0.00000  Uiso   1.00
H172   H     0.04939   0.39471   0.23486   0.00000  Uiso   1.00
H173   H     0.23526   0.43040   0.52471   0.00000  Uiso   1.00
H174   H     0.78561   0.47438   0.44430   0.00000  Uiso   1.00
H175   H     0.06530   0.33014   0.11032   0.00000  Uiso   1.00
O176   O     0.28542   0.34266   0.60467   0.00000  Uiso   1.00
O177   O     0.69550   0.40036   0.49916   0.00000  Uiso   1.00
O178   O     0.06244   0.21111   0.06099   0.00000  Uiso   1.00
N179   N     0.19991   0.28521   0.55779   0.00000  Uiso   1.00
N180   N     0.77952   0.32633   0.48262   0.00000  Uiso   1.00
N181   N     0.04098   0.19147   0.17038   0.00000  Uiso   1.00
N182   N     0.21524   0.38594   0.52713   0.00000  Uiso   1.00
N183   N     0.79485   0.42706   0.45196   0.00000  Uiso   1.00
N184   N     0.05632   0.29220   0.13971   0.00000  Uiso   1.00
C185   C     0.59371   0.50549   0.24120   0.00000  Uiso   1.00
C186   C     0.55946   0.56282   0.20931   0.00000  Uiso   1.00
C187   C     0.51357   0.60248   0.23860   0.00000  Uiso   1.00
C188   C     0.48793   0.65235   0.20123   0.00000  Uiso   1.00
C189   C     0.43174   0.73986   0.16149   0.00000  Uiso   1.00
C190   C     0.58016   0.44696   0.19797   0.00000  Uiso   1.00
C191   C     0.55169   0.38921   0.21774   0.00000  Uiso   1.00
C192   C     0.54349   0.34154   0.17082   0.00000  Uiso   1.00
C193   C     0.51950   0.24916   0.11349   0.00000  Uiso   1.00
C194   C     0.66621   0.51903   0.23514   0.00000  Uiso   1.00
C195   C     0.71010   0.52186   0.28615   0.00000  Uiso   1.00
C196   C     0.77435   0.53485   0.27053   0.00000  Uiso   1.00
C197   C     0.88396   0.55437   0.27091   0.00000  Uiso   1.00
C198   C     0.62977   0.52352   0.12274   0.00000  Uiso   1.00
C199   C     0.57904   0.57262   0.14496   0.00000  Uiso   1.00
C200   C     0.55347   0.62243   0.10754   0.00000  Uiso   1.00
C201   C     0.50755   0.66216   0.13677   0.00000  Uiso   1.00
C202   C     0.59975   0.45676   0.13363   0.00000  Uiso   1.00
C203   C     0.59159   0.40916   0.08667   0.00000  Uiso   1.00
C204   C     0.56311   0.35135   0.10636   0.00000  Uiso   1.00
C205   C     0.68580   0.52883   0.17080   0.00000  Uiso   1.00
C206   C     0.75000   0.54181   0.15509   0.00000  Uiso   1.00
C207   C     0.79398   0.54466   0.20607   0.00000  Uiso   1.00
H208   H     0.57846   0.49786   0.29129   0.00000  Uiso   1.00
H209   H     0.49842   0.59488   0.28839   0.00000  Uiso   1.00
H210   H     0.53655   0.38164   0.26753   0.00000  Uiso   1.00
H211   H     0.69493   0.51427   0.33594   0.00000  Uiso   1.00
H212   H     0.41830   0.70676   0.25680   0.00000  Uiso   1.00
H213   H     0.49872   0.25711   0.21282   0.00000  Uiso   1.00
H214   H     0.83269   0.53679   0.35707   0.00000  Uiso   1.00
H215   H     0.64502   0.53115   0.07264   0.00000  Uiso   1.00
H216   H     0.56863   0.63000   0.05775   0.00000  Uiso   1.00
H217   H     0.60676   0.41675   0.03689   0.00000  Uiso   1.00
H218   H     0.76514   0.54939   0.10529   0.00000  Uiso   1.00
H219   H     0.47529   0.73526   0.06960   0.00000  Uiso   1.00
H220   H     0.55570   0.28561   0.02562   0.00000  Uiso   1.00
H221   H     0.88968   0.56530   0.16986   0.00000  Uiso   1.00
O222   O     0.39533   0.78542   0.15734   0.00000  Uiso   1.00
O223   O     0.50084   0.19550   0.09964   0.00000  Uiso   1.00
O224   O     0.93901   0.56244   0.28889   0.00000  Uiso   1.00
N225   N     0.44221   0.69991   0.21479   0.00000  Uiso   1.00
N226   N     0.51738   0.27952   0.17367   0.00000  Uiso   1.00
N227   N     0.82962   0.54098   0.30853   0.00000  Uiso   1.00
N228   N     0.47287   0.71524   0.11406   0.00000  Uiso   1.00
N229   N     0.54804   0.29485   0.07294   0.00000  Uiso   1.00
N230   N     0.86029   0.55632   0.20780   0.00000  Uiso   1.00
C231   C     0.09371   0.99451   0.75880   0.00000  Uiso   1.00
C232   C     0.05946   0.93718   0.79069   0.00000  Uiso   1.00
C233   C     0.01357   0.89752   0.76140   0.00000  Uiso   1.00
C234   C     0.98793   0.84765   0.79877   0.00000  Uiso   1.00
C235   C     0.93174   0.76014   0.83851   0.00000  Uiso   1.00
C236   C     0.08016   0.05304   0.80203   0.00000  Uiso   1.00
C237   C     0.05169   0.11079   0.78226   0.00000  Uiso   1.00
C238   C     0.04349   0.15846   0.82918   0.00000  Uiso   1.00
C239   C     0.01950   0.25084   0.88651   0.00000  Uiso   1.00
C240   C     0.16621   0.98097   0.76486   0.00000  Uiso   1.00
C241   C     0.21010   0.97814   0.71385   0.00000  Uiso   1.00
C242   C     0.27435   0.96515   0.72947   0.00000  Uiso   1.00
C243   C     0.38396   0.94563   0.72909   0.00000  Uiso   1.00
C244   C     0.12977   0.97648   0.87726   0.00000  Uiso   1.00
C245   C     0.07904   0.92738   0.85504   0.00000  Uiso   1.00
C246   C     0.05347   0.87757   0.89246   0.00000  Uiso   1.00
C247   C     0.00755   0.83784   0.86323   0.00000  Uiso   1.00
C248   C     0.09975   0.04324   0.86637   0.00000  Uiso   1.00
C249   C     0.09159   0.09084   0.91333   0.00000  Uiso   1.00
C250   C     0.06311   0.14865   0.89364   0.00000  Uiso   1.00
C251   C     0.18580   0.97117   0.82920   0.00000  Uiso   1.00
C252   C     0.25000   0.95819   0.84491   0.00000  Uiso   1.00
C253   C     0.29398   0.95534   0.79393   0.00000  Uiso   1.00
H254   H     0.07846   0.00214   0.70871   0.00000  Uiso   1.00
H255   H     0.99842   0.90512   0.71161   0.00000  Uiso   1.00
H256   H     0.03655   0.11836   0.73247   0.00000  Uiso   1.00
H257   H     0.19493   0.98573   0.66406   0.00000  Uiso   1.00
H258   H     0.91830   0.79324   0.74320   0.00000  Uiso   1.00
H259   H     0.99872   0.24289   0.78718   0.00000  Uiso   1.00
H260   H     0.33269   0.96321   0.64293   0.00000  Uiso   1.00
H261   H     0.14502   0.96885   0.92736   0.00000  Uiso   1.00
H262   H     0.06863   0.87000   0.94225   0.00000  Uiso   1.00
H263   H     0.10676   0.08325   0.96311   0.00000  Uiso   1.00
H264   H     0.26514   0.95061   0.89471   0.00000  Uiso   1.00
H265   H     0.97529   0.76474   0.93040   0.00000  Uiso   1.00
H266   H     0.05570   0.21439   0.97438   0.00000  Uiso   1.00
H267   H     0.38968   0.93470   0.83014   0.00000  Uiso   1.00
O268   O     0.89533   0.71458   0.84266   0.00000  Uiso   1.00
O269   O     0.00084   0.30450   0.90036   0.00000  Uiso   1.00
O270   O     0.43901   0.93756   0.71111   0.00000  Uiso   1.00
N271   N     0.94221   0.80009   0.78521   0.00000  Uiso   1.00
N272   N     0.01738   0.22048   0.82633   0.00000  Uiso   1.00
N273   N     0.32962   0.95902   0.69147   0.00000  Uiso   1.00
N274   N     0.97287   0.78476   0.88594   0.00000  Uiso   1.00
N275   N     0.04804   0.20515   0.92706   0.00000  Uiso   1.00
N276   N     0.36029   0.94368   0.79220   0.00000  Uiso   1.00
C277   C     0.90629   0.49451   0.74120   0.00000  Uiso   1.00
C278   C     0.94054   0.43718   0.70931   0.00000  Uiso   1.00
C279   C     0.98643   0.39752   0.73860   0.00000  Uiso   1.00
C280   C     0.01207   0.34765   0.70123   0.00000  Uiso   1.00
C281   C     0.06826   0.26014   0.66149   0.00000  Uiso   1.00
C282   C     0.91984   0.55304   0.69797   0.00000  Uiso   1.00
C283   C     0.94831   0.61079   0.71774   0.00000  Uiso   1.00
C284   C     0.95651   0.65846   0.67082   0.00000  Uiso   1.00
C285   C     0.98050   0.75084   0.61349   0.00000  Uiso   1.00
C286   C     0.83379   0.48097   0.73514   0.00000  Uiso   1.00
C287   C     0.78990   0.47814   0.78615   0.00000  Uiso   1.00
C288   C     0.72565   0.46515   0.77053   0.00000  Uiso   1.00
C289   C     0.61604   0.44563   0.77091   0.00000  Uiso   1.00
C290   C     0.87023   0.47648   0.62274   0.00000  Uiso   1.00
C291   C     0.92096   0.42738   0.64496   0.00000  Uiso   1.00
C292   C     0.94653   0.37757   0.60754   0.00000  Uiso   1.00
C293   C     0.99245   0.33784   0.63677   0.00000  Uiso   1.00
C294   C     0.90025   0.54324   0.63363   0.00000  Uiso   1.00
C295   C     0.90841   0.59084   0.58667   0.00000  Uiso   1.00
C296   C     0.93689   0.64865   0.60636   0.00000  Uiso   1.00
C297   C     0.81420   0.47117   0.67080   0.00000  Uiso   1.00
C298   C     0.75000   0.45819   0.65509   0.00000  Uiso   1.00
C299   C     0.70602   0.45534   0.70607   0.00000  Uiso   1.00
H300   H     0.92154   0.50214   0.79129   0.00000  Uiso   1.00
H301   H     0.00158   0.40512   0.78839   0.00000  Uiso   1.00
H302   H     0.96345   0.61836   0.76753   0.00000  Uiso   1.00
H303   H     0.80507   0.48573   0.83594   0.00000  Uiso   1.00
H304   H     0.08170   0.29324   0.75680   0.00000  Uiso   1.00
H305   H     0.00128   0.74289   0.71282   0.00000  Uiso   1.00
H306   H     0.66731   0.46321   0.85707   0.00000  Uiso   1.00
H307   H     0.85498   0.46885   0.57264   0.00000  Uiso   1.00
H308   H     0.93137   0.37000   0.55775   0.00000  Uiso   1.00
H309   H     0.89324   0.58325   0.53689   0.00000  Uiso   1.00
H310   H     0.73486   0.45061   0.60529   0.00000  Uiso   1.00
H311   H     0.02471   0.26474   0.56960   0.00000  Uiso   1.00
H312   H     0.94430   0.71439   0.52562   0.00000  Uiso   1.00
H313   H     0.61032   0.43470   0.66986   0.00000  Uiso   1.00
O314   O     0.10467   0.21458   0.65734   0.00000  Uiso   1.00
O315   O     0.99916   0.80450   0.59964   0.00000  Uiso   1.00
O316   O     0.56099   0.43756   0.78889   0.00000  Uiso   1.00
N317   N     0.05779   0.30009   0.71479   0.00000  Uiso   1.00
N318   N     0.98262   0.72048   0.67367   0.00000  Uiso   1.00
N319   N     0.67038   0.45902   0.80853   0.00000  Uiso   1.00
N320   N     0.02713   0.28476   0.61406   0.00000  Uiso   1.00
N321   N     0.95196   0.70515   0.57294   0.00000  Uiso   1.00
N322   N     0.63971   0.44368   0.70780   0.00000  Uiso   1.00
C323   C     0.40629   0.00549   0.25880   0.00000  Uiso   1.00
C324   C     0.44054   0.06282   0.29069   0.00000  Uiso   1.00
C325   C     0.48643   0.10248   0.26140   0.00000  Uiso   1.00
C326   C     0.51207   0.15235   0.29877   0.00000  Uiso   1.00
C327   C     0.56826   0.23986   0.33851   0.00000  Uiso   1.00
C328   C     0.41984   0.94696   0.30203   0.00000  Uiso   1.00
C329   C     0.44831   0.88921   0.28226   0.00000  Uiso   1.00
C330   C     0.45651   0.84154   0.32918   0.00000  Uiso   1.00
C331   C     0.48050   0.74916   0.38651   0.00000  Uiso   1.00
C332   C     0.33379   0.01903   0.26486   0.00000  Uiso   1.00
C333   C     0.28990   0.02186   0.21385   0.00000  Uiso   1.00
C334   C     0.22565   0.03485   0.22947   0.00000  Uiso   1.00
C335   C     0.11604   0.05437   0.22909   0.00000  Uiso   1.00
C336   C     0.37023   0.02352   0.37726   0.00000  Uiso   1.00
C337   C     0.42096   0.07262   0.35504   0.00000  Uiso   1.00
C338   C     0.44653   0.12243   0.39246   0.00000  Uiso   1.00
C339   C     0.49245   0.16216   0.36323   0.00000  Uiso   1.00
C340   C     0.40025   0.95676   0.36637   0.00000  Uiso   1.00
C341   C     0.40841   0.90916   0.41333   0.00000  Uiso   1.00
C342   C     0.43689   0.85135   0.39364   0.00000  Uiso   1.00
C343   C     0.31420   0.02883   0.32920   0.00000  Uiso   1.00
C344   C     0.25000   0.04181   0.34491   0.00000  Uiso   1.00
C345   C     0.20602   0.04466   0.29393   0.00000  Uiso   1.00
H346   H     0.42154   0.99786   0.20871   0.00000  Uiso   1.00
H347   H     0.50158   0.09488   0.21161   0.00000  Uiso   1.00
H348   H     0.46345   0.88164   0.23247   0.00000  Uiso   1.00
H349   H     0.30507   0.01427   0.16406   0.00000  Uiso   1.00
H350   H     0.58170   0.20676   0.24320   0.00000  Uiso   1.00
H351   H     0.50128   0.75711   0.28718   0.00000  Uiso   1.00
H352   H     0.16731   0.03679   0.14293   0.00000  Uiso   1.00
H353   H     0.35498   0.03115   0.42736   0.00000  Uiso   1.00
H354   H     0.43137   0.13000   0.44225   0.00000  Uiso   1.00
H355   H     0.39324   0.91675   0.46311   0.00000  Uiso   1.00
H356   H     0.23486   0.04939   0.39471   0.00000  Uiso   1.00
H357   H     0.52471   0.23526   0.43040   0.00000  Uiso   1.00
H358   H     0.44430   0.78561   0.47438   0.00000  Uiso   1.00
H359   H     0.11032   0.06530   0.33014   0.00000  Uiso   1.00
O360   O     0.60467   0.28542   0.34266   0.00000  Uiso   1.00
O361   O     0.49916   0.69550   0.40036   0.00000  Uiso   1.00
O362   O     0.06099   0.06244   0.21111   0.00000  Uiso   1.00
N363   N     0.55779   0.19991   0.28521   0.00000  Uiso   1.00
N364   N     0.48262   0.77952   0.32633   0.00000  Uiso   1.00
N365   N     0.17038   0.04098   0.19147   0.00000  Uiso   1.00
N366   N     0.52713   0.21524   0.38594   0.00000  Uiso   1.00
N367   N     0.45196   0.79485   0.42706   0.00000  Uiso   1.00
N368   N     0.13971   0.05632   0.29220   0.00000  Uiso   1.00
C369   C     0.24120   0.59371   0.50549   0.00000  Uiso   1.00
C370   C     0.20931   0.55946   0.56282   0.00000  Uiso   1.00
C371   C     0.23860   0.51357   0.60248   0.00000  Uiso   1.00
C372   C     0.20123   0.48793   0.65235   0.00000  Uiso   1.00
C373   C     0.16149   0.43174   0.73986   0.00000  Uiso   1.00
C374   C     0.19797   0.58016   0.44696   0.00000  Uiso   1.00
C375   C     0.21774   0.55169   0.38921   0.00000  Uiso   1.00
C376   C     0.17082   0.54349   0.34154   0.00000  Uiso   1.00
C377   C     0.11349   0.51950   0.24916   0.00000  Uiso   1.00
C378   C     0.23514   0.66621   0.51903   0.00000  Uiso   1.00
C379   C     0.28615   0.71010   0.52186   0.00000  Uiso   1.00
C380   C     0.27053   0.77435   0.53485   0.00000  Uiso   1.00
C381   C     0.27091   0.88396   0.55437   0.00000  Uiso   1.00
C382   C     0.12274   0.62977   0.52352   0.00000  Uiso   1.00
C383   C     0.14496   0.57904   0.57262   0.00000  Uiso   1.00
C384   C     0.10754   0.55347   0.62243   0.00000  Uiso   1.00
C385   C     0.13677   0.50755   0.66216   0.00000  Uiso   1.00
C386   C     0.13363   0.59975   0.45676   0.00000  Uiso   1.00
C387   C     0.08667   0.59159   0.40916   0.00000  Uiso   1.00
C388   C     0.10636   0.56311   0.35135   0.00000  Uiso   1.00
C389   C     0.17080   0.68580   0.52883   0.00000  Uiso   1.00
C390   C     0.15509   0.75000   0.54181   0.00000  Uiso   1.00
C391   C     0.20607   0.79398   0.54466   0.00000  Uiso   1.00
H392   H     0.29129   0.57846   0.49786   0.00000  Uiso   1.00
H393   H     0.28839   0.49842   0.59488   0.00000  Uiso   1.00
H394   H     0.26753   0.53655   0.38164   0.00000  Uiso   1.00
H395   H     0.33594   0.69493   0.51427   0.00000  Uiso   1.00
H396   H     0.25680   0.41830   0.70676   0.00000  Uiso   1.00
H397   H     0.21282   0.49872   0.25711   0.00000  Uiso   1.00
H398   H     0.35707   0.83269   0.53679   0.00000  Uiso   1.00
H399   H     0.07264   0.64502   0.53115   0.00000  Uiso   1.00
H400   H     0.05775   0.56863   0.63000   0.00000  Uiso   1.00
H401   H     0.03689   0.60676   0.41675   0.00000  Uiso   1.00
H402   H     0.10529   0.76514   0.54939   0.00000  Uiso   1.00
H403   H     0.06960   0.47529   0.73526   0.00000  Uiso   1.00
H404   H     0.02562   0.55570   0.28561   0.00000  Uiso   1.00
H405   H     0.16986   0.88968   0.56530   0.00000  Uiso   1.00
O406   O     0.15734   0.39533   0.78542   0.00000  Uiso   1.00
O407   O     0.09964   0.50084   0.19550   0.00000  Uiso   1.00
O408   O     0.28889   0.93901   0.56244   0.00000  Uiso   1.00
N409   N     0.21479   0.44221   0.69991   0.00000  Uiso   1.00
N410   N     0.17367   0.51738   0.27952   0.00000  Uiso   1.00
N411   N     0.30853   0.82962   0.54098   0.00000  Uiso   1.00
N412   N     0.11406   0.47287   0.71524   0.00000  Uiso   1.00
N413   N     0.07294   0.54804   0.29485   0.00000  Uiso   1.00
N414   N     0.20780   0.86029   0.55632   0.00000  Uiso   1.00
C415   C     0.75880   0.09371   0.99451   0.00000  Uiso   1.00
C416   C     0.79069   0.05946   0.93718   0.00000  Uiso   1.00
C417   C     0.76140   0.01357   0.89752   0.00000  Uiso   1.00
C418   C     0.79877   0.98793   0.84765   0.00000  Uiso   1.00
C419   C     0.83851   0.93174   0.76014   0.00000  Uiso   1.00
C420   C     0.80203   0.08016   0.05304   0.00000  Uiso   1.00
C421   C     0.78226   0.05169   0.11079   0.00000  Uiso   1.00
C422   C     0.82918   0.04349   0.15846   0.00000  Uiso   1.00
C423   C     0.88651   0.01950   0.25084   0.00000  Uiso   1.00
C424   C     0.76486   0.16621   0.98097   0.00000  Uiso   1.00
C425   C     0.71385   0.21010   0.97814   0.00000  Uiso   1.00
C426   C     0.72947   0.27435   0.96515   0.00000  Uiso   1.00
C427   C     0.72909   0.38396   0.94563   0.00000  Uiso   1.00
C428   C     0.87726   0.12977   0.97648   0.00000  Uiso   1.00
C429   C     0.85504   0.07904   0.92738   0.00000  Uiso   1.00
C430   C     0.89246   0.05347   0.87757   0.00000  Uiso   1.00
C431   C     0.86323   0.00755   0.83784   0.00000  Uiso   1.00
C432   C     0.86637   0.09975   0.04324   0.00000  Uiso   1.00
C433   C     0.91333   0.09159   0.09084   0.00000  Uiso   1.00
C434   C     0.89364   0.06311   0.14865   0.00000  Uiso   1.00
C435   C     0.82920   0.18580   0.97117   0.00000  Uiso   1.00
C436   C     0.84491   0.25000   0.95819   0.00000  Uiso   1.00
C437   C     0.79393   0.29398   0.95534   0.00000  Uiso   1.00
H438   H     0.70871   0.07846   0.00214   0.00000  Uiso   1.00
H439   H     0.71161   0.99842   0.90512   0.00000  Uiso   1.00
H440   H     0.73247   0.03655   0.11836   0.00000  Uiso   1.00
H441   H     0.66406   0.19493   0.98573   0.00000  Uiso   1.00
H442   H     0.74320   0.91830   0.79324   0.00000  Uiso   1.00
H443   H     0.78718   0.99872   0.24289   0.00000  Uiso   1.00
H444   H     0.64293   0.33269   0.96321   0.00000  Uiso   1.00
H445   H     0.92736   0.14502   0.96885   0.00000  Uiso   1.00
H446   H     0.94225   0.06863   0.87000   0.00000  Uiso   1.00
H447   H     0.96311   0.10676   0.08325   0.00000  Uiso   1.00
H448   H     0.89471   0.26514   0.95061   0.00000  Uiso   1.00
H449   H     0.93040   0.97529   0.76474   0.00000  Uiso   1.00
H450   H     0.97438   0.05570   0.21439   0.00000  Uiso   1.00
H451   H     0.83014   0.38968   0.93470   0.00000  Uiso   1.00
O452   O     0.84266   0.89533   0.71458   0.00000  Uiso   1.00
O453   O     0.90036   0.00084   0.30450   0.00000  Uiso   1.00
O454   O     0.71111   0.43901   0.93756   0.00000  Uiso   1.00
N455   N     0.78521   0.94221   0.80009   0.00000  Uiso   1.00
N456   N     0.82633   0.01738   0.22048   0.00000  Uiso   1.00
N457   N     0.69147   0.32962   0.95902   0.00000  Uiso   1.00
N458   N     0.88594   0.97287   0.78476   0.00000  Uiso   1.00
N459   N     0.92706   0.04804   0.20515   0.00000  Uiso   1.00
N460   N     0.79220   0.36029   0.94368   0.00000  Uiso   1.00
C461   C     0.74120   0.90629   0.49451   0.00000  Uiso   1.00
C462   C     0.70931   0.94054   0.43718   0.00000  Uiso   1.00
C463   C     0.73860   0.98643   0.39752   0.00000  Uiso   1.00
C464   C     0.70123   0.01207   0.34765   0.00000  Uiso   1.00
C465   C     0.66149   0.06826   0.26014   0.00000  Uiso   1.00
C466   C     0.69797   0.91984   0.55304   0.00000  Uiso   1.00
C467   C     0.71774   0.94831   0.61079   0.00000  Uiso   1.00
C468   C     0.67082   0.95651   0.65846   0.00000  Uiso   1.00
C469   C     0.61349   0.98050   0.75084   0.00000  Uiso   1.00
C470   C     0.73514   0.83379   0.48097   0.00000  Uiso   1.00
C471   C     0.78615   0.78990   0.47814   0.00000  Uiso   1.00
C472   C     0.77053   0.72565   0.46515   0.00000  Uiso   1.00
C473   C     0.77091   0.61604   0.44563   0.00000  Uiso   1.00
C474   C     0.62274   0.87023   0.47648   0.00000  Uiso   1.00
C475   C     0.64496   0.92096   0.42738   0.00000  Uiso   1.00
C476   C     0.60754   0.94653   0.37757   0.00000  Uiso   1.00
C477   C     0.63677   0.99245   0.33784   0.00000  Uiso   1.00
C478   C     0.63363   0.90025   0.54324   0.00000  Uiso   1.00
C479   C     0.58667   0.90841   0.59084   0.00000  Uiso   1.00
C480   C     0.60636   0.93689   0.64865   0.00000  Uiso   1.00
C481   C     0.67080   0.81420   0.47117   0.00000  Uiso   1.00
C482   C     0.65509   0.75000   0.45819   0.00000  Uiso   1.00
C483   C     0.70607   0.70602   0.45534   0.00000  Uiso   1.00
H484   H     0.79129   0.92154   0.50214   0.00000  Uiso   1.00
H485   H     0.78839   0.00158   0.40512   0.00000  Uiso   1.00
H486   H     0.76753   0.96345   0.61836   0.00000  Uiso   1.00
H487   H     0.83594   0.80507   0.48573   0.00000  Uiso   1.00
H488   H     0.75680   0.08170   0.29324   0.00000  Uiso   1.00
H489   H     0.71282   0.00128   0.74289   0.00000  Uiso   1.00
H490   H     0.85707   0.66731   0.46321   0.00000  Uiso   1.00
H491   H     0.57264   0.85498   0.46885   0.00000  Uiso   1.00
H492   H     0.55775   0.93137   0.37000   0.00000  Uiso   1.00
H493   H     0.53689   0.89324   0.58325   0.00000  Uiso   1.00
H494   H     0.60529   0.73486   0.45061   0.00000  Uiso   1.00
H495   H     0.56960   0.02471   0.26474   0.00000  Uiso   1.00
H496   H     0.52562   0.94430   0.71439   0.00000  Uiso   1.00
H497   H     0.66986   0.61032   0.43470   0.00000  Uiso   1.00
O498   O     0.65734   0.10467   0.21458   0.00000  Uiso   1.00
O499   O     0.59964   0.99916   0.80450   0.00000  Uiso   1.00
O500   O     0.78889   0.56099   0.43756   0.00000  Uiso   1.00
N501   N     0.71479   0.05779   0.30009   0.00000  Uiso   1.00
N502   N     0.67367   0.98262   0.72048   0.00000  Uiso   1.00
N503   N     0.80853   0.67038   0.45902   0.00000  Uiso   1.00
N504   N     0.61406   0.02713   0.28476   0.00000  Uiso   1.00
N505   N     0.57294   0.95196   0.70515   0.00000  Uiso   1.00
N506   N     0.70780   0.63971   0.44368   0.00000  Uiso   1.00
C507   C     0.25880   0.40629   0.00549   0.00000  Uiso   1.00
C508   C     0.29069   0.44054   0.06282   0.00000  Uiso   1.00
C509   C     0.26140   0.48643   0.10248   0.00000  Uiso   1.00
C510   C     0.29877   0.51207   0.15235   0.00000  Uiso   1.00
C511   C     0.33851   0.56826   0.23986   0.00000  Uiso   1.00
C512   C     0.30203   0.41984   0.94696   0.00000  Uiso   1.00
C513   C     0.28226   0.44831   0.88921   0.00000  Uiso   1.00
C514   C     0.32918   0.45651   0.84154   0.00000  Uiso   1.00
C515   C     0.38651   0.48050   0.74916   0.00000  Uiso   1.00
C516   C     0.26486   0.33379   0.01903   0.00000  Uiso   1.00
C517   C     0.21385   0.28990   0.02186   0.00000  Uiso   1.00
C518   C     0.22947   0.22565   0.03485   0.00000  Uiso   1.00
C519   C     0.22909   0.11604   0.05437   0.00000  Uiso   1.00
C520   C     0.37726   0.37023   0.02352   0.00000  Uiso   1.00
C521   C     0.35504   0.42096   0.07262   0.00000  Uiso   1.00
C522   C     0.39246   0.44653   0.12243   0.00000  Uiso   1.00
C523   C     0.36323   0.49245   0.16216   0.00000  Uiso   1.00
C524   C     0.36637   0.40025   0.95676   0.00000  Uiso   1.00
C525   C     0.41333   0.40841   0.90916   0.00000  Uiso   1.00
C526   C     0.39364   0.43689   0.85135   0.00000  Uiso   1.00
C527   C     0.32920   0.31420   0.02883   0.00000  Uiso   1.00
C528   C     0.34491   0.25000   0.04181   0.00000  Uiso   1.00
C529   C     0.29393   0.20602   0.04466   0.00000  Uiso   1.00
H530   H     0.20871   0.42154   0.99786   0.00000  Uiso   1.00
H531   H     0.21161   0.50158   0.09488   0.00000  Uiso   1.00
H532   H     0.23247   0.46345   0.88164   0.00000  Uiso   1.00
H533   H     0.16406   0.30507   0.01427   0.00000  Uiso   1.00
H534   H     0.24320   0.58170   0.20676   0.00000  Uiso   1.00
H535   H     0.28718   0.50128   0.75711   0.00000  Uiso   1.00
H536   H     0.14293   0.16731   0.03679   0.00000  Uiso   1.00
H537   H     0.42736   0.35498   0.03115   0.00000  Uiso   1.00
H538   H     0.44225   0.43137   0.13000   0.00000  Uiso   1.00
H539   H     0.46311   0.39324   0.91675   0.00000  Uiso   1.00
H540   H     0.39471   0.23486   0.04939   0.00000  Uiso   1.00
H541   H     0.43040   0.52471   0.23526   0.00000  Uiso   1.00
H542   H     0.47438   0.44430   0.78561   0.00000  Uiso   1.00
H543   H     0.33014   0.11032   0.06530   0.00000  Uiso   1.00
O544   O     0.34266   0.60467   0.28542   0.00000  Uiso   1.00
O545   O     0.40036   0.49916   0.69550   0.00000  Uiso   1.00
O546   O     0.21111   0.06099   0.06244   0.00000  Uiso   1.00
N547   N     0.28521   0.55779   0.19991   0.00000  Uiso   1.00
N548   N     0.32633   0.48262   0.77952   0.00000  Uiso   1.00
N549   N     0.19147   0.17038   0.04098   0.00000  Uiso   1.00
N550   N     0.38594   0.52713   0.21524   0.00000  Uiso   1.00
N551   N     0.42706   0.45196   0.79485   0.00000  Uiso   1.00
N552   N     0.29220   0.13971   0.05632   0.00000  Uiso   1.00
