data_job_01072
_audit_creation_date              2018-12-19
_audit_creation_method            'Materials Studio'
_symmetry_space_group_name_H-M    'P1'
_symmetry_Int_Tables_number       1
_symmetry_cell_setting            triclinic
loop_
_symmetry_equiv_pos_as_xyz
  x,y,z
_cell_length_a                    11.7801
_cell_length_b                    19.4807
_cell_length_c                    25.2504
_cell_angle_alpha                 90.0000
_cell_angle_beta                  90.0000
_cell_angle_gamma                 90.0000
loop_
_atom_site_label
_atom_site_type_symbol
_atom_site_fract_x
_atom_site_fract_y
_atom_site_fract_z
_atom_site_U_iso_or_equiv
_atom_site_adp_type
_atom_site_occupancy
C1     C     0.39993   0.02199   0.85863   0.00000  Uiso   1.00
C2     C     0.32492   0.01968   0.90782   0.00000  Uiso   1.00
C3     C     0.32944   0.06526   0.95000   0.00000  Uiso   1.00
C4     C     0.25363   0.05439   0.99126   0.00000  Uiso   1.00
C5     C     0.14899   0.05906   0.06780   0.00000  Uiso   1.00
C6     C     0.45785   0.95211   0.85541   0.00000  Uiso   1.00
C7     C     0.57412   0.94088   0.85353   0.00000  Uiso   1.00
C8     C     0.61021   0.87313   0.85067   0.00000  Uiso   1.00
C9     C     0.71192   0.77291   0.84580   0.00000  Uiso   1.00
C10    C     0.31928   0.02542   0.81147   0.00000  Uiso   1.00
C11    C     0.31906   0.07582   0.77263   0.00000  Uiso   1.00
C12    C     0.23850   0.06978   0.73276   0.00000  Uiso   1.00
C13    C     0.12508   0.08339   0.65966   0.00000  Uiso   1.00
C14    C     0.25728   0.92164   0.85689   0.00000  Uiso   1.00
C15    C     0.24744   0.96517   0.90687   0.00000  Uiso   1.00
C16    C     0.17161   0.95423   0.94808   0.00000  Uiso   1.00
C17    C     0.17601   0.99979   0.99032   0.00000  Uiso   1.00
C18    C     0.38037   0.89760   0.85447   0.00000  Uiso   1.00
C19    C     0.41629   0.82985   0.85160   0.00000  Uiso   1.00
C20    C     0.53259   0.81853   0.84972   0.00000  Uiso   1.00
C21    C     0.24180   0.97091   0.81052   0.00000  Uiso   1.00
C22    C     0.16123   0.96479   0.77070   0.00000  Uiso   1.00
C23    C     0.16089   0.01518   0.73181   0.00000  Uiso   1.00
H24    H     0.46026   0.06443   0.85937   0.00000  Uiso   1.00
H25    H     0.38942   0.10743   0.95072   0.00000  Uiso   1.00
H26    H     0.63406   0.98307   0.85426   0.00000  Uiso   1.00
H27    H     0.37904   0.11799   0.77337   0.00000  Uiso   1.00
H28    H     0.27674   0.13105   0.05160   0.00000  Uiso   1.00
H29    H     0.79257   0.86885   0.84818   0.00000  Uiso   1.00
H30    H     0.25481   0.15335   0.67761   0.00000  Uiso   1.00
H31    H     0.19696   0.87920   0.85615   0.00000  Uiso   1.00
H32    H     0.11166   0.91204   0.94733   0.00000  Uiso   1.00
H33    H     0.35631   0.78769   0.85087   0.00000  Uiso   1.00
H34    H     0.10129   0.92260   0.76998   0.00000  Uiso   1.00
H35    H     0.05130   0.97247   0.04885   0.00000  Uiso   1.00
H36    H     0.56714   0.71026   0.84543   0.00000  Uiso   1.00
H37    H     0.02938   0.99476   0.67486   0.00000  Uiso   1.00
O38    O     0.11268   0.07669   0.11028   0.00000  Uiso   1.00
O39    O     0.78944   0.73269   0.84338   0.00000  Uiso   1.00
O40    O     0.08391   0.10595   0.61961   0.00000  Uiso   1.00
N41    N     0.23537   0.08923   0.03844   0.00000  Uiso   1.00
N42    N     0.71765   0.84408   0.84826   0.00000  Uiso   1.00
N43    N     0.21491   0.11006   0.68878   0.00000  Uiso   1.00
N44    N     0.11406   0.00390   0.03696   0.00000  Uiso   1.00
N45    N     0.59634   0.75875   0.84678   0.00000  Uiso   1.00
N46    N     0.09360   0.02472   0.68730   0.00000  Uiso   1.00
C47    C     0.10007   0.47801   0.35863   0.00000  Uiso   1.00
C48    C     0.17508   0.48032   0.40782   0.00000  Uiso   1.00
C49    C     0.17056   0.43474   0.45000   0.00000  Uiso   1.00
C50    C     0.24637   0.44561   0.49126   0.00000  Uiso   1.00
C51    C     0.35101   0.44094   0.56780   0.00000  Uiso   1.00
C52    C     0.04215   0.54789   0.35541   0.00000  Uiso   1.00
C53    C     0.92588   0.55912   0.35353   0.00000  Uiso   1.00
C54    C     0.88979   0.62687   0.35067   0.00000  Uiso   1.00
C55    C     0.78808   0.72709   0.34580   0.00000  Uiso   1.00
C56    C     0.18072   0.47458   0.31147   0.00000  Uiso   1.00
C57    C     0.18094   0.42418   0.27263   0.00000  Uiso   1.00
C58    C     0.26150   0.43022   0.23276   0.00000  Uiso   1.00
C59    C     0.37492   0.41661   0.15966   0.00000  Uiso   1.00
C60    C     0.24272   0.57836   0.35689   0.00000  Uiso   1.00
C61    C     0.25256   0.53483   0.40687   0.00000  Uiso   1.00
C62    C     0.32839   0.54577   0.44808   0.00000  Uiso   1.00
C63    C     0.32399   0.50021   0.49032   0.00000  Uiso   1.00
C64    C     0.11963   0.60240   0.35447   0.00000  Uiso   1.00
C65    C     0.08371   0.67015   0.35160   0.00000  Uiso   1.00
C66    C     0.96741   0.68147   0.34972   0.00000  Uiso   1.00
C67    C     0.25820   0.52909   0.31052   0.00000  Uiso   1.00
C68    C     0.33877   0.53521   0.27070   0.00000  Uiso   1.00
C69    C     0.33911   0.48482   0.23181   0.00000  Uiso   1.00
H70    H     0.03974   0.43557   0.35937   0.00000  Uiso   1.00
H71    H     0.11058   0.39257   0.45072   0.00000  Uiso   1.00
H72    H     0.86594   0.51693   0.35426   0.00000  Uiso   1.00
H73    H     0.12096   0.38201   0.27337   0.00000  Uiso   1.00
H74    H     0.22326   0.36895   0.55160   0.00000  Uiso   1.00
H75    H     0.70743   0.63115   0.34818   0.00000  Uiso   1.00
H76    H     0.24519   0.34665   0.17761   0.00000  Uiso   1.00
H77    H     0.30304   0.62080   0.35615   0.00000  Uiso   1.00
H78    H     0.38834   0.58796   0.44733   0.00000  Uiso   1.00
H79    H     0.14369   0.71231   0.35087   0.00000  Uiso   1.00
H80    H     0.39871   0.57740   0.26998   0.00000  Uiso   1.00
H81    H     0.44870   0.52753   0.54885   0.00000  Uiso   1.00
H82    H     0.93286   0.78974   0.34543   0.00000  Uiso   1.00
H83    H     0.47062   0.50524   0.17486   0.00000  Uiso   1.00
O84    O     0.38732   0.42331   0.61028   0.00000  Uiso   1.00
O85    O     0.71056   0.76731   0.34338   0.00000  Uiso   1.00
O86    O     0.41609   0.39405   0.11961   0.00000  Uiso   1.00
N87    N     0.26463   0.41077   0.53844   0.00000  Uiso   1.00
N88    N     0.78235   0.65592   0.34826   0.00000  Uiso   1.00
N89    N     0.28509   0.38994   0.18878   0.00000  Uiso   1.00
N90    N     0.38594   0.49610   0.53696   0.00000  Uiso   1.00
N91    N     0.90366   0.74125   0.34678   0.00000  Uiso   1.00
N92    N     0.40640   0.47528   0.18730   0.00000  Uiso   1.00
C93    C     0.60007   0.02199   0.64137   0.00000  Uiso   1.00
C94    C     0.67508   0.01968   0.59218   0.00000  Uiso   1.00
C95    C     0.67056   0.06526   0.55000   0.00000  Uiso   1.00
C96    C     0.74637   0.05439   0.50874   0.00000  Uiso   1.00
C97    C     0.85101   0.05906   0.43220   0.00000  Uiso   1.00
C98    C     0.54215   0.95211   0.64459   0.00000  Uiso   1.00
C99    C     0.42588   0.94088   0.64647   0.00000  Uiso   1.00
C100   C     0.38979   0.87313   0.64933   0.00000  Uiso   1.00
C101   C     0.28808   0.77291   0.65420   0.00000  Uiso   1.00
C102   C     0.68072   0.02542   0.68853   0.00000  Uiso   1.00
C103   C     0.68094   0.07582   0.72737   0.00000  Uiso   1.00
C104   C     0.76150   0.06978   0.76724   0.00000  Uiso   1.00
C105   C     0.87492   0.08339   0.84034   0.00000  Uiso   1.00
C106   C     0.74272   0.92164   0.64311   0.00000  Uiso   1.00
C107   C     0.75256   0.96517   0.59313   0.00000  Uiso   1.00
C108   C     0.82839   0.95423   0.55192   0.00000  Uiso   1.00
C109   C     0.82399   0.99979   0.50968   0.00000  Uiso   1.00
C110   C     0.61963   0.89760   0.64553   0.00000  Uiso   1.00
C111   C     0.58371   0.82985   0.64840   0.00000  Uiso   1.00
C112   C     0.46741   0.81853   0.65028   0.00000  Uiso   1.00
C113   C     0.75820   0.97091   0.68948   0.00000  Uiso   1.00
C114   C     0.83877   0.96479   0.72930   0.00000  Uiso   1.00
C115   C     0.83911   0.01518   0.76819   0.00000  Uiso   1.00
H116   H     0.53974   0.06443   0.64063   0.00000  Uiso   1.00
H117   H     0.61058   0.10743   0.54928   0.00000  Uiso   1.00
H118   H     0.36594   0.98307   0.64574   0.00000  Uiso   1.00
H119   H     0.62096   0.11799   0.72663   0.00000  Uiso   1.00
H120   H     0.72326   0.13105   0.44840   0.00000  Uiso   1.00
H121   H     0.20743   0.86885   0.65182   0.00000  Uiso   1.00
H122   H     0.74519   0.15335   0.82239   0.00000  Uiso   1.00
H123   H     0.80304   0.87920   0.64385   0.00000  Uiso   1.00
H124   H     0.88834   0.91204   0.55267   0.00000  Uiso   1.00
H125   H     0.64369   0.78769   0.64913   0.00000  Uiso   1.00
H126   H     0.89871   0.92260   0.73002   0.00000  Uiso   1.00
H127   H     0.94870   0.97247   0.45115   0.00000  Uiso   1.00
H128   H     0.43286   0.71026   0.65457   0.00000  Uiso   1.00
H129   H     0.97062   0.99476   0.82514   0.00000  Uiso   1.00
O130   O     0.88732   0.07669   0.38972   0.00000  Uiso   1.00
O131   O     0.21056   0.73269   0.65662   0.00000  Uiso   1.00
O132   O     0.91609   0.10595   0.88039   0.00000  Uiso   1.00
N133   N     0.76463   0.08923   0.46156   0.00000  Uiso   1.00
N134   N     0.28235   0.84408   0.65174   0.00000  Uiso   1.00
N135   N     0.78509   0.11006   0.81122   0.00000  Uiso   1.00
N136   N     0.88594   0.00390   0.46304   0.00000  Uiso   1.00
N137   N     0.40366   0.75875   0.65322   0.00000  Uiso   1.00
N138   N     0.90640   0.02472   0.81270   0.00000  Uiso   1.00
C139   C     0.89993   0.47801   0.14137   0.00000  Uiso   1.00
C140   C     0.82492   0.48032   0.09218   0.00000  Uiso   1.00
C141   C     0.82944   0.43474   0.05000   0.00000  Uiso   1.00
C142   C     0.75363   0.44561   0.00874   0.00000  Uiso   1.00
C143   C     0.64899   0.44094   0.93220   0.00000  Uiso   1.00
C144   C     0.95785   0.54789   0.14459   0.00000  Uiso   1.00
C145   C     0.07412   0.55912   0.14647   0.00000  Uiso   1.00
C146   C     0.11021   0.62687   0.14933   0.00000  Uiso   1.00
C147   C     0.21192   0.72709   0.15420   0.00000  Uiso   1.00
C148   C     0.81928   0.47458   0.18853   0.00000  Uiso   1.00
C149   C     0.81906   0.42418   0.22737   0.00000  Uiso   1.00
C150   C     0.73850   0.43022   0.26724   0.00000  Uiso   1.00
C151   C     0.62508   0.41661   0.34034   0.00000  Uiso   1.00
C152   C     0.75728   0.57836   0.14311   0.00000  Uiso   1.00
C153   C     0.74744   0.53483   0.09313   0.00000  Uiso   1.00
C154   C     0.67161   0.54577   0.05192   0.00000  Uiso   1.00
C155   C     0.67601   0.50021   0.00968   0.00000  Uiso   1.00
C156   C     0.88037   0.60240   0.14553   0.00000  Uiso   1.00
C157   C     0.91629   0.67015   0.14840   0.00000  Uiso   1.00
C158   C     0.03259   0.68147   0.15028   0.00000  Uiso   1.00
C159   C     0.74180   0.52909   0.18948   0.00000  Uiso   1.00
C160   C     0.66123   0.53521   0.22930   0.00000  Uiso   1.00
C161   C     0.66089   0.48482   0.26819   0.00000  Uiso   1.00
H162   H     0.96026   0.43557   0.14063   0.00000  Uiso   1.00
H163   H     0.88942   0.39257   0.04928   0.00000  Uiso   1.00
H164   H     0.13406   0.51693   0.14574   0.00000  Uiso   1.00
H165   H     0.87904   0.38201   0.22663   0.00000  Uiso   1.00
H166   H     0.77674   0.36895   0.94840   0.00000  Uiso   1.00
H167   H     0.29257   0.63115   0.15182   0.00000  Uiso   1.00
H168   H     0.75481   0.34665   0.32239   0.00000  Uiso   1.00
H169   H     0.69696   0.62080   0.14385   0.00000  Uiso   1.00
H170   H     0.61166   0.58796   0.05267   0.00000  Uiso   1.00
H171   H     0.85631   0.71231   0.14913   0.00000  Uiso   1.00
H172   H     0.60129   0.57740   0.23002   0.00000  Uiso   1.00
H173   H     0.55130   0.52753   0.95115   0.00000  Uiso   1.00
H174   H     0.06714   0.78974   0.15457   0.00000  Uiso   1.00
H175   H     0.52938   0.50524   0.32514   0.00000  Uiso   1.00
O176   O     0.61268   0.42331   0.88972   0.00000  Uiso   1.00
O177   O     0.28944   0.76731   0.15662   0.00000  Uiso   1.00
O178   O     0.58391   0.39405   0.38039   0.00000  Uiso   1.00
N179   N     0.73537   0.41077   0.96156   0.00000  Uiso   1.00
N180   N     0.21765   0.65592   0.15174   0.00000  Uiso   1.00
N181   N     0.71491   0.38994   0.31122   0.00000  Uiso   1.00
N182   N     0.61406   0.49610   0.96304   0.00000  Uiso   1.00
N183   N     0.09634   0.74125   0.15322   0.00000  Uiso   1.00
N184   N     0.59360   0.47528   0.31270   0.00000  Uiso   1.00
C185   C     0.60007   0.97801   0.14137   0.00000  Uiso   1.00
C186   C     0.67508   0.98032   0.09218   0.00000  Uiso   1.00
C187   C     0.67056   0.93474   0.05000   0.00000  Uiso   1.00
C188   C     0.74637   0.94561   0.00874   0.00000  Uiso   1.00
C189   C     0.85101   0.94094   0.93220   0.00000  Uiso   1.00
C190   C     0.54215   0.04789   0.14459   0.00000  Uiso   1.00
C191   C     0.42588   0.05912   0.14647   0.00000  Uiso   1.00
C192   C     0.38979   0.12687   0.14933   0.00000  Uiso   1.00
C193   C     0.28808   0.22709   0.15420   0.00000  Uiso   1.00
C194   C     0.68072   0.97458   0.18853   0.00000  Uiso   1.00
C195   C     0.68094   0.92418   0.22737   0.00000  Uiso   1.00
C196   C     0.76150   0.93022   0.26724   0.00000  Uiso   1.00
C197   C     0.87492   0.91661   0.34034   0.00000  Uiso   1.00
C198   C     0.74272   0.07836   0.14311   0.00000  Uiso   1.00
C199   C     0.75256   0.03483   0.09313   0.00000  Uiso   1.00
C200   C     0.82839   0.04577   0.05192   0.00000  Uiso   1.00
C201   C     0.82399   0.00021   0.00968   0.00000  Uiso   1.00
C202   C     0.61963   0.10240   0.14553   0.00000  Uiso   1.00
C203   C     0.58371   0.17015   0.14840   0.00000  Uiso   1.00
C204   C     0.46741   0.18147   0.15028   0.00000  Uiso   1.00
C205   C     0.75820   0.02909   0.18948   0.00000  Uiso   1.00
C206   C     0.83877   0.03521   0.22930   0.00000  Uiso   1.00
C207   C     0.83911   0.98482   0.26819   0.00000  Uiso   1.00
H208   H     0.53974   0.93557   0.14063   0.00000  Uiso   1.00
H209   H     0.61058   0.89257   0.04928   0.00000  Uiso   1.00
H210   H     0.36594   0.01693   0.14574   0.00000  Uiso   1.00
H211   H     0.62096   0.88201   0.22663   0.00000  Uiso   1.00
H212   H     0.72326   0.86895   0.94840   0.00000  Uiso   1.00
H213   H     0.20743   0.13115   0.15182   0.00000  Uiso   1.00
H214   H     0.74519   0.84665   0.32239   0.00000  Uiso   1.00
H215   H     0.80304   0.12080   0.14385   0.00000  Uiso   1.00
H216   H     0.88834   0.08796   0.05267   0.00000  Uiso   1.00
H217   H     0.64369   0.21231   0.14913   0.00000  Uiso   1.00
H218   H     0.89871   0.07740   0.23002   0.00000  Uiso   1.00
H219   H     0.94870   0.02753   0.95115   0.00000  Uiso   1.00
H220   H     0.43286   0.28974   0.15457   0.00000  Uiso   1.00
H221   H     0.97062   0.00524   0.32514   0.00000  Uiso   1.00
O222   O     0.88732   0.92331   0.88972   0.00000  Uiso   1.00
O223   O     0.21056   0.26731   0.15662   0.00000  Uiso   1.00
O224   O     0.91609   0.89405   0.38039   0.00000  Uiso   1.00
N225   N     0.76463   0.91077   0.96156   0.00000  Uiso   1.00
N226   N     0.28235   0.15592   0.15174   0.00000  Uiso   1.00
N227   N     0.78509   0.88994   0.31122   0.00000  Uiso   1.00
N228   N     0.88594   0.99610   0.96304   0.00000  Uiso   1.00
N229   N     0.40366   0.24125   0.15322   0.00000  Uiso   1.00
N230   N     0.90640   0.97528   0.31270   0.00000  Uiso   1.00
C231   C     0.89993   0.52199   0.64137   0.00000  Uiso   1.00
C232   C     0.82492   0.51968   0.59218   0.00000  Uiso   1.00
C233   C     0.82944   0.56526   0.55000   0.00000  Uiso   1.00
C234   C     0.75363   0.55439   0.50874   0.00000  Uiso   1.00
C235   C     0.64899   0.55906   0.43220   0.00000  Uiso   1.00
C236   C     0.95785   0.45211   0.64459   0.00000  Uiso   1.00
C237   C     0.07412   0.44088   0.64647   0.00000  Uiso   1.00
C238   C     0.11021   0.37313   0.64933   0.00000  Uiso   1.00
C239   C     0.21192   0.27291   0.65420   0.00000  Uiso   1.00
C240   C     0.81928   0.52542   0.68853   0.00000  Uiso   1.00
C241   C     0.81906   0.57582   0.72737   0.00000  Uiso   1.00
C242   C     0.73850   0.56978   0.76724   0.00000  Uiso   1.00
C243   C     0.62508   0.58339   0.84034   0.00000  Uiso   1.00
C244   C     0.75728   0.42164   0.64311   0.00000  Uiso   1.00
C245   C     0.74744   0.46517   0.59313   0.00000  Uiso   1.00
C246   C     0.67161   0.45423   0.55192   0.00000  Uiso   1.00
C247   C     0.67601   0.49979   0.50968   0.00000  Uiso   1.00
C248   C     0.88037   0.39760   0.64553   0.00000  Uiso   1.00
C249   C     0.91629   0.32985   0.64840   0.00000  Uiso   1.00
C250   C     0.03259   0.31853   0.65028   0.00000  Uiso   1.00
C251   C     0.74180   0.47091   0.68948   0.00000  Uiso   1.00
C252   C     0.66123   0.46479   0.72930   0.00000  Uiso   1.00
C253   C     0.66089   0.51518   0.76819   0.00000  Uiso   1.00
H254   H     0.96026   0.56443   0.64063   0.00000  Uiso   1.00
H255   H     0.88942   0.60743   0.54928   0.00000  Uiso   1.00
H256   H     0.13406   0.48307   0.64574   0.00000  Uiso   1.00
H257   H     0.87904   0.61799   0.72663   0.00000  Uiso   1.00
H258   H     0.77674   0.63105   0.44840   0.00000  Uiso   1.00
H259   H     0.29257   0.36885   0.65182   0.00000  Uiso   1.00
H260   H     0.75481   0.65335   0.82239   0.00000  Uiso   1.00
H261   H     0.69696   0.37920   0.64385   0.00000  Uiso   1.00
H262   H     0.61166   0.41204   0.55267   0.00000  Uiso   1.00
H263   H     0.85631   0.28769   0.64913   0.00000  Uiso   1.00
H264   H     0.60129   0.42260   0.73002   0.00000  Uiso   1.00
H265   H     0.55130   0.47247   0.45115   0.00000  Uiso   1.00
H266   H     0.06714   0.21026   0.65457   0.00000  Uiso   1.00
H267   H     0.52938   0.49476   0.82514   0.00000  Uiso   1.00
O268   O     0.61268   0.57669   0.38972   0.00000  Uiso   1.00
O269   O     0.28944   0.23269   0.65662   0.00000  Uiso   1.00
O270   O     0.58391   0.60595   0.88039   0.00000  Uiso   1.00
N271   N     0.73537   0.58923   0.46156   0.00000  Uiso   1.00
N272   N     0.21765   0.34408   0.65174   0.00000  Uiso   1.00
N273   N     0.71491   0.61006   0.81122   0.00000  Uiso   1.00
N274   N     0.61406   0.50390   0.46304   0.00000  Uiso   1.00
N275   N     0.09634   0.25875   0.65322   0.00000  Uiso   1.00
N276   N     0.59360   0.52472   0.81270   0.00000  Uiso   1.00
C277   C     0.39993   0.97801   0.35863   0.00000  Uiso   1.00
C278   C     0.32492   0.98032   0.40782   0.00000  Uiso   1.00
C279   C     0.32944   0.93474   0.45000   0.00000  Uiso   1.00
C280   C     0.25363   0.94561   0.49126   0.00000  Uiso   1.00
C281   C     0.14899   0.94094   0.56780   0.00000  Uiso   1.00
C282   C     0.45785   0.04789   0.35541   0.00000  Uiso   1.00
C283   C     0.57412   0.05912   0.35353   0.00000  Uiso   1.00
C284   C     0.61021   0.12687   0.35067   0.00000  Uiso   1.00
C285   C     0.71192   0.22709   0.34580   0.00000  Uiso   1.00
C286   C     0.31928   0.97458   0.31147   0.00000  Uiso   1.00
C287   C     0.31906   0.92418   0.27263   0.00000  Uiso   1.00
C288   C     0.23850   0.93022   0.23276   0.00000  Uiso   1.00
C289   C     0.12508   0.91661   0.15966   0.00000  Uiso   1.00
C290   C     0.25728   0.07836   0.35689   0.00000  Uiso   1.00
C291   C     0.24744   0.03483   0.40687   0.00000  Uiso   1.00
C292   C     0.17161   0.04577   0.44808   0.00000  Uiso   1.00
C293   C     0.17601   0.00021   0.49032   0.00000  Uiso   1.00
C294   C     0.38037   0.10240   0.35447   0.00000  Uiso   1.00
C295   C     0.41629   0.17015   0.35160   0.00000  Uiso   1.00
C296   C     0.53259   0.18147   0.34972   0.00000  Uiso   1.00
C297   C     0.24180   0.02909   0.31052   0.00000  Uiso   1.00
C298   C     0.16123   0.03521   0.27070   0.00000  Uiso   1.00
C299   C     0.16089   0.98482   0.23181   0.00000  Uiso   1.00
H300   H     0.46026   0.93557   0.35937   0.00000  Uiso   1.00
H301   H     0.38942   0.89257   0.45072   0.00000  Uiso   1.00
H302   H     0.63406   0.01693   0.35426   0.00000  Uiso   1.00
H303   H     0.37904   0.88201   0.27337   0.00000  Uiso   1.00
H304   H     0.27674   0.86895   0.55160   0.00000  Uiso   1.00
H305   H     0.79257   0.13115   0.34818   0.00000  Uiso   1.00
H306   H     0.25481   0.84665   0.17761   0.00000  Uiso   1.00
H307   H     0.19696   0.12080   0.35615   0.00000  Uiso   1.00
H308   H     0.11166   0.08796   0.44733   0.00000  Uiso   1.00
H309   H     0.35631   0.21231   0.35087   0.00000  Uiso   1.00
H310   H     0.10129   0.07740   0.26998   0.00000  Uiso   1.00
H311   H     0.05130   0.02753   0.54885   0.00000  Uiso   1.00
H312   H     0.56714   0.28974   0.34543   0.00000  Uiso   1.00
H313   H     0.02938   0.00524   0.17486   0.00000  Uiso   1.00
O314   O     0.11268   0.92331   0.61028   0.00000  Uiso   1.00
O315   O     0.78944   0.26731   0.34338   0.00000  Uiso   1.00
O316   O     0.08391   0.89405   0.11961   0.00000  Uiso   1.00
N317   N     0.23537   0.91077   0.53844   0.00000  Uiso   1.00
N318   N     0.71765   0.15592   0.34826   0.00000  Uiso   1.00
N319   N     0.21491   0.88994   0.18878   0.00000  Uiso   1.00
N320   N     0.11406   0.99610   0.53696   0.00000  Uiso   1.00
N321   N     0.59634   0.24125   0.34678   0.00000  Uiso   1.00
N322   N     0.09360   0.97528   0.18730   0.00000  Uiso   1.00
C323   C     0.10007   0.52199   0.85863   0.00000  Uiso   1.00
C324   C     0.17508   0.51968   0.90782   0.00000  Uiso   1.00
C325   C     0.17056   0.56526   0.95000   0.00000  Uiso   1.00
C326   C     0.24637   0.55439   0.99126   0.00000  Uiso   1.00
C327   C     0.35101   0.55906   0.06780   0.00000  Uiso   1.00
C328   C     0.04215   0.45211   0.85541   0.00000  Uiso   1.00
C329   C     0.92588   0.44088   0.85353   0.00000  Uiso   1.00
C330   C     0.88979   0.37313   0.85067   0.00000  Uiso   1.00
C331   C     0.78808   0.27291   0.84580   0.00000  Uiso   1.00
C332   C     0.18072   0.52542   0.81147   0.00000  Uiso   1.00
C333   C     0.18094   0.57582   0.77263   0.00000  Uiso   1.00
C334   C     0.26150   0.56978   0.73276   0.00000  Uiso   1.00
C335   C     0.37492   0.58339   0.65966   0.00000  Uiso   1.00
C336   C     0.24272   0.42164   0.85689   0.00000  Uiso   1.00
C337   C     0.25256   0.46517   0.90687   0.00000  Uiso   1.00
C338   C     0.32839   0.45423   0.94808   0.00000  Uiso   1.00
C339   C     0.32399   0.49979   0.99032   0.00000  Uiso   1.00
C340   C     0.11963   0.39760   0.85447   0.00000  Uiso   1.00
C341   C     0.08371   0.32985   0.85160   0.00000  Uiso   1.00
C342   C     0.96741   0.31853   0.84972   0.00000  Uiso   1.00
C343   C     0.25820   0.47091   0.81052   0.00000  Uiso   1.00
C344   C     0.33877   0.46479   0.77070   0.00000  Uiso   1.00
C345   C     0.33911   0.51518   0.73181   0.00000  Uiso   1.00
H346   H     0.03974   0.56443   0.85937   0.00000  Uiso   1.00
H347   H     0.11058   0.60743   0.95072   0.00000  Uiso   1.00
H348   H     0.86594   0.48307   0.85426   0.00000  Uiso   1.00
H349   H     0.12096   0.61799   0.77337   0.00000  Uiso   1.00
H350   H     0.22326   0.63105   0.05160   0.00000  Uiso   1.00
H351   H     0.70743   0.36885   0.84818   0.00000  Uiso   1.00
H352   H     0.24519   0.65335   0.67761   0.00000  Uiso   1.00
H353   H     0.30304   0.37920   0.85615   0.00000  Uiso   1.00
H354   H     0.38834   0.41204   0.94733   0.00000  Uiso   1.00
H355   H     0.14369   0.28769   0.85087   0.00000  Uiso   1.00
H356   H     0.39871   0.42260   0.76998   0.00000  Uiso   1.00
H357   H     0.44870   0.47247   0.04885   0.00000  Uiso   1.00
H358   H     0.93286   0.21026   0.84543   0.00000  Uiso   1.00
H359   H     0.47062   0.49476   0.67486   0.00000  Uiso   1.00
O360   O     0.38732   0.57669   0.11028   0.00000  Uiso   1.00
O361   O     0.71056   0.23269   0.84338   0.00000  Uiso   1.00
O362   O     0.41609   0.60595   0.61961   0.00000  Uiso   1.00
N363   N     0.26463   0.58923   0.03844   0.00000  Uiso   1.00
N364   N     0.78235   0.34408   0.84826   0.00000  Uiso   1.00
N365   N     0.28509   0.61006   0.68878   0.00000  Uiso   1.00
N366   N     0.38594   0.50390   0.03696   0.00000  Uiso   1.00
N367   N     0.90366   0.25875   0.84678   0.00000  Uiso   1.00
N368   N     0.40640   0.52472   0.68730   0.00000  Uiso   1.00
