data_job_04149
_audit_creation_date              2018-12-19
_audit_creation_method            'Materials Studio'
_symmetry_space_group_name_H-M    'P1'
_symmetry_Int_Tables_number       1
_symmetry_cell_setting            triclinic
loop_
_symmetry_equiv_pos_as_xyz
  x,y,z
_cell_length_a                    22.5457
_cell_length_b                    22.5457
_cell_length_c                    9.8518
_cell_angle_alpha                 90.0000
_cell_angle_beta                  90.0000
_cell_angle_gamma                 90.0000
loop_
_atom_site_label
_atom_site_type_symbol
_atom_site_fract_x
_atom_site_fract_y
_atom_site_fract_z
_atom_site_U_iso_or_equiv
_atom_site_adp_type
_atom_site_occupancy
C1     C     0.00964   0.69067   0.36315   0.00000  Uiso   1.00
C2     C     0.97596   0.70795   0.23488   0.00000  Uiso   1.00
C3     C     0.91484   0.71338   0.22349   0.00000  Uiso   1.00
C4     C     0.89263   0.72962   0.09741   0.00000  Uiso   1.00
C5     C     0.83460   0.75483   0.91505   0.00000  Uiso   1.00
C6     C     0.04670   0.63653   0.32558   0.00000  Uiso   1.00
C7     C     0.04508   0.58191   0.39046   0.00000  Uiso   1.00
C8     C     0.08243   0.53803   0.34074   0.00000  Uiso   1.00
C9     C     0.13426   0.45237   0.29925   0.00000  Uiso   1.00
C10    C     0.05370   0.74068   0.38944   0.00000  Uiso   1.00
C11    C     0.05798   0.77363   0.50802   0.00000  Uiso   1.00
C12    C     0.10124   0.81744   0.51208   0.00000  Uiso   1.00
C13    C     0.16395   0.89350   0.56974   0.00000  Uiso   1.00
C14    C     0.07886   0.70986   0.15951   0.00000  Uiso   1.00
C15    C     0.01356   0.71837   0.12427   0.00000  Uiso   1.00
C16    C     0.99143   0.73460   0.99818   0.00000  Uiso   1.00
C17    C     0.93030   0.74006   0.98660   0.00000  Uiso   1.00
C18    C     0.08430   0.64694   0.21497   0.00000  Uiso   1.00
C19    C     0.12166   0.60313   0.16515   0.00000  Uiso   1.00
C20    C     0.12009   0.54846   0.22993   0.00000  Uiso   1.00
C21    C     0.09130   0.75110   0.27883   0.00000  Uiso   1.00
C22    C     0.13456   0.79486   0.28271   0.00000  Uiso   1.00
C23    C     0.13890   0.82787   0.40127   0.00000  Uiso   1.00
H24    H     0.98037   0.68256   0.44927   0.00000  Uiso   1.00
H25    H     0.88576   0.70531   0.30911   0.00000  Uiso   1.00
H26    H     0.01598   0.57386   0.47606   0.00000  Uiso   1.00
H27    H     0.02888   0.76556   0.59360   0.00000  Uiso   1.00
H28    H     0.79745   0.73510   0.10492   0.00000  Uiso   1.00
H29    H     0.07204   0.45795   0.45698   0.00000  Uiso   1.00
H30    H     0.09924   0.86218   0.70483   0.00000  Uiso   1.00
H31    H     0.10814   0.71797   0.07339   0.00000  Uiso   1.00
H32    H     0.02054   0.74266   0.91260   0.00000  Uiso   1.00
H33    H     0.15075   0.61121   0.07956   0.00000  Uiso   1.00
H34    H     0.16365   0.80291   0.19709   0.00000  Uiso   1.00
H35    H     0.90684   0.76542   0.78310   0.00000  Uiso   1.00
H36    H     0.18143   0.48826   0.13517   0.00000  Uiso   1.00
H37    H     0.20862   0.89249   0.38301   0.00000  Uiso   1.00
O38    O     0.79221   0.76585   0.84501   0.00000  Uiso   1.00
O39    O     0.15246   0.40224   0.30692   0.00000  Uiso   1.00
O40    O     0.18815   0.93258   0.63209   0.00000  Uiso   1.00
N41    N     0.83522   0.73886   0.05126   0.00000  Uiso   1.00
N42    N     0.09193   0.47973   0.38040   0.00000  Uiso   1.00
N43    N     0.11737   0.85764   0.61213   0.00000  Uiso   1.00
N44    N     0.89408   0.75517   0.87809   0.00000  Uiso   1.00
N45    N     0.15079   0.49605   0.20723   0.00000  Uiso   1.00
N46    N     0.17623   0.87396   0.43896   0.00000  Uiso   1.00
C47    C     0.50964   0.19067   0.86315   0.00000  Uiso   1.00
C48    C     0.47596   0.20795   0.73488   0.00000  Uiso   1.00
C49    C     0.41484   0.21338   0.72349   0.00000  Uiso   1.00
C50    C     0.39263   0.22962   0.59741   0.00000  Uiso   1.00
C51    C     0.33460   0.25483   0.41505   0.00000  Uiso   1.00
C52    C     0.54670   0.13653   0.82558   0.00000  Uiso   1.00
C53    C     0.54508   0.08191   0.89046   0.00000  Uiso   1.00
C54    C     0.58243   0.03803   0.84074   0.00000  Uiso   1.00
C55    C     0.63426   0.95237   0.79925   0.00000  Uiso   1.00
C56    C     0.55370   0.24068   0.88944   0.00000  Uiso   1.00
C57    C     0.55798   0.27363   0.00802   0.00000  Uiso   1.00
C58    C     0.60124   0.31744   0.01208   0.00000  Uiso   1.00
C59    C     0.66395   0.39350   0.06974   0.00000  Uiso   1.00
C60    C     0.57886   0.20986   0.65951   0.00000  Uiso   1.00
C61    C     0.51356   0.21837   0.62427   0.00000  Uiso   1.00
C62    C     0.49143   0.23460   0.49818   0.00000  Uiso   1.00
C63    C     0.43030   0.24006   0.48660   0.00000  Uiso   1.00
C64    C     0.58430   0.14694   0.71497   0.00000  Uiso   1.00
C65    C     0.62166   0.10313   0.66515   0.00000  Uiso   1.00
C66    C     0.62009   0.04846   0.72993   0.00000  Uiso   1.00
C67    C     0.59130   0.25110   0.77883   0.00000  Uiso   1.00
C68    C     0.63456   0.29486   0.78271   0.00000  Uiso   1.00
C69    C     0.63890   0.32787   0.90127   0.00000  Uiso   1.00
H70    H     0.48037   0.18256   0.94927   0.00000  Uiso   1.00
H71    H     0.38576   0.20531   0.80911   0.00000  Uiso   1.00
H72    H     0.51598   0.07386   0.97606   0.00000  Uiso   1.00
H73    H     0.52888   0.26556   0.09360   0.00000  Uiso   1.00
H74    H     0.29745   0.23510   0.60492   0.00000  Uiso   1.00
H75    H     0.57204   0.95795   0.95698   0.00000  Uiso   1.00
H76    H     0.59924   0.36218   0.20483   0.00000  Uiso   1.00
H77    H     0.60814   0.21797   0.57339   0.00000  Uiso   1.00
H78    H     0.52054   0.24266   0.41260   0.00000  Uiso   1.00
H79    H     0.65075   0.11121   0.57956   0.00000  Uiso   1.00
H80    H     0.66365   0.30291   0.69709   0.00000  Uiso   1.00
H81    H     0.40684   0.26542   0.28310   0.00000  Uiso   1.00
H82    H     0.68143   0.98826   0.63517   0.00000  Uiso   1.00
H83    H     0.70862   0.39249   0.88301   0.00000  Uiso   1.00
O84    O     0.29221   0.26585   0.34501   0.00000  Uiso   1.00
O85    O     0.65246   0.90224   0.80692   0.00000  Uiso   1.00
O86    O     0.68815   0.43258   0.13209   0.00000  Uiso   1.00
N87    N     0.33522   0.23886   0.55126   0.00000  Uiso   1.00
N88    N     0.59193   0.97973   0.88040   0.00000  Uiso   1.00
N89    N     0.61737   0.35764   0.11213   0.00000  Uiso   1.00
N90    N     0.39408   0.25517   0.37809   0.00000  Uiso   1.00
N91    N     0.65079   0.99605   0.70723   0.00000  Uiso   1.00
N92    N     0.67623   0.37396   0.93896   0.00000  Uiso   1.00
C93    C     0.99036   0.30933   0.36315   0.00000  Uiso   1.00
C94    C     0.02404   0.29205   0.23488   0.00000  Uiso   1.00
C95    C     0.08516   0.28662   0.22349   0.00000  Uiso   1.00
C96    C     0.10737   0.27038   0.09741   0.00000  Uiso   1.00
C97    C     0.16540   0.24517   0.91505   0.00000  Uiso   1.00
C98    C     0.95330   0.36347   0.32558   0.00000  Uiso   1.00
C99    C     0.95492   0.41809   0.39046   0.00000  Uiso   1.00
C100   C     0.91757   0.46197   0.34074   0.00000  Uiso   1.00
C101   C     0.86574   0.54763   0.29925   0.00000  Uiso   1.00
C102   C     0.94630   0.25932   0.38944   0.00000  Uiso   1.00
C103   C     0.94202   0.22637   0.50802   0.00000  Uiso   1.00
C104   C     0.89876   0.18256   0.51208   0.00000  Uiso   1.00
C105   C     0.83605   0.10650   0.56974   0.00000  Uiso   1.00
C106   C     0.92114   0.29014   0.15951   0.00000  Uiso   1.00
C107   C     0.98644   0.28163   0.12427   0.00000  Uiso   1.00
C108   C     0.00857   0.26540   0.99818   0.00000  Uiso   1.00
C109   C     0.06970   0.25994   0.98660   0.00000  Uiso   1.00
C110   C     0.91570   0.35306   0.21497   0.00000  Uiso   1.00
C111   C     0.87834   0.39687   0.16515   0.00000  Uiso   1.00
C112   C     0.87991   0.45154   0.22993   0.00000  Uiso   1.00
C113   C     0.90870   0.24890   0.27883   0.00000  Uiso   1.00
C114   C     0.86544   0.20514   0.28271   0.00000  Uiso   1.00
C115   C     0.86110   0.17213   0.40127   0.00000  Uiso   1.00
H116   H     0.01963   0.31744   0.44927   0.00000  Uiso   1.00
H117   H     0.11424   0.29469   0.30911   0.00000  Uiso   1.00
H118   H     0.98402   0.42614   0.47606   0.00000  Uiso   1.00
H119   H     0.97112   0.23444   0.59360   0.00000  Uiso   1.00
H120   H     0.20255   0.26490   0.10492   0.00000  Uiso   1.00
H121   H     0.92796   0.54205   0.45698   0.00000  Uiso   1.00
H122   H     0.90076   0.13782   0.70483   0.00000  Uiso   1.00
H123   H     0.89186   0.28203   0.07339   0.00000  Uiso   1.00
H124   H     0.97946   0.25734   0.91260   0.00000  Uiso   1.00
H125   H     0.84925   0.38879   0.07956   0.00000  Uiso   1.00
H126   H     0.83635   0.19709   0.19709   0.00000  Uiso   1.00
H127   H     0.09316   0.23458   0.78310   0.00000  Uiso   1.00
H128   H     0.81857   0.51174   0.13517   0.00000  Uiso   1.00
H129   H     0.79138   0.10751   0.38301   0.00000  Uiso   1.00
O130   O     0.20779   0.23415   0.84501   0.00000  Uiso   1.00
O131   O     0.84754   0.59776   0.30692   0.00000  Uiso   1.00
O132   O     0.81185   0.06742   0.63209   0.00000  Uiso   1.00
N133   N     0.16478   0.26114   0.05126   0.00000  Uiso   1.00
N134   N     0.90807   0.52027   0.38040   0.00000  Uiso   1.00
N135   N     0.88263   0.14236   0.61213   0.00000  Uiso   1.00
N136   N     0.10592   0.24483   0.87809   0.00000  Uiso   1.00
N137   N     0.84921   0.50395   0.20723   0.00000  Uiso   1.00
N138   N     0.82377   0.12604   0.43896   0.00000  Uiso   1.00
C139   C     0.49036   0.80933   0.86315   0.00000  Uiso   1.00
C140   C     0.52404   0.79205   0.73488   0.00000  Uiso   1.00
C141   C     0.58516   0.78662   0.72349   0.00000  Uiso   1.00
C142   C     0.60737   0.77038   0.59741   0.00000  Uiso   1.00
C143   C     0.66540   0.74517   0.41505   0.00000  Uiso   1.00
C144   C     0.45330   0.86347   0.82558   0.00000  Uiso   1.00
C145   C     0.45492   0.91809   0.89046   0.00000  Uiso   1.00
C146   C     0.41757   0.96197   0.84074   0.00000  Uiso   1.00
C147   C     0.36574   0.04763   0.79925   0.00000  Uiso   1.00
C148   C     0.44630   0.75932   0.88944   0.00000  Uiso   1.00
C149   C     0.44202   0.72637   0.00802   0.00000  Uiso   1.00
C150   C     0.39876   0.68256   0.01208   0.00000  Uiso   1.00
C151   C     0.33605   0.60650   0.06974   0.00000  Uiso   1.00
C152   C     0.42114   0.79014   0.65951   0.00000  Uiso   1.00
C153   C     0.48644   0.78163   0.62427   0.00000  Uiso   1.00
C154   C     0.50857   0.76540   0.49818   0.00000  Uiso   1.00
C155   C     0.56970   0.75994   0.48660   0.00000  Uiso   1.00
C156   C     0.41570   0.85306   0.71497   0.00000  Uiso   1.00
C157   C     0.37834   0.89687   0.66515   0.00000  Uiso   1.00
C158   C     0.37991   0.95154   0.72993   0.00000  Uiso   1.00
C159   C     0.40870   0.74890   0.77883   0.00000  Uiso   1.00
C160   C     0.36544   0.70514   0.78271   0.00000  Uiso   1.00
C161   C     0.36110   0.67213   0.90127   0.00000  Uiso   1.00
H162   H     0.51963   0.81744   0.94927   0.00000  Uiso   1.00
H163   H     0.61424   0.79469   0.80911   0.00000  Uiso   1.00
H164   H     0.48402   0.92614   0.97606   0.00000  Uiso   1.00
H165   H     0.47112   0.73444   0.09360   0.00000  Uiso   1.00
H166   H     0.70255   0.76490   0.60492   0.00000  Uiso   1.00
H167   H     0.42796   0.04205   0.95698   0.00000  Uiso   1.00
H168   H     0.40076   0.63782   0.20483   0.00000  Uiso   1.00
H169   H     0.39186   0.78203   0.57339   0.00000  Uiso   1.00
H170   H     0.47946   0.75734   0.41260   0.00000  Uiso   1.00
H171   H     0.34925   0.88879   0.57956   0.00000  Uiso   1.00
H172   H     0.33635   0.69709   0.69709   0.00000  Uiso   1.00
H173   H     0.59316   0.73458   0.28310   0.00000  Uiso   1.00
H174   H     0.31857   0.01174   0.63517   0.00000  Uiso   1.00
H175   H     0.29138   0.60751   0.88301   0.00000  Uiso   1.00
O176   O     0.70779   0.73415   0.34501   0.00000  Uiso   1.00
O177   O     0.34754   0.09776   0.80692   0.00000  Uiso   1.00
O178   O     0.31185   0.56742   0.13209   0.00000  Uiso   1.00
N179   N     0.66478   0.76114   0.55126   0.00000  Uiso   1.00
N180   N     0.40807   0.02027   0.88040   0.00000  Uiso   1.00
N181   N     0.38263   0.64236   0.11213   0.00000  Uiso   1.00
N182   N     0.60592   0.74483   0.37809   0.00000  Uiso   1.00
N183   N     0.34921   0.00395   0.70723   0.00000  Uiso   1.00
N184   N     0.32377   0.62604   0.93896   0.00000  Uiso   1.00
C185   C     0.30933   0.00964   0.36315   0.00000  Uiso   1.00
C186   C     0.29205   0.97596   0.23488   0.00000  Uiso   1.00
C187   C     0.28662   0.91484   0.22349   0.00000  Uiso   1.00
C188   C     0.27038   0.89263   0.09741   0.00000  Uiso   1.00
C189   C     0.24517   0.83460   0.91505   0.00000  Uiso   1.00
C190   C     0.36347   0.04670   0.32558   0.00000  Uiso   1.00
C191   C     0.41809   0.04508   0.39046   0.00000  Uiso   1.00
C192   C     0.46197   0.08243   0.34074   0.00000  Uiso   1.00
C193   C     0.54763   0.13426   0.29925   0.00000  Uiso   1.00
C194   C     0.25932   0.05370   0.38944   0.00000  Uiso   1.00
C195   C     0.22637   0.05798   0.50802   0.00000  Uiso   1.00
C196   C     0.18256   0.10124   0.51208   0.00000  Uiso   1.00
C197   C     0.10650   0.16395   0.56974   0.00000  Uiso   1.00
C198   C     0.29014   0.07886   0.15951   0.00000  Uiso   1.00
C199   C     0.28163   0.01356   0.12427   0.00000  Uiso   1.00
C200   C     0.26540   0.99143   0.99818   0.00000  Uiso   1.00
C201   C     0.25994   0.93030   0.98660   0.00000  Uiso   1.00
C202   C     0.35306   0.08430   0.21497   0.00000  Uiso   1.00
C203   C     0.39687   0.12166   0.16515   0.00000  Uiso   1.00
C204   C     0.45154   0.12009   0.22993   0.00000  Uiso   1.00
C205   C     0.24890   0.09130   0.27883   0.00000  Uiso   1.00
C206   C     0.20514   0.13456   0.28271   0.00000  Uiso   1.00
C207   C     0.17213   0.13890   0.40127   0.00000  Uiso   1.00
H208   H     0.31744   0.98037   0.44927   0.00000  Uiso   1.00
H209   H     0.29469   0.88576   0.30911   0.00000  Uiso   1.00
H210   H     0.42614   0.01598   0.47606   0.00000  Uiso   1.00
H211   H     0.23444   0.02888   0.59360   0.00000  Uiso   1.00
H212   H     0.26490   0.79745   0.10492   0.00000  Uiso   1.00
H213   H     0.54205   0.07204   0.45698   0.00000  Uiso   1.00
H214   H     0.13782   0.09924   0.70483   0.00000  Uiso   1.00
H215   H     0.28203   0.10814   0.07339   0.00000  Uiso   1.00
H216   H     0.25734   0.02054   0.91260   0.00000  Uiso   1.00
H217   H     0.38879   0.15075   0.07956   0.00000  Uiso   1.00
H218   H     0.19709   0.16365   0.19709   0.00000  Uiso   1.00
H219   H     0.23458   0.90684   0.78310   0.00000  Uiso   1.00
H220   H     0.51174   0.18143   0.13517   0.00000  Uiso   1.00
H221   H     0.10751   0.20862   0.38301   0.00000  Uiso   1.00
O222   O     0.23415   0.79221   0.84501   0.00000  Uiso   1.00
O223   O     0.59776   0.15246   0.30692   0.00000  Uiso   1.00
O224   O     0.06742   0.18815   0.63209   0.00000  Uiso   1.00
N225   N     0.26114   0.83522   0.05126   0.00000  Uiso   1.00
N226   N     0.52027   0.09193   0.38040   0.00000  Uiso   1.00
N227   N     0.14236   0.11737   0.61213   0.00000  Uiso   1.00
N228   N     0.24483   0.89408   0.87809   0.00000  Uiso   1.00
N229   N     0.50395   0.15079   0.20723   0.00000  Uiso   1.00
N230   N     0.12604   0.17623   0.43896   0.00000  Uiso   1.00
C231   C     0.80933   0.50964   0.86315   0.00000  Uiso   1.00
C232   C     0.79205   0.47596   0.73488   0.00000  Uiso   1.00
C233   C     0.78662   0.41484   0.72349   0.00000  Uiso   1.00
C234   C     0.77038   0.39263   0.59741   0.00000  Uiso   1.00
C235   C     0.74517   0.33460   0.41505   0.00000  Uiso   1.00
C236   C     0.86347   0.54670   0.82558   0.00000  Uiso   1.00
C237   C     0.91809   0.54508   0.89046   0.00000  Uiso   1.00
C238   C     0.96197   0.58243   0.84074   0.00000  Uiso   1.00
C239   C     0.04763   0.63426   0.79925   0.00000  Uiso   1.00
C240   C     0.75932   0.55370   0.88944   0.00000  Uiso   1.00
C241   C     0.72637   0.55798   0.00802   0.00000  Uiso   1.00
C242   C     0.68256   0.60124   0.01208   0.00000  Uiso   1.00
C243   C     0.60650   0.66395   0.06974   0.00000  Uiso   1.00
C244   C     0.79014   0.57886   0.65951   0.00000  Uiso   1.00
C245   C     0.78163   0.51356   0.62427   0.00000  Uiso   1.00
C246   C     0.76540   0.49143   0.49818   0.00000  Uiso   1.00
C247   C     0.75994   0.43030   0.48660   0.00000  Uiso   1.00
C248   C     0.85306   0.58430   0.71497   0.00000  Uiso   1.00
C249   C     0.89687   0.62166   0.66515   0.00000  Uiso   1.00
C250   C     0.95154   0.62009   0.72993   0.00000  Uiso   1.00
C251   C     0.74890   0.59130   0.77883   0.00000  Uiso   1.00
C252   C     0.70514   0.63456   0.78271   0.00000  Uiso   1.00
C253   C     0.67213   0.63890   0.90127   0.00000  Uiso   1.00
H254   H     0.81744   0.48037   0.94927   0.00000  Uiso   1.00
H255   H     0.79469   0.38576   0.80911   0.00000  Uiso   1.00
H256   H     0.92614   0.51598   0.97606   0.00000  Uiso   1.00
H257   H     0.73444   0.52888   0.09360   0.00000  Uiso   1.00
H258   H     0.76490   0.29745   0.60492   0.00000  Uiso   1.00
H259   H     0.04205   0.57204   0.95698   0.00000  Uiso   1.00
H260   H     0.63782   0.59924   0.20483   0.00000  Uiso   1.00
H261   H     0.78203   0.60814   0.57339   0.00000  Uiso   1.00
H262   H     0.75734   0.52054   0.41260   0.00000  Uiso   1.00
H263   H     0.88879   0.65075   0.57956   0.00000  Uiso   1.00
H264   H     0.69709   0.66365   0.69709   0.00000  Uiso   1.00
H265   H     0.73458   0.40684   0.28310   0.00000  Uiso   1.00
H266   H     0.01174   0.68143   0.63517   0.00000  Uiso   1.00
H267   H     0.60751   0.70862   0.88301   0.00000  Uiso   1.00
O268   O     0.73415   0.29221   0.34501   0.00000  Uiso   1.00
O269   O     0.09776   0.65246   0.80692   0.00000  Uiso   1.00
O270   O     0.56742   0.68815   0.13209   0.00000  Uiso   1.00
N271   N     0.76114   0.33522   0.55126   0.00000  Uiso   1.00
N272   N     0.02027   0.59193   0.88040   0.00000  Uiso   1.00
N273   N     0.64236   0.61737   0.11213   0.00000  Uiso   1.00
N274   N     0.74483   0.39408   0.37809   0.00000  Uiso   1.00
N275   N     0.00395   0.65079   0.70723   0.00000  Uiso   1.00
N276   N     0.62604   0.67623   0.93896   0.00000  Uiso   1.00
C277   C     0.69067   0.99036   0.36315   0.00000  Uiso   1.00
C278   C     0.70795   0.02404   0.23488   0.00000  Uiso   1.00
C279   C     0.71338   0.08516   0.22349   0.00000  Uiso   1.00
C280   C     0.72962   0.10737   0.09741   0.00000  Uiso   1.00
C281   C     0.75483   0.16540   0.91505   0.00000  Uiso   1.00
C282   C     0.63653   0.95330   0.32558   0.00000  Uiso   1.00
C283   C     0.58191   0.95492   0.39046   0.00000  Uiso   1.00
C284   C     0.53803   0.91757   0.34074   0.00000  Uiso   1.00
C285   C     0.45237   0.86574   0.29925   0.00000  Uiso   1.00
C286   C     0.74068   0.94630   0.38944   0.00000  Uiso   1.00
C287   C     0.77363   0.94202   0.50802   0.00000  Uiso   1.00
C288   C     0.81744   0.89876   0.51208   0.00000  Uiso   1.00
C289   C     0.89350   0.83605   0.56974   0.00000  Uiso   1.00
C290   C     0.70986   0.92114   0.15951   0.00000  Uiso   1.00
C291   C     0.71837   0.98644   0.12427   0.00000  Uiso   1.00
C292   C     0.73460   0.00857   0.99818   0.00000  Uiso   1.00
C293   C     0.74006   0.06970   0.98660   0.00000  Uiso   1.00
C294   C     0.64694   0.91570   0.21497   0.00000  Uiso   1.00
C295   C     0.60313   0.87834   0.16515   0.00000  Uiso   1.00
C296   C     0.54846   0.87991   0.22993   0.00000  Uiso   1.00
C297   C     0.75110   0.90870   0.27883   0.00000  Uiso   1.00
C298   C     0.79486   0.86544   0.28271   0.00000  Uiso   1.00
C299   C     0.82787   0.86110   0.40127   0.00000  Uiso   1.00
H300   H     0.68256   0.01963   0.44927   0.00000  Uiso   1.00
H301   H     0.70531   0.11424   0.30911   0.00000  Uiso   1.00
H302   H     0.57386   0.98402   0.47606   0.00000  Uiso   1.00
H303   H     0.76556   0.97112   0.59360   0.00000  Uiso   1.00
H304   H     0.73510   0.20255   0.10492   0.00000  Uiso   1.00
H305   H     0.45795   0.92796   0.45698   0.00000  Uiso   1.00
H306   H     0.86218   0.90076   0.70483   0.00000  Uiso   1.00
H307   H     0.71797   0.89186   0.07339   0.00000  Uiso   1.00
H308   H     0.74266   0.97946   0.91260   0.00000  Uiso   1.00
H309   H     0.61121   0.84925   0.07956   0.00000  Uiso   1.00
H310   H     0.80291   0.83635   0.19709   0.00000  Uiso   1.00
H311   H     0.76542   0.09316   0.78310   0.00000  Uiso   1.00
H312   H     0.48826   0.81857   0.13517   0.00000  Uiso   1.00
H313   H     0.89249   0.79138   0.38301   0.00000  Uiso   1.00
O314   O     0.76585   0.20779   0.84501   0.00000  Uiso   1.00
O315   O     0.40224   0.84754   0.30692   0.00000  Uiso   1.00
O316   O     0.93258   0.81185   0.63209   0.00000  Uiso   1.00
N317   N     0.73886   0.16478   0.05126   0.00000  Uiso   1.00
N318   N     0.47973   0.90807   0.38040   0.00000  Uiso   1.00
N319   N     0.85764   0.88263   0.61213   0.00000  Uiso   1.00
N320   N     0.75517   0.10592   0.87809   0.00000  Uiso   1.00
N321   N     0.49605   0.84921   0.20723   0.00000  Uiso   1.00
N322   N     0.87396   0.82377   0.43896   0.00000  Uiso   1.00
C323   C     0.19067   0.49036   0.86315   0.00000  Uiso   1.00
C324   C     0.20795   0.52404   0.73488   0.00000  Uiso   1.00
C325   C     0.21338   0.58516   0.72349   0.00000  Uiso   1.00
C326   C     0.22962   0.60737   0.59741   0.00000  Uiso   1.00
C327   C     0.25483   0.66540   0.41505   0.00000  Uiso   1.00
C328   C     0.13653   0.45330   0.82558   0.00000  Uiso   1.00
C329   C     0.08191   0.45492   0.89046   0.00000  Uiso   1.00
C330   C     0.03803   0.41757   0.84074   0.00000  Uiso   1.00
C331   C     0.95237   0.36574   0.79925   0.00000  Uiso   1.00
C332   C     0.24068   0.44630   0.88944   0.00000  Uiso   1.00
C333   C     0.27363   0.44202   0.00802   0.00000  Uiso   1.00
C334   C     0.31744   0.39876   0.01208   0.00000  Uiso   1.00
C335   C     0.39350   0.33605   0.06974   0.00000  Uiso   1.00
C336   C     0.20986   0.42114   0.65951   0.00000  Uiso   1.00
C337   C     0.21837   0.48644   0.62427   0.00000  Uiso   1.00
C338   C     0.23460   0.50857   0.49818   0.00000  Uiso   1.00
C339   C     0.24006   0.56970   0.48660   0.00000  Uiso   1.00
C340   C     0.14694   0.41570   0.71497   0.00000  Uiso   1.00
C341   C     0.10313   0.37834   0.66515   0.00000  Uiso   1.00
C342   C     0.04846   0.37991   0.72993   0.00000  Uiso   1.00
C343   C     0.25110   0.40870   0.77883   0.00000  Uiso   1.00
C344   C     0.29486   0.36544   0.78271   0.00000  Uiso   1.00
C345   C     0.32787   0.36110   0.90127   0.00000  Uiso   1.00
H346   H     0.18256   0.51963   0.94927   0.00000  Uiso   1.00
H347   H     0.20531   0.61424   0.80911   0.00000  Uiso   1.00
H348   H     0.07386   0.48402   0.97606   0.00000  Uiso   1.00
H349   H     0.26556   0.47112   0.09360   0.00000  Uiso   1.00
H350   H     0.23510   0.70255   0.60492   0.00000  Uiso   1.00
H351   H     0.95795   0.42796   0.95698   0.00000  Uiso   1.00
H352   H     0.36218   0.40076   0.20483   0.00000  Uiso   1.00
H353   H     0.21797   0.39186   0.57339   0.00000  Uiso   1.00
H354   H     0.24266   0.47946   0.41260   0.00000  Uiso   1.00
H355   H     0.11121   0.34925   0.57956   0.00000  Uiso   1.00
H356   H     0.30291   0.33635   0.69709   0.00000  Uiso   1.00
H357   H     0.26542   0.59316   0.28310   0.00000  Uiso   1.00
H358   H     0.98826   0.31857   0.63517   0.00000  Uiso   1.00
H359   H     0.39249   0.29138   0.88301   0.00000  Uiso   1.00
O360   O     0.26585   0.70779   0.34501   0.00000  Uiso   1.00
O361   O     0.90224   0.34754   0.80692   0.00000  Uiso   1.00
O362   O     0.43258   0.31185   0.13209   0.00000  Uiso   1.00
N363   N     0.23886   0.66478   0.55126   0.00000  Uiso   1.00
N364   N     0.97973   0.40807   0.88040   0.00000  Uiso   1.00
N365   N     0.35764   0.38263   0.11213   0.00000  Uiso   1.00
N366   N     0.25517   0.60592   0.37809   0.00000  Uiso   1.00
N367   N     0.99605   0.34921   0.70723   0.00000  Uiso   1.00
N368   N     0.37396   0.32377   0.93896   0.00000  Uiso   1.00
