data_job_02257
_audit_creation_date              2018-12-19
_audit_creation_method            'Materials Studio'
_symmetry_space_group_name_H-M    'P1'
_symmetry_Int_Tables_number       1
_symmetry_cell_setting            triclinic
loop_
_symmetry_equiv_pos_as_xyz
  x,y,z
_cell_length_a                    9.9631
_cell_length_b                    31.0016
_cell_length_c                    15.1521
_cell_angle_alpha                 90.0000
_cell_angle_beta                  90.0000
_cell_angle_gamma                 90.0000
loop_
_atom_site_label
_atom_site_type_symbol
_atom_site_fract_x
_atom_site_fract_y
_atom_site_fract_z
_atom_site_U_iso_or_equiv
_atom_site_adp_type
_atom_site_occupancy
C1     C     0.22683   0.15678   0.25384   0.00000  Uiso   1.00
C2     C     0.30912   0.12877   0.31642   0.00000  Uiso   1.00
C3     C     0.32570   0.13581   0.40621   0.00000  Uiso   1.00
C4     C     0.40486   0.10649   0.45193   0.00000  Uiso   1.00
C5     C     0.52350   0.06834   0.55557   0.00000  Uiso   1.00
C6     C     0.32258   0.17059   0.18059   0.00000  Uiso   1.00
C7     C     0.35045   0.21280   0.15617   0.00000  Uiso   1.00
C8     C     0.44093   0.21869   0.08752   0.00000  Uiso   1.00
C9     C     0.58040   0.24548   0.98024   0.00000  Uiso   1.00
C10    C     0.12494   0.12673   0.21073   0.00000  Uiso   1.00
C11    C     0.98664   0.13205   0.21162   0.00000  Uiso   1.00
C12    C     0.91073   0.10102   0.16834   0.00000  Uiso   1.00
C13    C     0.74334   0.05970   0.10786   0.00000  Uiso   1.00
C14    C     0.33793   0.09220   0.17536   0.00000  Uiso   1.00
C15    C     0.36947   0.09369   0.27379   0.00000  Uiso   1.00
C16    C     0.44862   0.06436   0.31938   0.00000  Uiso   1.00
C17    C     0.46531   0.07135   0.40922   0.00000  Uiso   1.00
C18    C     0.38293   0.13552   0.13796   0.00000  Uiso   1.00
C19    C     0.47338   0.14135   0.06933   0.00000  Uiso   1.00
C20    C     0.50139   0.18355   0.04481   0.00000  Uiso   1.00
C21    C     0.18529   0.09165   0.16810   0.00000  Uiso   1.00
C22    C     0.10957   0.06060   0.12479   0.00000  Uiso   1.00
C23    C     0.97118   0.06588   0.12563   0.00000  Uiso   1.00
H24    H     0.17985   0.18409   0.28703   0.00000  Uiso   1.00
H25    H     0.27899   0.16296   0.43918   0.00000  Uiso   1.00
H26    H     0.30373   0.23993   0.18916   0.00000  Uiso   1.00
H27    H     0.93998   0.15920   0.24462   0.00000  Uiso   1.00
H28    H     0.41555   0.12407   0.58906   0.00000  Uiso   1.00
H29    H     0.46769   0.28638   0.06187   0.00000  Uiso   1.00
H30    H     0.70065   0.11614   0.17881   0.00000  Uiso   1.00
H31    H     0.38492   0.06489   0.14216   0.00000  Uiso   1.00
H32    H     0.49531   0.03722   0.28637   0.00000  Uiso   1.00
H33    H     0.52005   0.11420   0.03635   0.00000  Uiso   1.00
H34    H     0.15630   0.03346   0.09181   0.00000  Uiso   1.00
H35    H     0.59113   0.02202   0.46503   0.00000  Uiso   1.00
H36    H     0.64326   0.18433   0.93784   0.00000  Uiso   1.00
H37    H     0.87623   0.01409   0.05478   0.00000  Uiso   1.00
O38    O     0.57229   0.05700   0.62452   0.00000  Uiso   1.00
O39    O     0.64067   0.26995   0.93285   0.00000  Uiso   1.00
O40    O     0.63434   0.04659   0.08628   0.00000  Uiso   1.00
N41    N     0.44170   0.10384   0.54008   0.00000  Uiso   1.00
N42    N     0.49046   0.25560   0.04720   0.00000  Uiso   1.00
N43    N     0.77335   0.09644   0.15651   0.00000  Uiso   1.00
N44    N     0.53618   0.04893   0.47335   0.00000  Uiso   1.00
N45    N     0.58494   0.20068   0.98046   0.00000  Uiso   1.00
N46    N     0.86782   0.04153   0.08977   0.00000  Uiso   1.00
C47    C     0.27317   0.84322   0.25384   0.00000  Uiso   1.00
C48    C     0.19088   0.87123   0.31642   0.00000  Uiso   1.00
C49    C     0.17430   0.86419   0.40621   0.00000  Uiso   1.00
C50    C     0.09514   0.89351   0.45193   0.00000  Uiso   1.00
C51    C     0.97650   0.93166   0.55557   0.00000  Uiso   1.00
C52    C     0.17742   0.82941   0.18059   0.00000  Uiso   1.00
C53    C     0.14955   0.78720   0.15617   0.00000  Uiso   1.00
C54    C     0.05907   0.78131   0.08752   0.00000  Uiso   1.00
C55    C     0.91960   0.75452   0.98024   0.00000  Uiso   1.00
C56    C     0.37506   0.87327   0.21073   0.00000  Uiso   1.00
C57    C     0.51336   0.86795   0.21162   0.00000  Uiso   1.00
C58    C     0.58927   0.89898   0.16834   0.00000  Uiso   1.00
C59    C     0.75666   0.94030   0.10786   0.00000  Uiso   1.00
C60    C     0.16207   0.90780   0.17536   0.00000  Uiso   1.00
C61    C     0.13053   0.90631   0.27379   0.00000  Uiso   1.00
C62    C     0.05138   0.93564   0.31938   0.00000  Uiso   1.00
C63    C     0.03469   0.92865   0.40922   0.00000  Uiso   1.00
C64    C     0.11707   0.86448   0.13796   0.00000  Uiso   1.00
C65    C     0.02662   0.85865   0.06933   0.00000  Uiso   1.00
C66    C     0.99861   0.81645   0.04481   0.00000  Uiso   1.00
C67    C     0.31471   0.90835   0.16810   0.00000  Uiso   1.00
C68    C     0.39043   0.93940   0.12479   0.00000  Uiso   1.00
C69    C     0.52882   0.93412   0.12563   0.00000  Uiso   1.00
H70    H     0.32015   0.81591   0.28703   0.00000  Uiso   1.00
H71    H     0.22101   0.83704   0.43918   0.00000  Uiso   1.00
H72    H     0.19627   0.76007   0.18916   0.00000  Uiso   1.00
H73    H     0.56002   0.84080   0.24462   0.00000  Uiso   1.00
H74    H     0.08445   0.87593   0.58906   0.00000  Uiso   1.00
H75    H     0.03231   0.71362   0.06187   0.00000  Uiso   1.00
H76    H     0.79935   0.88386   0.17881   0.00000  Uiso   1.00
H77    H     0.11508   0.93511   0.14216   0.00000  Uiso   1.00
H78    H     0.00469   0.96278   0.28637   0.00000  Uiso   1.00
H79    H     0.97995   0.88580   0.03635   0.00000  Uiso   1.00
H80    H     0.34370   0.96654   0.09181   0.00000  Uiso   1.00
H81    H     0.90887   0.97798   0.46503   0.00000  Uiso   1.00
H82    H     0.85674   0.81567   0.93784   0.00000  Uiso   1.00
H83    H     0.62377   0.98591   0.05478   0.00000  Uiso   1.00
O84    O     0.92771   0.94300   0.62452   0.00000  Uiso   1.00
O85    O     0.85933   0.73005   0.93285   0.00000  Uiso   1.00
O86    O     0.86566   0.95341   0.08628   0.00000  Uiso   1.00
N87    N     0.05830   0.89616   0.54008   0.00000  Uiso   1.00
N88    N     0.00954   0.74440   0.04720   0.00000  Uiso   1.00
N89    N     0.72665   0.90356   0.15651   0.00000  Uiso   1.00
N90    N     0.96382   0.95107   0.47335   0.00000  Uiso   1.00
N91    N     0.91506   0.79932   0.98046   0.00000  Uiso   1.00
N92    N     0.63218   0.95847   0.08977   0.00000  Uiso   1.00
C93    C     0.27317   0.65678   0.24616   0.00000  Uiso   1.00
C94    C     0.19088   0.62877   0.18358   0.00000  Uiso   1.00
C95    C     0.17430   0.63581   0.09379   0.00000  Uiso   1.00
C96    C     0.09514   0.60649   0.04807   0.00000  Uiso   1.00
C97    C     0.97650   0.56834   0.94443   0.00000  Uiso   1.00
C98    C     0.17742   0.67059   0.31941   0.00000  Uiso   1.00
C99    C     0.14955   0.71280   0.34383   0.00000  Uiso   1.00
C100   C     0.05907   0.71869   0.41248   0.00000  Uiso   1.00
C101   C     0.91960   0.74548   0.51976   0.00000  Uiso   1.00
C102   C     0.37506   0.62673   0.28927   0.00000  Uiso   1.00
C103   C     0.51336   0.63205   0.28838   0.00000  Uiso   1.00
C104   C     0.58927   0.60102   0.33166   0.00000  Uiso   1.00
C105   C     0.75666   0.55970   0.39214   0.00000  Uiso   1.00
C106   C     0.16207   0.59220   0.32464   0.00000  Uiso   1.00
C107   C     0.13053   0.59369   0.22621   0.00000  Uiso   1.00
C108   C     0.05138   0.56436   0.18062   0.00000  Uiso   1.00
C109   C     0.03469   0.57135   0.09078   0.00000  Uiso   1.00
C110   C     0.11707   0.63552   0.36204   0.00000  Uiso   1.00
C111   C     0.02662   0.64135   0.43067   0.00000  Uiso   1.00
C112   C     0.99861   0.68355   0.45519   0.00000  Uiso   1.00
C113   C     0.31471   0.59165   0.33190   0.00000  Uiso   1.00
C114   C     0.39043   0.56060   0.37521   0.00000  Uiso   1.00
C115   C     0.52882   0.56588   0.37437   0.00000  Uiso   1.00
H116   H     0.32015   0.68409   0.21297   0.00000  Uiso   1.00
H117   H     0.22101   0.66296   0.06082   0.00000  Uiso   1.00
H118   H     0.19627   0.73993   0.31084   0.00000  Uiso   1.00
H119   H     0.56002   0.65920   0.25538   0.00000  Uiso   1.00
H120   H     0.08445   0.62407   0.91094   0.00000  Uiso   1.00
H121   H     0.03231   0.78638   0.43813   0.00000  Uiso   1.00
H122   H     0.79935   0.61614   0.32119   0.00000  Uiso   1.00
H123   H     0.11508   0.56489   0.35784   0.00000  Uiso   1.00
H124   H     0.00469   0.53722   0.21363   0.00000  Uiso   1.00
H125   H     0.97995   0.61420   0.46365   0.00000  Uiso   1.00
H126   H     0.34370   0.53346   0.40819   0.00000  Uiso   1.00
H127   H     0.90887   0.52202   0.03497   0.00000  Uiso   1.00
H128   H     0.85674   0.68433   0.56216   0.00000  Uiso   1.00
H129   H     0.62377   0.51409   0.44522   0.00000  Uiso   1.00
O130   O     0.92771   0.55700   0.87548   0.00000  Uiso   1.00
O131   O     0.85933   0.76995   0.56715   0.00000  Uiso   1.00
O132   O     0.86566   0.54659   0.41372   0.00000  Uiso   1.00
N133   N     0.05830   0.60384   0.95992   0.00000  Uiso   1.00
N134   N     0.00954   0.75560   0.45280   0.00000  Uiso   1.00
N135   N     0.72665   0.59644   0.34349   0.00000  Uiso   1.00
N136   N     0.96382   0.54893   0.02665   0.00000  Uiso   1.00
N137   N     0.91506   0.70068   0.51954   0.00000  Uiso   1.00
N138   N     0.63218   0.54153   0.41023   0.00000  Uiso   1.00
C139   C     0.22683   0.34322   0.24616   0.00000  Uiso   1.00
C140   C     0.30912   0.37123   0.18358   0.00000  Uiso   1.00
C141   C     0.32570   0.36419   0.09379   0.00000  Uiso   1.00
C142   C     0.40486   0.39351   0.04807   0.00000  Uiso   1.00
C143   C     0.52350   0.43166   0.94443   0.00000  Uiso   1.00
C144   C     0.32258   0.32941   0.31941   0.00000  Uiso   1.00
C145   C     0.35045   0.28720   0.34383   0.00000  Uiso   1.00
C146   C     0.44093   0.28131   0.41248   0.00000  Uiso   1.00
C147   C     0.58040   0.25452   0.51976   0.00000  Uiso   1.00
C148   C     0.12494   0.37327   0.28927   0.00000  Uiso   1.00
C149   C     0.98664   0.36795   0.28838   0.00000  Uiso   1.00
C150   C     0.91073   0.39898   0.33166   0.00000  Uiso   1.00
C151   C     0.74334   0.44030   0.39214   0.00000  Uiso   1.00
C152   C     0.33793   0.40780   0.32464   0.00000  Uiso   1.00
C153   C     0.36947   0.40631   0.22621   0.00000  Uiso   1.00
C154   C     0.44862   0.43564   0.18062   0.00000  Uiso   1.00
C155   C     0.46531   0.42865   0.09078   0.00000  Uiso   1.00
C156   C     0.38293   0.36448   0.36204   0.00000  Uiso   1.00
C157   C     0.47338   0.35865   0.43067   0.00000  Uiso   1.00
C158   C     0.50139   0.31645   0.45519   0.00000  Uiso   1.00
C159   C     0.18529   0.40835   0.33190   0.00000  Uiso   1.00
C160   C     0.10957   0.43940   0.37521   0.00000  Uiso   1.00
C161   C     0.97118   0.43412   0.37437   0.00000  Uiso   1.00
H162   H     0.17985   0.31591   0.21297   0.00000  Uiso   1.00
H163   H     0.27899   0.33704   0.06082   0.00000  Uiso   1.00
H164   H     0.30373   0.26007   0.31084   0.00000  Uiso   1.00
H165   H     0.93998   0.34080   0.25538   0.00000  Uiso   1.00
H166   H     0.41555   0.37593   0.91094   0.00000  Uiso   1.00
H167   H     0.46769   0.21362   0.43813   0.00000  Uiso   1.00
H168   H     0.70065   0.38386   0.32119   0.00000  Uiso   1.00
H169   H     0.38492   0.43511   0.35784   0.00000  Uiso   1.00
H170   H     0.49531   0.46278   0.21363   0.00000  Uiso   1.00
H171   H     0.52005   0.38580   0.46365   0.00000  Uiso   1.00
H172   H     0.15630   0.46654   0.40819   0.00000  Uiso   1.00
H173   H     0.59113   0.47798   0.03497   0.00000  Uiso   1.00
H174   H     0.64326   0.31567   0.56216   0.00000  Uiso   1.00
H175   H     0.87623   0.48591   0.44522   0.00000  Uiso   1.00
O176   O     0.57229   0.44300   0.87548   0.00000  Uiso   1.00
O177   O     0.64067   0.23005   0.56715   0.00000  Uiso   1.00
O178   O     0.63434   0.45341   0.41372   0.00000  Uiso   1.00
N179   N     0.44170   0.39616   0.95992   0.00000  Uiso   1.00
N180   N     0.49046   0.24440   0.45280   0.00000  Uiso   1.00
N181   N     0.77335   0.40356   0.34349   0.00000  Uiso   1.00
N182   N     0.53618   0.45107   0.02665   0.00000  Uiso   1.00
N183   N     0.58494   0.29932   0.51954   0.00000  Uiso   1.00
N184   N     0.86782   0.45847   0.41023   0.00000  Uiso   1.00
C185   C     0.77317   0.84322   0.74616   0.00000  Uiso   1.00
C186   C     0.69088   0.87123   0.68358   0.00000  Uiso   1.00
C187   C     0.67430   0.86419   0.59379   0.00000  Uiso   1.00
C188   C     0.59514   0.89351   0.54807   0.00000  Uiso   1.00
C189   C     0.47650   0.93166   0.44443   0.00000  Uiso   1.00
C190   C     0.67742   0.82941   0.81941   0.00000  Uiso   1.00
C191   C     0.64955   0.78720   0.84383   0.00000  Uiso   1.00
C192   C     0.55907   0.78131   0.91248   0.00000  Uiso   1.00
C193   C     0.41960   0.75452   0.01976   0.00000  Uiso   1.00
C194   C     0.87506   0.87327   0.78927   0.00000  Uiso   1.00
C195   C     0.01336   0.86795   0.78838   0.00000  Uiso   1.00
C196   C     0.08927   0.89898   0.83166   0.00000  Uiso   1.00
C197   C     0.25666   0.94030   0.89214   0.00000  Uiso   1.00
C198   C     0.66207   0.90780   0.82464   0.00000  Uiso   1.00
C199   C     0.63053   0.90631   0.72621   0.00000  Uiso   1.00
C200   C     0.55138   0.93564   0.68062   0.00000  Uiso   1.00
C201   C     0.53469   0.92865   0.59078   0.00000  Uiso   1.00
C202   C     0.61707   0.86448   0.86204   0.00000  Uiso   1.00
C203   C     0.52662   0.85865   0.93067   0.00000  Uiso   1.00
C204   C     0.49861   0.81645   0.95519   0.00000  Uiso   1.00
C205   C     0.81471   0.90835   0.83190   0.00000  Uiso   1.00
C206   C     0.89043   0.93940   0.87521   0.00000  Uiso   1.00
C207   C     0.02882   0.93412   0.87437   0.00000  Uiso   1.00
H208   H     0.82015   0.81591   0.71297   0.00000  Uiso   1.00
H209   H     0.72101   0.83704   0.56082   0.00000  Uiso   1.00
H210   H     0.69627   0.76007   0.81084   0.00000  Uiso   1.00
H211   H     0.06002   0.84080   0.75538   0.00000  Uiso   1.00
H212   H     0.58445   0.87593   0.41094   0.00000  Uiso   1.00
H213   H     0.53231   0.71362   0.93813   0.00000  Uiso   1.00
H214   H     0.29935   0.88386   0.82119   0.00000  Uiso   1.00
H215   H     0.61508   0.93511   0.85784   0.00000  Uiso   1.00
H216   H     0.50469   0.96278   0.71363   0.00000  Uiso   1.00
H217   H     0.47995   0.88580   0.96365   0.00000  Uiso   1.00
H218   H     0.84370   0.96654   0.90819   0.00000  Uiso   1.00
H219   H     0.40887   0.97798   0.53497   0.00000  Uiso   1.00
H220   H     0.35674   0.81567   0.06216   0.00000  Uiso   1.00
H221   H     0.12377   0.98591   0.94522   0.00000  Uiso   1.00
O222   O     0.42771   0.94300   0.37548   0.00000  Uiso   1.00
O223   O     0.35933   0.73005   0.06715   0.00000  Uiso   1.00
O224   O     0.36566   0.95341   0.91372   0.00000  Uiso   1.00
N225   N     0.55830   0.89616   0.45992   0.00000  Uiso   1.00
N226   N     0.50954   0.74440   0.95280   0.00000  Uiso   1.00
N227   N     0.22665   0.90356   0.84349   0.00000  Uiso   1.00
N228   N     0.46382   0.95107   0.52665   0.00000  Uiso   1.00
N229   N     0.41506   0.79932   0.01954   0.00000  Uiso   1.00
N230   N     0.13218   0.95847   0.91023   0.00000  Uiso   1.00
C231   C     0.72683   0.15678   0.74616   0.00000  Uiso   1.00
C232   C     0.80912   0.12877   0.68358   0.00000  Uiso   1.00
C233   C     0.82570   0.13581   0.59379   0.00000  Uiso   1.00
C234   C     0.90486   0.10649   0.54807   0.00000  Uiso   1.00
C235   C     0.02350   0.06834   0.44443   0.00000  Uiso   1.00
C236   C     0.82258   0.17059   0.81941   0.00000  Uiso   1.00
C237   C     0.85045   0.21280   0.84383   0.00000  Uiso   1.00
C238   C     0.94093   0.21869   0.91248   0.00000  Uiso   1.00
C239   C     0.08040   0.24548   0.01976   0.00000  Uiso   1.00
C240   C     0.62494   0.12673   0.78927   0.00000  Uiso   1.00
C241   C     0.48664   0.13205   0.78838   0.00000  Uiso   1.00
C242   C     0.41073   0.10102   0.83166   0.00000  Uiso   1.00
C243   C     0.24334   0.05970   0.89214   0.00000  Uiso   1.00
C244   C     0.83793   0.09220   0.82464   0.00000  Uiso   1.00
C245   C     0.86947   0.09369   0.72621   0.00000  Uiso   1.00
C246   C     0.94862   0.06436   0.68062   0.00000  Uiso   1.00
C247   C     0.96531   0.07135   0.59078   0.00000  Uiso   1.00
C248   C     0.88293   0.13552   0.86204   0.00000  Uiso   1.00
C249   C     0.97338   0.14135   0.93067   0.00000  Uiso   1.00
C250   C     0.00139   0.18355   0.95519   0.00000  Uiso   1.00
C251   C     0.68529   0.09165   0.83190   0.00000  Uiso   1.00
C252   C     0.60957   0.06060   0.87521   0.00000  Uiso   1.00
C253   C     0.47118   0.06588   0.87437   0.00000  Uiso   1.00
H254   H     0.67985   0.18409   0.71297   0.00000  Uiso   1.00
H255   H     0.77899   0.16296   0.56082   0.00000  Uiso   1.00
H256   H     0.80373   0.23993   0.81084   0.00000  Uiso   1.00
H257   H     0.43998   0.15920   0.75538   0.00000  Uiso   1.00
H258   H     0.91555   0.12407   0.41094   0.00000  Uiso   1.00
H259   H     0.96769   0.28638   0.93813   0.00000  Uiso   1.00
H260   H     0.20065   0.11614   0.82119   0.00000  Uiso   1.00
H261   H     0.88492   0.06489   0.85784   0.00000  Uiso   1.00
H262   H     0.99531   0.03722   0.71363   0.00000  Uiso   1.00
H263   H     0.02005   0.11420   0.96365   0.00000  Uiso   1.00
H264   H     0.65630   0.03346   0.90819   0.00000  Uiso   1.00
H265   H     0.09113   0.02202   0.53497   0.00000  Uiso   1.00
H266   H     0.14326   0.18433   0.06216   0.00000  Uiso   1.00
H267   H     0.37623   0.01409   0.94522   0.00000  Uiso   1.00
O268   O     0.07229   0.05700   0.37548   0.00000  Uiso   1.00
O269   O     0.14067   0.26995   0.06715   0.00000  Uiso   1.00
O270   O     0.13434   0.04659   0.91372   0.00000  Uiso   1.00
N271   N     0.94170   0.10384   0.45992   0.00000  Uiso   1.00
N272   N     0.99046   0.25560   0.95280   0.00000  Uiso   1.00
N273   N     0.27335   0.09644   0.84349   0.00000  Uiso   1.00
N274   N     0.03618   0.04893   0.52665   0.00000  Uiso   1.00
N275   N     0.08494   0.20068   0.01954   0.00000  Uiso   1.00
N276   N     0.36782   0.04153   0.91023   0.00000  Uiso   1.00
C277   C     0.72683   0.34322   0.75384   0.00000  Uiso   1.00
C278   C     0.80912   0.37123   0.81642   0.00000  Uiso   1.00
C279   C     0.82570   0.36419   0.90621   0.00000  Uiso   1.00
C280   C     0.90486   0.39351   0.95193   0.00000  Uiso   1.00
C281   C     0.02350   0.43166   0.05557   0.00000  Uiso   1.00
C282   C     0.82258   0.32941   0.68059   0.00000  Uiso   1.00
C283   C     0.85045   0.28720   0.65617   0.00000  Uiso   1.00
C284   C     0.94093   0.28131   0.58752   0.00000  Uiso   1.00
C285   C     0.08040   0.25452   0.48024   0.00000  Uiso   1.00
C286   C     0.62494   0.37327   0.71073   0.00000  Uiso   1.00
C287   C     0.48664   0.36795   0.71162   0.00000  Uiso   1.00
C288   C     0.41073   0.39898   0.66834   0.00000  Uiso   1.00
C289   C     0.24334   0.44030   0.60786   0.00000  Uiso   1.00
C290   C     0.83793   0.40780   0.67536   0.00000  Uiso   1.00
C291   C     0.86947   0.40631   0.77379   0.00000  Uiso   1.00
C292   C     0.94862   0.43564   0.81938   0.00000  Uiso   1.00
C293   C     0.96531   0.42865   0.90922   0.00000  Uiso   1.00
C294   C     0.88293   0.36448   0.63796   0.00000  Uiso   1.00
C295   C     0.97338   0.35865   0.56933   0.00000  Uiso   1.00
C296   C     0.00139   0.31645   0.54481   0.00000  Uiso   1.00
C297   C     0.68529   0.40835   0.66810   0.00000  Uiso   1.00
C298   C     0.60957   0.43940   0.62479   0.00000  Uiso   1.00
C299   C     0.47118   0.43412   0.62563   0.00000  Uiso   1.00
H300   H     0.67985   0.31591   0.78703   0.00000  Uiso   1.00
H301   H     0.77899   0.33704   0.93918   0.00000  Uiso   1.00
H302   H     0.80373   0.26007   0.68916   0.00000  Uiso   1.00
H303   H     0.43998   0.34080   0.74462   0.00000  Uiso   1.00
H304   H     0.91555   0.37593   0.08906   0.00000  Uiso   1.00
H305   H     0.96769   0.21362   0.56187   0.00000  Uiso   1.00
H306   H     0.20065   0.38386   0.67881   0.00000  Uiso   1.00
H307   H     0.88492   0.43511   0.64216   0.00000  Uiso   1.00
H308   H     0.99531   0.46278   0.78637   0.00000  Uiso   1.00
H309   H     0.02005   0.38580   0.53635   0.00000  Uiso   1.00
H310   H     0.65630   0.46654   0.59181   0.00000  Uiso   1.00
H311   H     0.09113   0.47798   0.96503   0.00000  Uiso   1.00
H312   H     0.14326   0.31567   0.43784   0.00000  Uiso   1.00
H313   H     0.37623   0.48591   0.55478   0.00000  Uiso   1.00
O314   O     0.07229   0.44300   0.12452   0.00000  Uiso   1.00
O315   O     0.14067   0.23005   0.43285   0.00000  Uiso   1.00
O316   O     0.13434   0.45341   0.58628   0.00000  Uiso   1.00
N317   N     0.94170   0.39616   0.04008   0.00000  Uiso   1.00
N318   N     0.99046   0.24440   0.54720   0.00000  Uiso   1.00
N319   N     0.27335   0.40356   0.65651   0.00000  Uiso   1.00
N320   N     0.03618   0.45107   0.97335   0.00000  Uiso   1.00
N321   N     0.08494   0.29932   0.48046   0.00000  Uiso   1.00
N322   N     0.36782   0.45847   0.58977   0.00000  Uiso   1.00
C323   C     0.77317   0.65678   0.75384   0.00000  Uiso   1.00
C324   C     0.69088   0.62877   0.81642   0.00000  Uiso   1.00
C325   C     0.67430   0.63581   0.90621   0.00000  Uiso   1.00
C326   C     0.59514   0.60649   0.95193   0.00000  Uiso   1.00
C327   C     0.47650   0.56834   0.05557   0.00000  Uiso   1.00
C328   C     0.67742   0.67059   0.68059   0.00000  Uiso   1.00
C329   C     0.64955   0.71280   0.65617   0.00000  Uiso   1.00
C330   C     0.55907   0.71869   0.58752   0.00000  Uiso   1.00
C331   C     0.41960   0.74548   0.48024   0.00000  Uiso   1.00
C332   C     0.87506   0.62673   0.71073   0.00000  Uiso   1.00
C333   C     0.01336   0.63205   0.71162   0.00000  Uiso   1.00
C334   C     0.08927   0.60102   0.66834   0.00000  Uiso   1.00
C335   C     0.25666   0.55970   0.60786   0.00000  Uiso   1.00
C336   C     0.66207   0.59220   0.67536   0.00000  Uiso   1.00
C337   C     0.63053   0.59369   0.77379   0.00000  Uiso   1.00
C338   C     0.55138   0.56436   0.81938   0.00000  Uiso   1.00
C339   C     0.53469   0.57135   0.90922   0.00000  Uiso   1.00
C340   C     0.61707   0.63552   0.63796   0.00000  Uiso   1.00
C341   C     0.52662   0.64135   0.56933   0.00000  Uiso   1.00
C342   C     0.49861   0.68355   0.54481   0.00000  Uiso   1.00
C343   C     0.81471   0.59165   0.66810   0.00000  Uiso   1.00
C344   C     0.89043   0.56060   0.62479   0.00000  Uiso   1.00
C345   C     0.02882   0.56588   0.62563   0.00000  Uiso   1.00
H346   H     0.82015   0.68409   0.78703   0.00000  Uiso   1.00
H347   H     0.72101   0.66296   0.93918   0.00000  Uiso   1.00
H348   H     0.69627   0.73993   0.68916   0.00000  Uiso   1.00
H349   H     0.06002   0.65920   0.74462   0.00000  Uiso   1.00
H350   H     0.58445   0.62407   0.08906   0.00000  Uiso   1.00
H351   H     0.53231   0.78638   0.56187   0.00000  Uiso   1.00
H352   H     0.29935   0.61614   0.67881   0.00000  Uiso   1.00
H353   H     0.61508   0.56489   0.64216   0.00000  Uiso   1.00
H354   H     0.50469   0.53722   0.78637   0.00000  Uiso   1.00
H355   H     0.47995   0.61420   0.53635   0.00000  Uiso   1.00
H356   H     0.84370   0.53346   0.59181   0.00000  Uiso   1.00
H357   H     0.40887   0.52202   0.96503   0.00000  Uiso   1.00
H358   H     0.35674   0.68433   0.43784   0.00000  Uiso   1.00
H359   H     0.12377   0.51409   0.55478   0.00000  Uiso   1.00
O360   O     0.42771   0.55700   0.12452   0.00000  Uiso   1.00
O361   O     0.35933   0.76995   0.43285   0.00000  Uiso   1.00
O362   O     0.36566   0.54659   0.58628   0.00000  Uiso   1.00
N363   N     0.55830   0.60384   0.04008   0.00000  Uiso   1.00
N364   N     0.50954   0.75560   0.54720   0.00000  Uiso   1.00
N365   N     0.22665   0.59644   0.65651   0.00000  Uiso   1.00
N366   N     0.46382   0.54893   0.97335   0.00000  Uiso   1.00
N367   N     0.41506   0.70068   0.48046   0.00000  Uiso   1.00
N368   N     0.13218   0.54153   0.58977   0.00000  Uiso   1.00
