data_job_03458
_audit_creation_date              2018-12-19
_audit_creation_method            'Materials Studio'
_symmetry_space_group_name_H-M    'P1'
_symmetry_Int_Tables_number       1
_symmetry_cell_setting            triclinic
loop_
_symmetry_equiv_pos_as_xyz
  x,y,z
_cell_length_a                    12.9887
_cell_length_b                    23.2534
_cell_length_c                    42.4880
_cell_angle_alpha                 90.0000
_cell_angle_beta                  90.0000
_cell_angle_gamma                 90.0000
loop_
_atom_site_label
_atom_site_type_symbol
_atom_site_fract_x
_atom_site_fract_y
_atom_site_fract_z
_atom_site_U_iso_or_equiv
_atom_site_adp_type
_atom_site_occupancy
C1     C     0.44723   0.95803   0.67175   0.00000  Uiso   1.00
C2     C     0.51046   0.00612   0.68664   0.00000  Uiso   1.00
C3     C     0.47467   0.04577   0.70846   0.00000  Uiso   1.00
C4     C     0.54457   0.08642   0.71925   0.00000  Uiso   1.00
C5     C     0.62722   0.16097   0.74398   0.00000  Uiso   1.00
C6     C     0.45520   0.96675   0.63626   0.00000  Uiso   1.00
C7     C     0.37294   0.97329   0.61572   0.00000  Uiso   1.00
C8     C     0.39633   0.98078   0.58410   0.00000  Uiso   1.00
C9     C     0.39319   0.99417   0.53061   0.00000  Uiso   1.00
C10    C     0.50472   0.90236   0.67888   0.00000  Uiso   1.00
C11    C     0.46410   0.85475   0.69417   0.00000  Uiso   1.00
C12    C     0.52918   0.80803   0.69843   0.00000  Uiso   1.00
C13    C     0.60292   0.72144   0.71112   0.00000  Uiso   1.00
C14    C     0.63503   0.95969   0.65210   0.00000  Uiso   1.00
C15    C     0.61246   0.00702   0.67597   0.00000  Uiso   1.00
C16    C     0.68244   0.04761   0.68673   0.00000  Uiso   1.00
C17    C     0.64676   0.08732   0.70856   0.00000  Uiso   1.00
C18    C     0.55720   0.96766   0.62559   0.00000  Uiso   1.00
C19    C     0.58072   0.97513   0.59399   0.00000  Uiso   1.00
C20    C     0.49852   0.98169   0.57341   0.00000  Uiso   1.00
C21    C     0.60673   0.90326   0.66821   0.00000  Uiso   1.00
C22    C     0.67188   0.85660   0.67244   0.00000  Uiso   1.00
C23    C     0.63136   0.80893   0.68774   0.00000  Uiso   1.00
H24    H     0.36782   0.95733   0.68005   0.00000  Uiso   1.00
H25    H     0.39572   0.04506   0.71671   0.00000  Uiso   1.00
H26    H     0.29402   0.97259   0.62398   0.00000  Uiso   1.00
H27    H     0.38516   0.85407   0.70242   0.00000  Uiso   1.00
H28    H     0.47163   0.14275   0.75264   0.00000  Uiso   1.00
H29    H     0.25718   0.98991   0.55712   0.00000  Uiso   1.00
H30    H     0.44937   0.73999   0.72253   0.00000  Uiso   1.00
H31    H     0.71444   0.96040   0.64380   0.00000  Uiso   1.00
H32    H     0.76137   0.04830   0.67847   0.00000  Uiso   1.00
H33    H     0.65966   0.97583   0.58574   0.00000  Uiso   1.00
H34    H     0.75081   0.85731   0.66418   0.00000  Uiso   1.00
H35    H     0.76840   0.14538   0.72160   0.00000  Uiso   1.00
H36    H     0.55395   0.99254   0.52608   0.00000  Uiso   1.00
H37    H     0.74615   0.74262   0.69149   0.00000  Uiso   1.00
O38    O     0.64463   0.20185   0.76057   0.00000  Uiso   1.00
O39    O     0.36327   0.00132   0.50406   0.00000  Uiso   1.00
O40    O     0.61543   0.67343   0.72107   0.00000  Uiso   1.00
N41    N     0.53504   0.13130   0.74058   0.00000  Uiso   1.00
N42    N     0.33454   0.98841   0.55778   0.00000  Uiso   1.00
N43    N     0.51422   0.75475   0.71242   0.00000  Uiso   1.00
N44    N     0.69473   0.13271   0.72388   0.00000  Uiso   1.00
N45    N     0.49423   0.98982   0.54108   0.00000  Uiso   1.00
N46    N     0.67391   0.75616   0.69572   0.00000  Uiso   1.00
C47    C     0.05277   0.04197   0.17175   0.00000  Uiso   1.00
C48    C     0.98954   0.99388   0.18664   0.00000  Uiso   1.00
C49    C     0.02533   0.95423   0.20846   0.00000  Uiso   1.00
C50    C     0.95543   0.91358   0.21925   0.00000  Uiso   1.00
C51    C     0.87278   0.83903   0.24398   0.00000  Uiso   1.00
C52    C     0.04480   0.03325   0.13626   0.00000  Uiso   1.00
C53    C     0.12706   0.02671   0.11572   0.00000  Uiso   1.00
C54    C     0.10367   0.01922   0.08410   0.00000  Uiso   1.00
C55    C     0.10681   0.00583   0.03061   0.00000  Uiso   1.00
C56    C     0.99528   0.09764   0.17888   0.00000  Uiso   1.00
C57    C     0.03590   0.14525   0.19417   0.00000  Uiso   1.00
C58    C     0.97082   0.19197   0.19843   0.00000  Uiso   1.00
C59    C     0.89708   0.27856   0.21112   0.00000  Uiso   1.00
C60    C     0.86497   0.04031   0.15210   0.00000  Uiso   1.00
C61    C     0.88754   0.99298   0.17597   0.00000  Uiso   1.00
C62    C     0.81756   0.95239   0.18673   0.00000  Uiso   1.00
C63    C     0.85324   0.91268   0.20856   0.00000  Uiso   1.00
C64    C     0.94280   0.03234   0.12559   0.00000  Uiso   1.00
C65    C     0.91928   0.02487   0.09399   0.00000  Uiso   1.00
C66    C     0.00148   0.01831   0.07341   0.00000  Uiso   1.00
C67    C     0.89327   0.09674   0.16821   0.00000  Uiso   1.00
C68    C     0.82812   0.14340   0.17244   0.00000  Uiso   1.00
C69    C     0.86864   0.19107   0.18774   0.00000  Uiso   1.00
H70    H     0.13218   0.04267   0.18005   0.00000  Uiso   1.00
H71    H     0.10428   0.95494   0.21671   0.00000  Uiso   1.00
H72    H     0.20598   0.02741   0.12398   0.00000  Uiso   1.00
H73    H     0.11484   0.14593   0.20242   0.00000  Uiso   1.00
H74    H     0.02837   0.85725   0.25264   0.00000  Uiso   1.00
H75    H     0.24282   0.01009   0.05712   0.00000  Uiso   1.00
H76    H     0.05063   0.26001   0.22253   0.00000  Uiso   1.00
H77    H     0.78556   0.03960   0.14380   0.00000  Uiso   1.00
H78    H     0.73863   0.95170   0.17847   0.00000  Uiso   1.00
H79    H     0.84034   0.02417   0.08574   0.00000  Uiso   1.00
H80    H     0.74919   0.14269   0.16418   0.00000  Uiso   1.00
H81    H     0.73160   0.85462   0.22160   0.00000  Uiso   1.00
H82    H     0.94605   0.00746   0.02608   0.00000  Uiso   1.00
H83    H     0.75385   0.25738   0.19149   0.00000  Uiso   1.00
O84    O     0.85537   0.79815   0.26057   0.00000  Uiso   1.00
O85    O     0.13673   0.99868   0.00406   0.00000  Uiso   1.00
O86    O     0.88457   0.32657   0.22107   0.00000  Uiso   1.00
N87    N     0.96496   0.86870   0.24058   0.00000  Uiso   1.00
N88    N     0.16546   0.01159   0.05778   0.00000  Uiso   1.00
N89    N     0.98578   0.24525   0.21242   0.00000  Uiso   1.00
N90    N     0.80527   0.86729   0.22388   0.00000  Uiso   1.00
N91    N     0.00577   0.01018   0.04108   0.00000  Uiso   1.00
N92    N     0.82609   0.24384   0.19572   0.00000  Uiso   1.00
C93    C     0.55277   0.45803   0.82825   0.00000  Uiso   1.00
C94    C     0.48954   0.50612   0.81336   0.00000  Uiso   1.00
C95    C     0.52533   0.54577   0.79154   0.00000  Uiso   1.00
C96    C     0.45543   0.58642   0.78075   0.00000  Uiso   1.00
C97    C     0.37278   0.66097   0.75602   0.00000  Uiso   1.00
C98    C     0.54480   0.46675   0.86374   0.00000  Uiso   1.00
C99    C     0.62706   0.47329   0.88428   0.00000  Uiso   1.00
C100   C     0.60367   0.48078   0.91590   0.00000  Uiso   1.00
C101   C     0.60681   0.49417   0.96939   0.00000  Uiso   1.00
C102   C     0.49528   0.40236   0.82112   0.00000  Uiso   1.00
C103   C     0.53590   0.35475   0.80583   0.00000  Uiso   1.00
C104   C     0.47082   0.30803   0.80157   0.00000  Uiso   1.00
C105   C     0.39708   0.22144   0.78888   0.00000  Uiso   1.00
C106   C     0.36497   0.45969   0.84790   0.00000  Uiso   1.00
C107   C     0.38754   0.50702   0.82403   0.00000  Uiso   1.00
C108   C     0.31756   0.54761   0.81327   0.00000  Uiso   1.00
C109   C     0.35324   0.58732   0.79144   0.00000  Uiso   1.00
C110   C     0.44280   0.46766   0.87441   0.00000  Uiso   1.00
C111   C     0.41928   0.47513   0.90601   0.00000  Uiso   1.00
C112   C     0.50148   0.48169   0.92659   0.00000  Uiso   1.00
C113   C     0.39327   0.40326   0.83179   0.00000  Uiso   1.00
C114   C     0.32812   0.35660   0.82756   0.00000  Uiso   1.00
C115   C     0.36864   0.30893   0.81226   0.00000  Uiso   1.00
H116   H     0.63218   0.45733   0.81995   0.00000  Uiso   1.00
H117   H     0.60428   0.54506   0.78329   0.00000  Uiso   1.00
H118   H     0.70598   0.47259   0.87602   0.00000  Uiso   1.00
H119   H     0.61484   0.35407   0.79758   0.00000  Uiso   1.00
H120   H     0.52837   0.64275   0.74736   0.00000  Uiso   1.00
H121   H     0.74282   0.48991   0.94288   0.00000  Uiso   1.00
H122   H     0.55063   0.23999   0.77747   0.00000  Uiso   1.00
H123   H     0.28556   0.46040   0.85620   0.00000  Uiso   1.00
H124   H     0.23863   0.54830   0.82153   0.00000  Uiso   1.00
H125   H     0.34034   0.47583   0.91426   0.00000  Uiso   1.00
H126   H     0.24919   0.35731   0.83582   0.00000  Uiso   1.00
H127   H     0.23160   0.64538   0.77840   0.00000  Uiso   1.00
H128   H     0.44605   0.49254   0.97392   0.00000  Uiso   1.00
H129   H     0.25385   0.24262   0.80851   0.00000  Uiso   1.00
O130   O     0.35537   0.70185   0.73943   0.00000  Uiso   1.00
O131   O     0.63673   0.50132   0.99594   0.00000  Uiso   1.00
O132   O     0.38457   0.17343   0.77893   0.00000  Uiso   1.00
N133   N     0.46496   0.63130   0.75942   0.00000  Uiso   1.00
N134   N     0.66546   0.48841   0.94222   0.00000  Uiso   1.00
N135   N     0.48578   0.25475   0.78758   0.00000  Uiso   1.00
N136   N     0.30527   0.63271   0.77612   0.00000  Uiso   1.00
N137   N     0.50577   0.48982   0.95892   0.00000  Uiso   1.00
N138   N     0.32609   0.25616   0.80428   0.00000  Uiso   1.00
C139   C     0.94723   0.54197   0.32825   0.00000  Uiso   1.00
C140   C     0.01046   0.49388   0.31336   0.00000  Uiso   1.00
C141   C     0.97467   0.45423   0.29154   0.00000  Uiso   1.00
C142   C     0.04457   0.41358   0.28075   0.00000  Uiso   1.00
C143   C     0.12722   0.33903   0.25602   0.00000  Uiso   1.00
C144   C     0.95520   0.53325   0.36374   0.00000  Uiso   1.00
C145   C     0.87294   0.52671   0.38428   0.00000  Uiso   1.00
C146   C     0.89633   0.51922   0.41590   0.00000  Uiso   1.00
C147   C     0.89319   0.50583   0.46939   0.00000  Uiso   1.00
C148   C     0.00472   0.59764   0.32112   0.00000  Uiso   1.00
C149   C     0.96410   0.64525   0.30583   0.00000  Uiso   1.00
C150   C     0.02918   0.69197   0.30157   0.00000  Uiso   1.00
C151   C     0.10292   0.77856   0.28888   0.00000  Uiso   1.00
C152   C     0.13503   0.54031   0.34790   0.00000  Uiso   1.00
C153   C     0.11246   0.49298   0.32403   0.00000  Uiso   1.00
C154   C     0.18244   0.45239   0.31327   0.00000  Uiso   1.00
C155   C     0.14676   0.41268   0.29144   0.00000  Uiso   1.00
C156   C     0.05720   0.53234   0.37441   0.00000  Uiso   1.00
C157   C     0.08072   0.52487   0.40601   0.00000  Uiso   1.00
C158   C     0.99852   0.51831   0.42659   0.00000  Uiso   1.00
C159   C     0.10673   0.59674   0.33179   0.00000  Uiso   1.00
C160   C     0.17188   0.64340   0.32756   0.00000  Uiso   1.00
C161   C     0.13136   0.69107   0.31226   0.00000  Uiso   1.00
H162   H     0.86782   0.54267   0.31995   0.00000  Uiso   1.00
H163   H     0.89572   0.45494   0.28329   0.00000  Uiso   1.00
H164   H     0.79402   0.52741   0.37602   0.00000  Uiso   1.00
H165   H     0.88516   0.64593   0.29758   0.00000  Uiso   1.00
H166   H     0.97163   0.35725   0.24736   0.00000  Uiso   1.00
H167   H     0.75718   0.51009   0.44288   0.00000  Uiso   1.00
H168   H     0.94937   0.76001   0.27747   0.00000  Uiso   1.00
H169   H     0.21444   0.53960   0.35620   0.00000  Uiso   1.00
H170   H     0.26137   0.45170   0.32153   0.00000  Uiso   1.00
H171   H     0.15966   0.52417   0.41426   0.00000  Uiso   1.00
H172   H     0.25081   0.64269   0.33582   0.00000  Uiso   1.00
H173   H     0.26840   0.35462   0.27840   0.00000  Uiso   1.00
H174   H     0.05395   0.50746   0.47392   0.00000  Uiso   1.00
H175   H     0.24615   0.75738   0.30851   0.00000  Uiso   1.00
O176   O     0.14463   0.29815   0.23943   0.00000  Uiso   1.00
O177   O     0.86327   0.49868   0.49594   0.00000  Uiso   1.00
O178   O     0.11543   0.82657   0.27893   0.00000  Uiso   1.00
N179   N     0.03504   0.36870   0.25942   0.00000  Uiso   1.00
N180   N     0.83454   0.51159   0.44222   0.00000  Uiso   1.00
N181   N     0.01422   0.74525   0.28758   0.00000  Uiso   1.00
N182   N     0.19473   0.36729   0.27612   0.00000  Uiso   1.00
N183   N     0.99423   0.51018   0.45892   0.00000  Uiso   1.00
N184   N     0.17391   0.74384   0.30428   0.00000  Uiso   1.00
C185   C     0.55277   0.04197   0.32825   0.00000  Uiso   1.00
C186   C     0.48954   0.99388   0.31336   0.00000  Uiso   1.00
C187   C     0.52533   0.95423   0.29154   0.00000  Uiso   1.00
C188   C     0.45543   0.91358   0.28075   0.00000  Uiso   1.00
C189   C     0.37278   0.83903   0.25602   0.00000  Uiso   1.00
C190   C     0.54480   0.03325   0.36374   0.00000  Uiso   1.00
C191   C     0.62706   0.02671   0.38428   0.00000  Uiso   1.00
C192   C     0.60367   0.01922   0.41590   0.00000  Uiso   1.00
C193   C     0.60681   0.00583   0.46939   0.00000  Uiso   1.00
C194   C     0.49528   0.09764   0.32112   0.00000  Uiso   1.00
C195   C     0.53590   0.14525   0.30583   0.00000  Uiso   1.00
C196   C     0.47082   0.19197   0.30157   0.00000  Uiso   1.00
C197   C     0.39708   0.27856   0.28888   0.00000  Uiso   1.00
C198   C     0.36497   0.04031   0.34790   0.00000  Uiso   1.00
C199   C     0.38754   0.99298   0.32403   0.00000  Uiso   1.00
C200   C     0.31756   0.95239   0.31327   0.00000  Uiso   1.00
C201   C     0.35324   0.91268   0.29144   0.00000  Uiso   1.00
C202   C     0.44280   0.03234   0.37441   0.00000  Uiso   1.00
C203   C     0.41928   0.02487   0.40601   0.00000  Uiso   1.00
C204   C     0.50148   0.01831   0.42659   0.00000  Uiso   1.00
C205   C     0.39327   0.09674   0.33179   0.00000  Uiso   1.00
C206   C     0.32812   0.14340   0.32756   0.00000  Uiso   1.00
C207   C     0.36864   0.19107   0.31226   0.00000  Uiso   1.00
H208   H     0.63218   0.04267   0.31995   0.00000  Uiso   1.00
H209   H     0.60428   0.95494   0.28329   0.00000  Uiso   1.00
H210   H     0.70598   0.02741   0.37602   0.00000  Uiso   1.00
H211   H     0.61484   0.14593   0.29758   0.00000  Uiso   1.00
H212   H     0.52837   0.85725   0.24736   0.00000  Uiso   1.00
H213   H     0.74282   0.01009   0.44288   0.00000  Uiso   1.00
H214   H     0.55063   0.26001   0.27747   0.00000  Uiso   1.00
H215   H     0.28556   0.03960   0.35620   0.00000  Uiso   1.00
H216   H     0.23863   0.95170   0.32153   0.00000  Uiso   1.00
H217   H     0.34034   0.02417   0.41426   0.00000  Uiso   1.00
H218   H     0.24919   0.14269   0.33582   0.00000  Uiso   1.00
H219   H     0.23160   0.85462   0.27840   0.00000  Uiso   1.00
H220   H     0.44605   0.00746   0.47392   0.00000  Uiso   1.00
H221   H     0.25385   0.25738   0.30851   0.00000  Uiso   1.00
O222   O     0.35537   0.79815   0.23943   0.00000  Uiso   1.00
O223   O     0.63673   0.99868   0.49594   0.00000  Uiso   1.00
O224   O     0.38457   0.32657   0.27893   0.00000  Uiso   1.00
N225   N     0.46496   0.86870   0.25942   0.00000  Uiso   1.00
N226   N     0.66546   0.01159   0.44222   0.00000  Uiso   1.00
N227   N     0.48578   0.24525   0.28758   0.00000  Uiso   1.00
N228   N     0.30527   0.86729   0.27612   0.00000  Uiso   1.00
N229   N     0.50577   0.01018   0.45892   0.00000  Uiso   1.00
N230   N     0.32609   0.24384   0.30428   0.00000  Uiso   1.00
C231   C     0.94723   0.95803   0.82825   0.00000  Uiso   1.00
C232   C     0.01046   0.00612   0.81336   0.00000  Uiso   1.00
C233   C     0.97467   0.04577   0.79154   0.00000  Uiso   1.00
C234   C     0.04457   0.08642   0.78075   0.00000  Uiso   1.00
C235   C     0.12722   0.16097   0.75602   0.00000  Uiso   1.00
C236   C     0.95520   0.96675   0.86374   0.00000  Uiso   1.00
C237   C     0.87294   0.97329   0.88428   0.00000  Uiso   1.00
C238   C     0.89633   0.98078   0.91590   0.00000  Uiso   1.00
C239   C     0.89319   0.99417   0.96939   0.00000  Uiso   1.00
C240   C     0.00472   0.90236   0.82112   0.00000  Uiso   1.00
C241   C     0.96410   0.85475   0.80583   0.00000  Uiso   1.00
C242   C     0.02918   0.80803   0.80157   0.00000  Uiso   1.00
C243   C     0.10292   0.72144   0.78888   0.00000  Uiso   1.00
C244   C     0.13503   0.95969   0.84790   0.00000  Uiso   1.00
C245   C     0.11246   0.00702   0.82403   0.00000  Uiso   1.00
C246   C     0.18244   0.04761   0.81327   0.00000  Uiso   1.00
C247   C     0.14676   0.08732   0.79144   0.00000  Uiso   1.00
C248   C     0.05720   0.96766   0.87441   0.00000  Uiso   1.00
C249   C     0.08072   0.97513   0.90601   0.00000  Uiso   1.00
C250   C     0.99852   0.98169   0.92659   0.00000  Uiso   1.00
C251   C     0.10673   0.90326   0.83179   0.00000  Uiso   1.00
C252   C     0.17188   0.85660   0.82756   0.00000  Uiso   1.00
C253   C     0.13136   0.80893   0.81226   0.00000  Uiso   1.00
H254   H     0.86782   0.95733   0.81995   0.00000  Uiso   1.00
H255   H     0.89572   0.04506   0.78329   0.00000  Uiso   1.00
H256   H     0.79402   0.97259   0.87602   0.00000  Uiso   1.00
H257   H     0.88516   0.85407   0.79758   0.00000  Uiso   1.00
H258   H     0.97163   0.14275   0.74736   0.00000  Uiso   1.00
H259   H     0.75718   0.98991   0.94288   0.00000  Uiso   1.00
H260   H     0.94937   0.73999   0.77747   0.00000  Uiso   1.00
H261   H     0.21444   0.96040   0.85620   0.00000  Uiso   1.00
H262   H     0.26137   0.04830   0.82153   0.00000  Uiso   1.00
H263   H     0.15966   0.97583   0.91426   0.00000  Uiso   1.00
H264   H     0.25081   0.85731   0.83582   0.00000  Uiso   1.00
H265   H     0.26840   0.14538   0.77840   0.00000  Uiso   1.00
H266   H     0.05395   0.99254   0.97392   0.00000  Uiso   1.00
H267   H     0.24615   0.74262   0.80851   0.00000  Uiso   1.00
O268   O     0.14463   0.20185   0.73943   0.00000  Uiso   1.00
O269   O     0.86327   0.00132   0.99594   0.00000  Uiso   1.00
O270   O     0.11543   0.67343   0.77893   0.00000  Uiso   1.00
N271   N     0.03504   0.13130   0.75942   0.00000  Uiso   1.00
N272   N     0.83454   0.98841   0.94222   0.00000  Uiso   1.00
N273   N     0.01422   0.75475   0.78758   0.00000  Uiso   1.00
N274   N     0.19473   0.13271   0.77612   0.00000  Uiso   1.00
N275   N     0.99423   0.98982   0.95892   0.00000  Uiso   1.00
N276   N     0.17391   0.75616   0.80428   0.00000  Uiso   1.00
C277   C     0.44723   0.54197   0.17175   0.00000  Uiso   1.00
C278   C     0.51046   0.49388   0.18664   0.00000  Uiso   1.00
C279   C     0.47467   0.45423   0.20846   0.00000  Uiso   1.00
C280   C     0.54457   0.41358   0.21925   0.00000  Uiso   1.00
C281   C     0.62722   0.33903   0.24398   0.00000  Uiso   1.00
C282   C     0.45520   0.53325   0.13626   0.00000  Uiso   1.00
C283   C     0.37294   0.52671   0.11572   0.00000  Uiso   1.00
C284   C     0.39633   0.51922   0.08410   0.00000  Uiso   1.00
C285   C     0.39319   0.50583   0.03061   0.00000  Uiso   1.00
C286   C     0.50472   0.59764   0.17888   0.00000  Uiso   1.00
C287   C     0.46410   0.64525   0.19417   0.00000  Uiso   1.00
C288   C     0.52918   0.69197   0.19843   0.00000  Uiso   1.00
C289   C     0.60292   0.77856   0.21112   0.00000  Uiso   1.00
C290   C     0.63503   0.54031   0.15210   0.00000  Uiso   1.00
C291   C     0.61246   0.49298   0.17597   0.00000  Uiso   1.00
C292   C     0.68244   0.45239   0.18673   0.00000  Uiso   1.00
C293   C     0.64676   0.41268   0.20856   0.00000  Uiso   1.00
C294   C     0.55720   0.53234   0.12559   0.00000  Uiso   1.00
C295   C     0.58072   0.52487   0.09399   0.00000  Uiso   1.00
C296   C     0.49852   0.51831   0.07341   0.00000  Uiso   1.00
C297   C     0.60673   0.59674   0.16821   0.00000  Uiso   1.00
C298   C     0.67188   0.64340   0.17244   0.00000  Uiso   1.00
C299   C     0.63136   0.69107   0.18774   0.00000  Uiso   1.00
H300   H     0.36782   0.54267   0.18005   0.00000  Uiso   1.00
H301   H     0.39572   0.45494   0.21671   0.00000  Uiso   1.00
H302   H     0.29402   0.52741   0.12398   0.00000  Uiso   1.00
H303   H     0.38516   0.64593   0.20242   0.00000  Uiso   1.00
H304   H     0.47163   0.35725   0.25264   0.00000  Uiso   1.00
H305   H     0.25718   0.51009   0.05712   0.00000  Uiso   1.00
H306   H     0.44937   0.76001   0.22253   0.00000  Uiso   1.00
H307   H     0.71444   0.53960   0.14380   0.00000  Uiso   1.00
H308   H     0.76137   0.45170   0.17847   0.00000  Uiso   1.00
H309   H     0.65966   0.52417   0.08574   0.00000  Uiso   1.00
H310   H     0.75081   0.64269   0.16418   0.00000  Uiso   1.00
H311   H     0.76840   0.35462   0.22160   0.00000  Uiso   1.00
H312   H     0.55395   0.50746   0.02608   0.00000  Uiso   1.00
H313   H     0.74615   0.75738   0.19149   0.00000  Uiso   1.00
O314   O     0.64463   0.29815   0.26057   0.00000  Uiso   1.00
O315   O     0.36327   0.49868   0.00406   0.00000  Uiso   1.00
O316   O     0.61543   0.82657   0.22107   0.00000  Uiso   1.00
N317   N     0.53504   0.36870   0.24058   0.00000  Uiso   1.00
N318   N     0.33454   0.51159   0.05778   0.00000  Uiso   1.00
N319   N     0.51422   0.74525   0.21242   0.00000  Uiso   1.00
N320   N     0.69473   0.36729   0.22388   0.00000  Uiso   1.00
N321   N     0.49423   0.51018   0.04108   0.00000  Uiso   1.00
N322   N     0.67391   0.74384   0.19572   0.00000  Uiso   1.00
C323   C     0.05277   0.45803   0.67175   0.00000  Uiso   1.00
C324   C     0.98954   0.50612   0.68664   0.00000  Uiso   1.00
C325   C     0.02533   0.54577   0.70846   0.00000  Uiso   1.00
C326   C     0.95543   0.58642   0.71925   0.00000  Uiso   1.00
C327   C     0.87278   0.66097   0.74398   0.00000  Uiso   1.00
C328   C     0.04480   0.46675   0.63626   0.00000  Uiso   1.00
C329   C     0.12706   0.47329   0.61572   0.00000  Uiso   1.00
C330   C     0.10367   0.48078   0.58410   0.00000  Uiso   1.00
C331   C     0.10681   0.49417   0.53061   0.00000  Uiso   1.00
C332   C     0.99528   0.40236   0.67888   0.00000  Uiso   1.00
C333   C     0.03590   0.35475   0.69417   0.00000  Uiso   1.00
C334   C     0.97082   0.30803   0.69843   0.00000  Uiso   1.00
C335   C     0.89708   0.22144   0.71112   0.00000  Uiso   1.00
C336   C     0.86497   0.45969   0.65210   0.00000  Uiso   1.00
C337   C     0.88754   0.50702   0.67597   0.00000  Uiso   1.00
C338   C     0.81756   0.54761   0.68673   0.00000  Uiso   1.00
C339   C     0.85324   0.58732   0.70856   0.00000  Uiso   1.00
C340   C     0.94280   0.46766   0.62559   0.00000  Uiso   1.00
C341   C     0.91928   0.47513   0.59399   0.00000  Uiso   1.00
C342   C     0.00148   0.48169   0.57341   0.00000  Uiso   1.00
C343   C     0.89327   0.40326   0.66821   0.00000  Uiso   1.00
C344   C     0.82812   0.35660   0.67244   0.00000  Uiso   1.00
C345   C     0.86864   0.30893   0.68774   0.00000  Uiso   1.00
H346   H     0.13218   0.45733   0.68005   0.00000  Uiso   1.00
H347   H     0.10428   0.54506   0.71671   0.00000  Uiso   1.00
H348   H     0.20598   0.47259   0.62398   0.00000  Uiso   1.00
H349   H     0.11484   0.35407   0.70242   0.00000  Uiso   1.00
H350   H     0.02837   0.64275   0.75264   0.00000  Uiso   1.00
H351   H     0.24282   0.48991   0.55712   0.00000  Uiso   1.00
H352   H     0.05063   0.23999   0.72253   0.00000  Uiso   1.00
H353   H     0.78556   0.46040   0.64380   0.00000  Uiso   1.00
H354   H     0.73863   0.54830   0.67847   0.00000  Uiso   1.00
H355   H     0.84034   0.47583   0.58574   0.00000  Uiso   1.00
H356   H     0.74919   0.35731   0.66418   0.00000  Uiso   1.00
H357   H     0.73160   0.64538   0.72160   0.00000  Uiso   1.00
H358   H     0.94605   0.49254   0.52608   0.00000  Uiso   1.00
H359   H     0.75385   0.24262   0.69149   0.00000  Uiso   1.00
O360   O     0.85537   0.70185   0.76057   0.00000  Uiso   1.00
O361   O     0.13673   0.50132   0.50406   0.00000  Uiso   1.00
O362   O     0.88457   0.17343   0.72107   0.00000  Uiso   1.00
N363   N     0.96496   0.63130   0.74058   0.00000  Uiso   1.00
N364   N     0.16546   0.48841   0.55778   0.00000  Uiso   1.00
N365   N     0.98578   0.25475   0.71242   0.00000  Uiso   1.00
N366   N     0.80527   0.63271   0.72388   0.00000  Uiso   1.00
N367   N     0.00577   0.48982   0.54108   0.00000  Uiso   1.00
N368   N     0.82609   0.25616   0.69572   0.00000  Uiso   1.00
