data_job_00117
_audit_creation_date              2018-12-19
_audit_creation_method            'Materials Studio'
_symmetry_space_group_name_H-M    'P1'
_symmetry_Int_Tables_number       1
_symmetry_cell_setting            triclinic
loop_
_symmetry_equiv_pos_as_xyz
  x,y,z
_cell_length_a                    21.8760
_cell_length_b                    10.0388
_cell_length_c                    23.2954
_cell_angle_alpha                 90.0000
_cell_angle_beta                  90.0000
_cell_angle_gamma                 90.0000
loop_
_atom_site_label
_atom_site_type_symbol
_atom_site_fract_x
_atom_site_fract_y
_atom_site_fract_z
_atom_site_U_iso_or_equiv
_atom_site_adp_type
_atom_site_occupancy
C1     C     0.66719   0.03835   0.86329   0.00000  Uiso   1.00
C2     C     0.61660   0.14224   0.85846   0.00000  Uiso   1.00
C3     C     0.62470   0.27932   0.85962   0.00000  Uiso   1.00
C4     C     0.57261   0.35746   0.85459   0.00000  Uiso   1.00
C5     C     0.50287   0.52744   0.84804   0.00000  Uiso   1.00
C6     C     0.64994   0.94976   0.91394   0.00000  Uiso   1.00
C7     C     0.68608   0.92500   0.96172   0.00000  Uiso   1.00
C8     C     0.66206   0.84109   0.00339   0.00000  Uiso   1.00
C9     C     0.64411   0.71218   0.08293   0.00000  Uiso   1.00
C10    C     0.66177   0.95110   0.80995   0.00000  Uiso   1.00
C11    C     0.70787   0.92743   0.77031   0.00000  Uiso   1.00
C12    C     0.69381   0.84462   0.72443   0.00000  Uiso   1.00
C13    C     0.69423   0.71778   0.64252   0.00000  Uiso   1.00
C14    C     0.56027   0.93335   0.85231   0.00000  Uiso   1.00
C15    C     0.55852   0.08520   0.85250   0.00000  Uiso   1.00
C16    C     0.50640   0.16315   0.84747   0.00000  Uiso   1.00
C17    C     0.51443   0.30032   0.84862   0.00000  Uiso   1.00
C18    C     0.59187   0.89273   0.90798   0.00000  Uiso   1.00
C19    C     0.56779   0.80883   0.94958   0.00000  Uiso   1.00
C20    C     0.60388   0.78396   0.99741   0.00000  Uiso   1.00
C21    C     0.60369   0.89407   0.80399   0.00000  Uiso   1.00
C22    C     0.58957   0.81127   0.75816   0.00000  Uiso   1.00
C23    C     0.63563   0.78748   0.71846   0.00000  Uiso   1.00
H24    H     0.71241   0.08275   0.86793   0.00000  Uiso   1.00
H25    H     0.66965   0.32342   0.86424   0.00000  Uiso   1.00
H26    H     0.73103   0.96914   0.96632   0.00000  Uiso   1.00
H27    H     0.75280   0.97158   0.77494   0.00000  Uiso   1.00
H28    H     0.59663   0.56509   0.85753   0.00000  Uiso   1.00
H29    H     0.72606   0.81805   0.07277   0.00000  Uiso   1.00
H30    H     0.77198   0.82318   0.66920   0.00000  Uiso   1.00
H31    H     0.51505   0.88894   0.84767   0.00000  Uiso   1.00
H32    H     0.46146   0.11899   0.84286   0.00000  Uiso   1.00
H33    H     0.52284   0.76471   0.94495   0.00000  Uiso   1.00
H34    H     0.54462   0.76715   0.75356   0.00000  Uiso   1.00
H35    H     0.42766   0.39917   0.84018   0.00000  Uiso   1.00
H36    H     0.55709   0.65211   0.05542   0.00000  Uiso   1.00
H37    H     0.60301   0.65726   0.65185   0.00000  Uiso   1.00
O38    O     0.48045   0.63696   0.84608   0.00000  Uiso   1.00
O39    O     0.65026   0.65684   0.12846   0.00000  Uiso   1.00
O40    O     0.71050   0.66359   0.59899   0.00000  Uiso   1.00
N41    N     0.56422   0.49447   0.85410   0.00000  Uiso   1.00
N42    N     0.68522   0.79605   0.05534   0.00000  Uiso   1.00
N43    N     0.72816   0.80082   0.67804   0.00000  Uiso   1.00
N44    N     0.47330   0.40519   0.84476   0.00000  Uiso   1.00
N45    N     0.59430   0.70676   0.04600   0.00000  Uiso   1.00
N46    N     0.63724   0.71154   0.66871   0.00000  Uiso   1.00
C47    C     0.83281   0.46165   0.36329   0.00000  Uiso   1.00
C48    C     0.88340   0.35776   0.35846   0.00000  Uiso   1.00
C49    C     0.87530   0.22068   0.35962   0.00000  Uiso   1.00
C50    C     0.92739   0.14254   0.35459   0.00000  Uiso   1.00
C51    C     0.99713   0.97256   0.34804   0.00000  Uiso   1.00
C52    C     0.85006   0.55024   0.41394   0.00000  Uiso   1.00
C53    C     0.81392   0.57500   0.46172   0.00000  Uiso   1.00
C54    C     0.83794   0.65891   0.50339   0.00000  Uiso   1.00
C55    C     0.85589   0.78782   0.58293   0.00000  Uiso   1.00
C56    C     0.83823   0.54890   0.30995   0.00000  Uiso   1.00
C57    C     0.79213   0.57257   0.27031   0.00000  Uiso   1.00
C58    C     0.80619   0.65538   0.22443   0.00000  Uiso   1.00
C59    C     0.80577   0.78222   0.14252   0.00000  Uiso   1.00
C60    C     0.93973   0.56665   0.35231   0.00000  Uiso   1.00
C61    C     0.94148   0.41480   0.35250   0.00000  Uiso   1.00
C62    C     0.99360   0.33685   0.34747   0.00000  Uiso   1.00
C63    C     0.98557   0.19968   0.34862   0.00000  Uiso   1.00
C64    C     0.90813   0.60727   0.40798   0.00000  Uiso   1.00
C65    C     0.93221   0.69117   0.44958   0.00000  Uiso   1.00
C66    C     0.89612   0.71604   0.49741   0.00000  Uiso   1.00
C67    C     0.89631   0.60593   0.30399   0.00000  Uiso   1.00
C68    C     0.91043   0.68873   0.25816   0.00000  Uiso   1.00
C69    C     0.86437   0.71252   0.21846   0.00000  Uiso   1.00
H70    H     0.78759   0.41725   0.36793   0.00000  Uiso   1.00
H71    H     0.83035   0.17658   0.36424   0.00000  Uiso   1.00
H72    H     0.76897   0.53086   0.46632   0.00000  Uiso   1.00
H73    H     0.74720   0.52842   0.27494   0.00000  Uiso   1.00
H74    H     0.90337   0.93491   0.35753   0.00000  Uiso   1.00
H75    H     0.77394   0.68195   0.57277   0.00000  Uiso   1.00
H76    H     0.72802   0.67682   0.16920   0.00000  Uiso   1.00
H77    H     0.98495   0.61106   0.34767   0.00000  Uiso   1.00
H78    H     0.03854   0.38101   0.34286   0.00000  Uiso   1.00
H79    H     0.97716   0.73529   0.44495   0.00000  Uiso   1.00
H80    H     0.95538   0.73285   0.25356   0.00000  Uiso   1.00
H81    H     0.07234   0.10083   0.34018   0.00000  Uiso   1.00
H82    H     0.94291   0.84789   0.55542   0.00000  Uiso   1.00
H83    H     0.89699   0.84274   0.15185   0.00000  Uiso   1.00
O84    O     0.01955   0.86304   0.34608   0.00000  Uiso   1.00
O85    O     0.84974   0.84316   0.62846   0.00000  Uiso   1.00
O86    O     0.78950   0.83641   0.09899   0.00000  Uiso   1.00
N87    N     0.93578   0.00553   0.35410   0.00000  Uiso   1.00
N88    N     0.81478   0.70395   0.55534   0.00000  Uiso   1.00
N89    N     0.77184   0.69918   0.17804   0.00000  Uiso   1.00
N90    N     0.02670   0.09481   0.34476   0.00000  Uiso   1.00
N91    N     0.90570   0.79324   0.54600   0.00000  Uiso   1.00
N92    N     0.86276   0.78846   0.16871   0.00000  Uiso   1.00
C93    C     0.33281   0.03835   0.63671   0.00000  Uiso   1.00
C94    C     0.38340   0.14224   0.64154   0.00000  Uiso   1.00
C95    C     0.37530   0.27932   0.64038   0.00000  Uiso   1.00
C96    C     0.42739   0.35746   0.64541   0.00000  Uiso   1.00
C97    C     0.49713   0.52744   0.65196   0.00000  Uiso   1.00
C98    C     0.35006   0.94976   0.58606   0.00000  Uiso   1.00
C99    C     0.31392   0.92500   0.53828   0.00000  Uiso   1.00
C100   C     0.33794   0.84109   0.49661   0.00000  Uiso   1.00
C101   C     0.35589   0.71218   0.41707   0.00000  Uiso   1.00
C102   C     0.33823   0.95110   0.69005   0.00000  Uiso   1.00
C103   C     0.29213   0.92743   0.72969   0.00000  Uiso   1.00
C104   C     0.30619   0.84462   0.77557   0.00000  Uiso   1.00
C105   C     0.30577   0.71778   0.85748   0.00000  Uiso   1.00
C106   C     0.43973   0.93335   0.64769   0.00000  Uiso   1.00
C107   C     0.44148   0.08520   0.64750   0.00000  Uiso   1.00
C108   C     0.49360   0.16315   0.65253   0.00000  Uiso   1.00
C109   C     0.48557   0.30032   0.65138   0.00000  Uiso   1.00
C110   C     0.40813   0.89273   0.59202   0.00000  Uiso   1.00
C111   C     0.43221   0.80883   0.55042   0.00000  Uiso   1.00
C112   C     0.39612   0.78396   0.50259   0.00000  Uiso   1.00
C113   C     0.39631   0.89407   0.69601   0.00000  Uiso   1.00
C114   C     0.41043   0.81127   0.74184   0.00000  Uiso   1.00
C115   C     0.36437   0.78748   0.78154   0.00000  Uiso   1.00
H116   H     0.28759   0.08275   0.63207   0.00000  Uiso   1.00
H117   H     0.33035   0.32342   0.63576   0.00000  Uiso   1.00
H118   H     0.26897   0.96914   0.53368   0.00000  Uiso   1.00
H119   H     0.24720   0.97158   0.72506   0.00000  Uiso   1.00
H120   H     0.40337   0.56509   0.64247   0.00000  Uiso   1.00
H121   H     0.27394   0.81805   0.42723   0.00000  Uiso   1.00
H122   H     0.22802   0.82318   0.83080   0.00000  Uiso   1.00
H123   H     0.48495   0.88894   0.65233   0.00000  Uiso   1.00
H124   H     0.53854   0.11899   0.65714   0.00000  Uiso   1.00
H125   H     0.47716   0.76471   0.55505   0.00000  Uiso   1.00
H126   H     0.45538   0.76715   0.74644   0.00000  Uiso   1.00
H127   H     0.57234   0.39917   0.65982   0.00000  Uiso   1.00
H128   H     0.44291   0.65211   0.44458   0.00000  Uiso   1.00
H129   H     0.39699   0.65726   0.84815   0.00000  Uiso   1.00
O130   O     0.51955   0.63696   0.65392   0.00000  Uiso   1.00
O131   O     0.34974   0.65684   0.37154   0.00000  Uiso   1.00
O132   O     0.28950   0.66359   0.90101   0.00000  Uiso   1.00
N133   N     0.43578   0.49447   0.64590   0.00000  Uiso   1.00
N134   N     0.31478   0.79605   0.44466   0.00000  Uiso   1.00
N135   N     0.27184   0.80082   0.82196   0.00000  Uiso   1.00
N136   N     0.52670   0.40519   0.65524   0.00000  Uiso   1.00
N137   N     0.40570   0.70676   0.45400   0.00000  Uiso   1.00
N138   N     0.36276   0.71154   0.83129   0.00000  Uiso   1.00
C139   C     0.16719   0.46165   0.13671   0.00000  Uiso   1.00
C140   C     0.11660   0.35776   0.14154   0.00000  Uiso   1.00
C141   C     0.12470   0.22068   0.14038   0.00000  Uiso   1.00
C142   C     0.07261   0.14254   0.14541   0.00000  Uiso   1.00
C143   C     0.00287   0.97256   0.15196   0.00000  Uiso   1.00
C144   C     0.14994   0.55024   0.08606   0.00000  Uiso   1.00
C145   C     0.18608   0.57500   0.03828   0.00000  Uiso   1.00
C146   C     0.16206   0.65891   0.99661   0.00000  Uiso   1.00
C147   C     0.14411   0.78782   0.91707   0.00000  Uiso   1.00
C148   C     0.16177   0.54890   0.19005   0.00000  Uiso   1.00
C149   C     0.20787   0.57257   0.22969   0.00000  Uiso   1.00
C150   C     0.19381   0.65538   0.27557   0.00000  Uiso   1.00
C151   C     0.19423   0.78222   0.35748   0.00000  Uiso   1.00
C152   C     0.06027   0.56665   0.14769   0.00000  Uiso   1.00
C153   C     0.05852   0.41480   0.14750   0.00000  Uiso   1.00
C154   C     0.00640   0.33685   0.15253   0.00000  Uiso   1.00
C155   C     0.01443   0.19968   0.15138   0.00000  Uiso   1.00
C156   C     0.09187   0.60727   0.09202   0.00000  Uiso   1.00
C157   C     0.06779   0.69117   0.05042   0.00000  Uiso   1.00
C158   C     0.10388   0.71604   0.00259   0.00000  Uiso   1.00
C159   C     0.10369   0.60593   0.19601   0.00000  Uiso   1.00
C160   C     0.08957   0.68873   0.24184   0.00000  Uiso   1.00
C161   C     0.13563   0.71252   0.28154   0.00000  Uiso   1.00
H162   H     0.21241   0.41725   0.13207   0.00000  Uiso   1.00
H163   H     0.16965   0.17658   0.13576   0.00000  Uiso   1.00
H164   H     0.23103   0.53086   0.03368   0.00000  Uiso   1.00
H165   H     0.25280   0.52842   0.22506   0.00000  Uiso   1.00
H166   H     0.09663   0.93491   0.14247   0.00000  Uiso   1.00
H167   H     0.22606   0.68195   0.92723   0.00000  Uiso   1.00
H168   H     0.27198   0.67682   0.33080   0.00000  Uiso   1.00
H169   H     0.01505   0.61106   0.15233   0.00000  Uiso   1.00
H170   H     0.96146   0.38101   0.15714   0.00000  Uiso   1.00
H171   H     0.02284   0.73529   0.05505   0.00000  Uiso   1.00
H172   H     0.04462   0.73285   0.24644   0.00000  Uiso   1.00
H173   H     0.92766   0.10083   0.15982   0.00000  Uiso   1.00
H174   H     0.05709   0.84789   0.94458   0.00000  Uiso   1.00
H175   H     0.10301   0.84274   0.34815   0.00000  Uiso   1.00
O176   O     0.98045   0.86304   0.15392   0.00000  Uiso   1.00
O177   O     0.15026   0.84316   0.87154   0.00000  Uiso   1.00
O178   O     0.21050   0.83641   0.40101   0.00000  Uiso   1.00
N179   N     0.06422   0.00553   0.14590   0.00000  Uiso   1.00
N180   N     0.18522   0.70395   0.94466   0.00000  Uiso   1.00
N181   N     0.22816   0.69918   0.32196   0.00000  Uiso   1.00
N182   N     0.97330   0.09481   0.15524   0.00000  Uiso   1.00
N183   N     0.09430   0.79324   0.95400   0.00000  Uiso   1.00
N184   N     0.13724   0.78846   0.33129   0.00000  Uiso   1.00
C185   C     0.33281   0.96165   0.13671   0.00000  Uiso   1.00
C186   C     0.38340   0.85776   0.14154   0.00000  Uiso   1.00
C187   C     0.37530   0.72068   0.14038   0.00000  Uiso   1.00
C188   C     0.42739   0.64254   0.14541   0.00000  Uiso   1.00
C189   C     0.49713   0.47256   0.15196   0.00000  Uiso   1.00
C190   C     0.35006   0.05024   0.08606   0.00000  Uiso   1.00
C191   C     0.31392   0.07500   0.03828   0.00000  Uiso   1.00
C192   C     0.33794   0.15891   0.99661   0.00000  Uiso   1.00
C193   C     0.35589   0.28782   0.91707   0.00000  Uiso   1.00
C194   C     0.33823   0.04890   0.19005   0.00000  Uiso   1.00
C195   C     0.29213   0.07257   0.22969   0.00000  Uiso   1.00
C196   C     0.30619   0.15538   0.27557   0.00000  Uiso   1.00
C197   C     0.30577   0.28222   0.35748   0.00000  Uiso   1.00
C198   C     0.43973   0.06665   0.14769   0.00000  Uiso   1.00
C199   C     0.44148   0.91480   0.14750   0.00000  Uiso   1.00
C200   C     0.49360   0.83685   0.15253   0.00000  Uiso   1.00
C201   C     0.48557   0.69968   0.15138   0.00000  Uiso   1.00
C202   C     0.40813   0.10727   0.09202   0.00000  Uiso   1.00
C203   C     0.43221   0.19117   0.05042   0.00000  Uiso   1.00
C204   C     0.39612   0.21604   0.00259   0.00000  Uiso   1.00
C205   C     0.39631   0.10593   0.19601   0.00000  Uiso   1.00
C206   C     0.41043   0.18873   0.24184   0.00000  Uiso   1.00
C207   C     0.36437   0.21252   0.28154   0.00000  Uiso   1.00
H208   H     0.28759   0.91725   0.13207   0.00000  Uiso   1.00
H209   H     0.33035   0.67658   0.13576   0.00000  Uiso   1.00
H210   H     0.26897   0.03086   0.03368   0.00000  Uiso   1.00
H211   H     0.24720   0.02842   0.22506   0.00000  Uiso   1.00
H212   H     0.40337   0.43491   0.14247   0.00000  Uiso   1.00
H213   H     0.27394   0.18195   0.92723   0.00000  Uiso   1.00
H214   H     0.22802   0.17682   0.33080   0.00000  Uiso   1.00
H215   H     0.48495   0.11106   0.15233   0.00000  Uiso   1.00
H216   H     0.53854   0.88101   0.15714   0.00000  Uiso   1.00
H217   H     0.47716   0.23529   0.05505   0.00000  Uiso   1.00
H218   H     0.45538   0.23285   0.24644   0.00000  Uiso   1.00
H219   H     0.57234   0.60083   0.15982   0.00000  Uiso   1.00
H220   H     0.44291   0.34789   0.94458   0.00000  Uiso   1.00
H221   H     0.39699   0.34274   0.34815   0.00000  Uiso   1.00
O222   O     0.51955   0.36304   0.15392   0.00000  Uiso   1.00
O223   O     0.34974   0.34316   0.87154   0.00000  Uiso   1.00
O224   O     0.28950   0.33641   0.40101   0.00000  Uiso   1.00
N225   N     0.43578   0.50553   0.14590   0.00000  Uiso   1.00
N226   N     0.31478   0.20395   0.94466   0.00000  Uiso   1.00
N227   N     0.27184   0.19918   0.32196   0.00000  Uiso   1.00
N228   N     0.52670   0.59481   0.15524   0.00000  Uiso   1.00
N229   N     0.40570   0.29324   0.95400   0.00000  Uiso   1.00
N230   N     0.36276   0.28846   0.33129   0.00000  Uiso   1.00
C231   C     0.16719   0.53835   0.63671   0.00000  Uiso   1.00
C232   C     0.11660   0.64224   0.64154   0.00000  Uiso   1.00
C233   C     0.12470   0.77932   0.64038   0.00000  Uiso   1.00
C234   C     0.07261   0.85746   0.64541   0.00000  Uiso   1.00
C235   C     0.00287   0.02744   0.65196   0.00000  Uiso   1.00
C236   C     0.14994   0.44976   0.58606   0.00000  Uiso   1.00
C237   C     0.18608   0.42500   0.53828   0.00000  Uiso   1.00
C238   C     0.16206   0.34109   0.49661   0.00000  Uiso   1.00
C239   C     0.14411   0.21218   0.41707   0.00000  Uiso   1.00
C240   C     0.16177   0.45110   0.69005   0.00000  Uiso   1.00
C241   C     0.20787   0.42743   0.72969   0.00000  Uiso   1.00
C242   C     0.19381   0.34462   0.77557   0.00000  Uiso   1.00
C243   C     0.19423   0.21778   0.85748   0.00000  Uiso   1.00
C244   C     0.06027   0.43335   0.64769   0.00000  Uiso   1.00
C245   C     0.05852   0.58520   0.64750   0.00000  Uiso   1.00
C246   C     0.00640   0.66315   0.65253   0.00000  Uiso   1.00
C247   C     0.01443   0.80032   0.65138   0.00000  Uiso   1.00
C248   C     0.09187   0.39273   0.59202   0.00000  Uiso   1.00
C249   C     0.06779   0.30883   0.55042   0.00000  Uiso   1.00
C250   C     0.10388   0.28396   0.50259   0.00000  Uiso   1.00
C251   C     0.10369   0.39407   0.69601   0.00000  Uiso   1.00
C252   C     0.08957   0.31127   0.74184   0.00000  Uiso   1.00
C253   C     0.13563   0.28748   0.78154   0.00000  Uiso   1.00
H254   H     0.21241   0.58275   0.63207   0.00000  Uiso   1.00
H255   H     0.16965   0.82342   0.63576   0.00000  Uiso   1.00
H256   H     0.23103   0.46914   0.53368   0.00000  Uiso   1.00
H257   H     0.25280   0.47158   0.72506   0.00000  Uiso   1.00
H258   H     0.09663   0.06509   0.64247   0.00000  Uiso   1.00
H259   H     0.22606   0.31805   0.42723   0.00000  Uiso   1.00
H260   H     0.27198   0.32318   0.83080   0.00000  Uiso   1.00
H261   H     0.01505   0.38894   0.65233   0.00000  Uiso   1.00
H262   H     0.96146   0.61899   0.65714   0.00000  Uiso   1.00
H263   H     0.02284   0.26471   0.55505   0.00000  Uiso   1.00
H264   H     0.04462   0.26715   0.74644   0.00000  Uiso   1.00
H265   H     0.92766   0.89917   0.65982   0.00000  Uiso   1.00
H266   H     0.05709   0.15211   0.44458   0.00000  Uiso   1.00
H267   H     0.10301   0.15726   0.84815   0.00000  Uiso   1.00
O268   O     0.98045   0.13696   0.65392   0.00000  Uiso   1.00
O269   O     0.15026   0.15684   0.37154   0.00000  Uiso   1.00
O270   O     0.21050   0.16359   0.90101   0.00000  Uiso   1.00
N271   N     0.06422   0.99447   0.64590   0.00000  Uiso   1.00
N272   N     0.18522   0.29605   0.44466   0.00000  Uiso   1.00
N273   N     0.22816   0.30082   0.82196   0.00000  Uiso   1.00
N274   N     0.97330   0.90519   0.65524   0.00000  Uiso   1.00
N275   N     0.09430   0.20676   0.45400   0.00000  Uiso   1.00
N276   N     0.13724   0.21154   0.83129   0.00000  Uiso   1.00
C277   C     0.66719   0.96165   0.36329   0.00000  Uiso   1.00
C278   C     0.61660   0.85776   0.35846   0.00000  Uiso   1.00
C279   C     0.62470   0.72068   0.35962   0.00000  Uiso   1.00
C280   C     0.57261   0.64254   0.35459   0.00000  Uiso   1.00
C281   C     0.50287   0.47256   0.34804   0.00000  Uiso   1.00
C282   C     0.64994   0.05024   0.41394   0.00000  Uiso   1.00
C283   C     0.68608   0.07500   0.46172   0.00000  Uiso   1.00
C284   C     0.66206   0.15891   0.50339   0.00000  Uiso   1.00
C285   C     0.64411   0.28782   0.58293   0.00000  Uiso   1.00
C286   C     0.66177   0.04890   0.30995   0.00000  Uiso   1.00
C287   C     0.70787   0.07257   0.27031   0.00000  Uiso   1.00
C288   C     0.69381   0.15538   0.22443   0.00000  Uiso   1.00
C289   C     0.69423   0.28222   0.14252   0.00000  Uiso   1.00
C290   C     0.56027   0.06665   0.35231   0.00000  Uiso   1.00
C291   C     0.55852   0.91480   0.35250   0.00000  Uiso   1.00
C292   C     0.50640   0.83685   0.34747   0.00000  Uiso   1.00
C293   C     0.51443   0.69968   0.34862   0.00000  Uiso   1.00
C294   C     0.59187   0.10727   0.40798   0.00000  Uiso   1.00
C295   C     0.56779   0.19117   0.44958   0.00000  Uiso   1.00
C296   C     0.60388   0.21604   0.49741   0.00000  Uiso   1.00
C297   C     0.60369   0.10593   0.30399   0.00000  Uiso   1.00
C298   C     0.58957   0.18873   0.25816   0.00000  Uiso   1.00
C299   C     0.63563   0.21252   0.21846   0.00000  Uiso   1.00
H300   H     0.71241   0.91725   0.36793   0.00000  Uiso   1.00
H301   H     0.66965   0.67658   0.36424   0.00000  Uiso   1.00
H302   H     0.73103   0.03086   0.46632   0.00000  Uiso   1.00
H303   H     0.75280   0.02842   0.27494   0.00000  Uiso   1.00
H304   H     0.59663   0.43491   0.35753   0.00000  Uiso   1.00
H305   H     0.72606   0.18195   0.57277   0.00000  Uiso   1.00
H306   H     0.77198   0.17682   0.16920   0.00000  Uiso   1.00
H307   H     0.51505   0.11106   0.34767   0.00000  Uiso   1.00
H308   H     0.46146   0.88101   0.34286   0.00000  Uiso   1.00
H309   H     0.52284   0.23529   0.44495   0.00000  Uiso   1.00
H310   H     0.54462   0.23285   0.25356   0.00000  Uiso   1.00
H311   H     0.42766   0.60083   0.34018   0.00000  Uiso   1.00
H312   H     0.55709   0.34789   0.55542   0.00000  Uiso   1.00
H313   H     0.60301   0.34274   0.15185   0.00000  Uiso   1.00
O314   O     0.48045   0.36304   0.34608   0.00000  Uiso   1.00
O315   O     0.65026   0.34316   0.62846   0.00000  Uiso   1.00
O316   O     0.71050   0.33641   0.09899   0.00000  Uiso   1.00
N317   N     0.56422   0.50553   0.35410   0.00000  Uiso   1.00
N318   N     0.68522   0.20395   0.55534   0.00000  Uiso   1.00
N319   N     0.72816   0.19918   0.17804   0.00000  Uiso   1.00
N320   N     0.47330   0.59481   0.34476   0.00000  Uiso   1.00
N321   N     0.59430   0.29324   0.54600   0.00000  Uiso   1.00
N322   N     0.63724   0.28846   0.16871   0.00000  Uiso   1.00
C323   C     0.83281   0.53835   0.86329   0.00000  Uiso   1.00
C324   C     0.88340   0.64224   0.85846   0.00000  Uiso   1.00
C325   C     0.87530   0.77932   0.85962   0.00000  Uiso   1.00
C326   C     0.92739   0.85746   0.85459   0.00000  Uiso   1.00
C327   C     0.99713   0.02744   0.84804   0.00000  Uiso   1.00
C328   C     0.85006   0.44976   0.91394   0.00000  Uiso   1.00
C329   C     0.81392   0.42500   0.96172   0.00000  Uiso   1.00
C330   C     0.83794   0.34109   0.00339   0.00000  Uiso   1.00
C331   C     0.85589   0.21218   0.08293   0.00000  Uiso   1.00
C332   C     0.83823   0.45110   0.80995   0.00000  Uiso   1.00
C333   C     0.79213   0.42743   0.77031   0.00000  Uiso   1.00
C334   C     0.80619   0.34462   0.72443   0.00000  Uiso   1.00
C335   C     0.80577   0.21778   0.64252   0.00000  Uiso   1.00
C336   C     0.93973   0.43335   0.85231   0.00000  Uiso   1.00
C337   C     0.94148   0.58520   0.85250   0.00000  Uiso   1.00
C338   C     0.99360   0.66315   0.84747   0.00000  Uiso   1.00
C339   C     0.98557   0.80032   0.84862   0.00000  Uiso   1.00
C340   C     0.90813   0.39273   0.90798   0.00000  Uiso   1.00
C341   C     0.93221   0.30883   0.94958   0.00000  Uiso   1.00
C342   C     0.89612   0.28396   0.99741   0.00000  Uiso   1.00
C343   C     0.89631   0.39407   0.80399   0.00000  Uiso   1.00
C344   C     0.91043   0.31127   0.75816   0.00000  Uiso   1.00
C345   C     0.86437   0.28748   0.71846   0.00000  Uiso   1.00
H346   H     0.78759   0.58275   0.86793   0.00000  Uiso   1.00
H347   H     0.83035   0.82342   0.86424   0.00000  Uiso   1.00
H348   H     0.76897   0.46914   0.96632   0.00000  Uiso   1.00
H349   H     0.74720   0.47158   0.77494   0.00000  Uiso   1.00
H350   H     0.90337   0.06509   0.85753   0.00000  Uiso   1.00
H351   H     0.77394   0.31805   0.07277   0.00000  Uiso   1.00
H352   H     0.72802   0.32318   0.66920   0.00000  Uiso   1.00
H353   H     0.98495   0.38894   0.84767   0.00000  Uiso   1.00
H354   H     0.03854   0.61899   0.84286   0.00000  Uiso   1.00
H355   H     0.97716   0.26471   0.94495   0.00000  Uiso   1.00
H356   H     0.95538   0.26715   0.75356   0.00000  Uiso   1.00
H357   H     0.07234   0.89917   0.84018   0.00000  Uiso   1.00
H358   H     0.94291   0.15211   0.05542   0.00000  Uiso   1.00
H359   H     0.89699   0.15726   0.65185   0.00000  Uiso   1.00
O360   O     0.01955   0.13696   0.84608   0.00000  Uiso   1.00
O361   O     0.84974   0.15684   0.12846   0.00000  Uiso   1.00
O362   O     0.78950   0.16359   0.59899   0.00000  Uiso   1.00
N363   N     0.93578   0.99447   0.85410   0.00000  Uiso   1.00
N364   N     0.81478   0.29605   0.05534   0.00000  Uiso   1.00
N365   N     0.77184   0.30082   0.67804   0.00000  Uiso   1.00
N366   N     0.02670   0.90519   0.84476   0.00000  Uiso   1.00
N367   N     0.90570   0.20676   0.04600   0.00000  Uiso   1.00
N368   N     0.86276   0.21154   0.66871   0.00000  Uiso   1.00
