data_job_05698
_audit_creation_date              2018-12-19
_audit_creation_method            'Materials Studio'
_symmetry_space_group_name_H-M    'P1'
_symmetry_Int_Tables_number       1
_symmetry_cell_setting            triclinic
loop_
_symmetry_equiv_pos_as_xyz
  x,y,z
_cell_length_a                    27.9325
_cell_length_b                    12.5311
_cell_length_c                    13.8898
_cell_angle_alpha                 90.0000
_cell_angle_beta                  90.0000
_cell_angle_gamma                 90.0000
loop_
_atom_site_label
_atom_site_type_symbol
_atom_site_fract_x
_atom_site_fract_y
_atom_site_fract_z
_atom_site_U_iso_or_equiv
_atom_site_adp_type
_atom_site_occupancy
C1     C     0.87567   0.59186   0.94586   0.00000  Uiso   1.00
C2     C     0.89572   0.67388   0.87549   0.00000  Uiso   1.00
C3     C     0.91808   0.76887   0.90034   0.00000  Uiso   1.00
C4     C     0.93392   0.83305   0.82535   0.00000  Uiso   1.00
C5     C     0.96600   0.96497   0.73075   0.00000  Uiso   1.00
C6     C     0.82312   0.57752   0.91901   0.00000  Uiso   1.00
C7     C     0.78444   0.59148   0.98044   0.00000  Uiso   1.00
C8     C     0.73918   0.57453   0.94209   0.00000  Uiso   1.00
C9     C     0.65855   0.55678   0.91505   0.00000  Uiso   1.00
C10    C     0.90019   0.48654   0.92153   0.00000  Uiso   1.00
C11    C     0.92630   0.42398   0.98510   0.00000  Uiso   1.00
C12    C     0.94591   0.33041   0.94888   0.00000  Uiso   1.00
C13    C     0.98494   0.17139   0.92577   0.00000  Uiso   1.00
C14    C     0.86405   0.53693   0.76850   0.00000  Uiso   1.00
C15    C     0.88941   0.64405   0.77916   0.00000  Uiso   1.00
C16    C     0.90523   0.70810   0.70411   0.00000  Uiso   1.00
C17    C     0.92761   0.80316   0.72885   0.00000  Uiso   1.00
C18    C     0.81681   0.54769   0.82268   0.00000  Uiso   1.00
C19    C     0.77159   0.53071   0.78422   0.00000  Uiso   1.00
C20    C     0.73285   0.54465   0.84558   0.00000  Uiso   1.00
C21    C     0.89388   0.45670   0.82520   0.00000  Uiso   1.00
C22    C     0.91345   0.36321   0.78887   0.00000  Uiso   1.00
C23    C     0.93959   0.30052   0.85237   0.00000  Uiso   1.00
H24    H     0.88057   0.61509   0.02086   0.00000  Uiso   1.00
H25    H     0.92295   0.79194   0.97490   0.00000  Uiso   1.00
H26    H     0.78934   0.61456   0.05499   0.00000  Uiso   1.00
H27    H     0.93117   0.44709   0.05964   0.00000  Uiso   1.00
H28    H     0.96713   0.97486   0.88146   0.00000  Uiso   1.00
H29    H     0.68540   0.60083   0.05035   0.00000  Uiso   1.00
H30    H     0.98449   0.24768   0.06017   0.00000  Uiso   1.00
H31    H     0.85914   0.51370   0.69350   0.00000  Uiso   1.00
H32    H     0.90034   0.68499   0.62957   0.00000  Uiso   1.00
H33    H     0.76672   0.50762   0.70967   0.00000  Uiso   1.00
H34    H     0.90856   0.34015   0.71432   0.00000  Uiso   1.00
H35    H     0.94878   0.88807   0.60118   0.00000  Uiso   1.00
H36    H     0.66705   0.51402   0.77007   0.00000  Uiso   1.00
H37    H     0.96614   0.16088   0.77989   0.00000  Uiso   1.00
O38    O     0.98543   0.04599   0.70518   0.00000  Uiso   1.00
O39    O     0.61581   0.55525   0.92676   0.00000  Uiso   1.00
O40    O     0.00821   0.09193   0.93963   0.00000  Uiso   1.00
N41    N     0.95717   0.93092   0.82427   0.00000  Uiso   1.00
N42    N     0.69377   0.58123   0.98217   0.00000  Uiso   1.00
N43    N     0.97338   0.25105   0.99135   0.00000  Uiso   1.00
N44    N     0.94729   0.88421   0.67346   0.00000  Uiso   1.00
N45    N     0.68389   0.53453   0.83135   0.00000  Uiso   1.00
N46    N     0.96350   0.20435   0.84054   0.00000  Uiso   1.00
C47    C     0.62433   0.40814   0.44586   0.00000  Uiso   1.00
C48    C     0.60428   0.32612   0.37549   0.00000  Uiso   1.00
C49    C     0.58192   0.23113   0.40034   0.00000  Uiso   1.00
C50    C     0.56608   0.16695   0.32535   0.00000  Uiso   1.00
C51    C     0.53400   0.03503   0.23075   0.00000  Uiso   1.00
C52    C     0.67688   0.42248   0.41901   0.00000  Uiso   1.00
C53    C     0.71556   0.40852   0.48044   0.00000  Uiso   1.00
C54    C     0.76082   0.42547   0.44209   0.00000  Uiso   1.00
C55    C     0.84145   0.44322   0.41505   0.00000  Uiso   1.00
C56    C     0.59981   0.51346   0.42153   0.00000  Uiso   1.00
C57    C     0.57370   0.57602   0.48510   0.00000  Uiso   1.00
C58    C     0.55409   0.66959   0.44888   0.00000  Uiso   1.00
C59    C     0.51506   0.82861   0.42577   0.00000  Uiso   1.00
C60    C     0.63595   0.46307   0.26850   0.00000  Uiso   1.00
C61    C     0.61059   0.35595   0.27916   0.00000  Uiso   1.00
C62    C     0.59477   0.29190   0.20411   0.00000  Uiso   1.00
C63    C     0.57239   0.19684   0.22885   0.00000  Uiso   1.00
C64    C     0.68319   0.45231   0.32268   0.00000  Uiso   1.00
C65    C     0.72841   0.46929   0.28422   0.00000  Uiso   1.00
C66    C     0.76715   0.45535   0.34558   0.00000  Uiso   1.00
C67    C     0.60612   0.54330   0.32520   0.00000  Uiso   1.00
C68    C     0.58655   0.63679   0.28887   0.00000  Uiso   1.00
C69    C     0.56041   0.69948   0.35237   0.00000  Uiso   1.00
H70    H     0.61943   0.38491   0.52086   0.00000  Uiso   1.00
H71    H     0.57705   0.20806   0.47490   0.00000  Uiso   1.00
H72    H     0.71066   0.38544   0.55499   0.00000  Uiso   1.00
H73    H     0.56883   0.55291   0.55964   0.00000  Uiso   1.00
H74    H     0.53287   0.02514   0.38146   0.00000  Uiso   1.00
H75    H     0.81460   0.39917   0.55035   0.00000  Uiso   1.00
H76    H     0.51551   0.75232   0.56017   0.00000  Uiso   1.00
H77    H     0.64086   0.48630   0.19350   0.00000  Uiso   1.00
H78    H     0.59966   0.31501   0.12957   0.00000  Uiso   1.00
H79    H     0.73328   0.49238   0.20967   0.00000  Uiso   1.00
H80    H     0.59144   0.65985   0.21432   0.00000  Uiso   1.00
H81    H     0.55122   0.11193   0.10118   0.00000  Uiso   1.00
H82    H     0.83295   0.48598   0.27007   0.00000  Uiso   1.00
H83    H     0.53386   0.83912   0.27989   0.00000  Uiso   1.00
O84    O     0.51457   0.95401   0.20518   0.00000  Uiso   1.00
O85    O     0.88419   0.44475   0.42676   0.00000  Uiso   1.00
O86    O     0.49179   0.90807   0.43963   0.00000  Uiso   1.00
N87    N     0.54283   0.06908   0.32427   0.00000  Uiso   1.00
N88    N     0.80623   0.41877   0.48217   0.00000  Uiso   1.00
N89    N     0.52662   0.74895   0.49135   0.00000  Uiso   1.00
N90    N     0.55271   0.11579   0.17346   0.00000  Uiso   1.00
N91    N     0.81611   0.46547   0.33135   0.00000  Uiso   1.00
N92    N     0.53650   0.79565   0.34054   0.00000  Uiso   1.00
C93    C     0.12433   0.09186   0.55414   0.00000  Uiso   1.00
C94    C     0.10428   0.17388   0.62451   0.00000  Uiso   1.00
C95    C     0.08192   0.26887   0.59966   0.00000  Uiso   1.00
C96    C     0.06608   0.33305   0.67465   0.00000  Uiso   1.00
C97    C     0.03400   0.46497   0.76925   0.00000  Uiso   1.00
C98    C     0.17688   0.07752   0.58099   0.00000  Uiso   1.00
C99    C     0.21556   0.09148   0.51956   0.00000  Uiso   1.00
C100   C     0.26082   0.07453   0.55791   0.00000  Uiso   1.00
C101   C     0.34145   0.05678   0.58495   0.00000  Uiso   1.00
C102   C     0.09981   0.98654   0.57847   0.00000  Uiso   1.00
C103   C     0.07370   0.92398   0.51490   0.00000  Uiso   1.00
C104   C     0.05409   0.83041   0.55112   0.00000  Uiso   1.00
C105   C     0.01506   0.67139   0.57423   0.00000  Uiso   1.00
C106   C     0.13595   0.03693   0.73150   0.00000  Uiso   1.00
C107   C     0.11059   0.14405   0.72084   0.00000  Uiso   1.00
C108   C     0.09477   0.20810   0.79589   0.00000  Uiso   1.00
C109   C     0.07239   0.30316   0.77115   0.00000  Uiso   1.00
C110   C     0.18319   0.04769   0.67732   0.00000  Uiso   1.00
C111   C     0.22841   0.03071   0.71578   0.00000  Uiso   1.00
C112   C     0.26715   0.04465   0.65442   0.00000  Uiso   1.00
C113   C     0.10612   0.95670   0.67480   0.00000  Uiso   1.00
C114   C     0.08655   0.86321   0.71113   0.00000  Uiso   1.00
C115   C     0.06041   0.80052   0.64763   0.00000  Uiso   1.00
H116   H     0.11943   0.11509   0.47914   0.00000  Uiso   1.00
H117   H     0.07705   0.29194   0.52510   0.00000  Uiso   1.00
H118   H     0.21066   0.11456   0.44501   0.00000  Uiso   1.00
H119   H     0.06883   0.94709   0.44036   0.00000  Uiso   1.00
H120   H     0.03287   0.47486   0.61854   0.00000  Uiso   1.00
H121   H     0.31460   0.10083   0.44965   0.00000  Uiso   1.00
H122   H     0.01551   0.74768   0.43983   0.00000  Uiso   1.00
H123   H     0.14086   0.01370   0.80650   0.00000  Uiso   1.00
H124   H     0.09966   0.18499   0.87043   0.00000  Uiso   1.00
H125   H     0.23328   0.00762   0.79033   0.00000  Uiso   1.00
H126   H     0.09144   0.84015   0.78568   0.00000  Uiso   1.00
H127   H     0.05122   0.38807   0.89882   0.00000  Uiso   1.00
H128   H     0.33295   0.01402   0.72993   0.00000  Uiso   1.00
H129   H     0.03386   0.66088   0.72011   0.00000  Uiso   1.00
O130   O     0.01457   0.54599   0.79482   0.00000  Uiso   1.00
O131   O     0.38419   0.05525   0.57324   0.00000  Uiso   1.00
O132   O     0.99179   0.59193   0.56037   0.00000  Uiso   1.00
N133   N     0.04283   0.43092   0.67573   0.00000  Uiso   1.00
N134   N     0.30623   0.08123   0.51783   0.00000  Uiso   1.00
N135   N     0.02662   0.75105   0.50865   0.00000  Uiso   1.00
N136   N     0.05271   0.38421   0.82654   0.00000  Uiso   1.00
N137   N     0.31611   0.03453   0.66865   0.00000  Uiso   1.00
N138   N     0.03650   0.70435   0.65946   0.00000  Uiso   1.00
C139   C     0.37567   0.90814   0.05414   0.00000  Uiso   1.00
C140   C     0.39572   0.82612   0.12451   0.00000  Uiso   1.00
C141   C     0.41808   0.73113   0.09966   0.00000  Uiso   1.00
C142   C     0.43392   0.66695   0.17465   0.00000  Uiso   1.00
C143   C     0.46600   0.53503   0.26925   0.00000  Uiso   1.00
C144   C     0.32312   0.92248   0.08099   0.00000  Uiso   1.00
C145   C     0.28444   0.90852   0.01956   0.00000  Uiso   1.00
C146   C     0.23918   0.92547   0.05791   0.00000  Uiso   1.00
C147   C     0.15855   0.94322   0.08495   0.00000  Uiso   1.00
C148   C     0.40019   0.01346   0.07847   0.00000  Uiso   1.00
C149   C     0.42630   0.07602   0.01490   0.00000  Uiso   1.00
C150   C     0.44591   0.16959   0.05112   0.00000  Uiso   1.00
C151   C     0.48494   0.32861   0.07423   0.00000  Uiso   1.00
C152   C     0.36405   0.96307   0.23150   0.00000  Uiso   1.00
C153   C     0.38941   0.85595   0.22084   0.00000  Uiso   1.00
C154   C     0.40523   0.79190   0.29589   0.00000  Uiso   1.00
C155   C     0.42761   0.69684   0.27115   0.00000  Uiso   1.00
C156   C     0.31681   0.95231   0.17732   0.00000  Uiso   1.00
C157   C     0.27159   0.96929   0.21578   0.00000  Uiso   1.00
C158   C     0.23285   0.95535   0.15442   0.00000  Uiso   1.00
C159   C     0.39388   0.04330   0.17480   0.00000  Uiso   1.00
C160   C     0.41345   0.13679   0.21113   0.00000  Uiso   1.00
C161   C     0.43959   0.19948   0.14763   0.00000  Uiso   1.00
H162   H     0.38057   0.88491   0.97914   0.00000  Uiso   1.00
H163   H     0.42295   0.70806   0.02510   0.00000  Uiso   1.00
H164   H     0.28934   0.88544   0.94501   0.00000  Uiso   1.00
H165   H     0.43117   0.05291   0.94036   0.00000  Uiso   1.00
H166   H     0.46713   0.52514   0.11854   0.00000  Uiso   1.00
H167   H     0.18540   0.89917   0.94965   0.00000  Uiso   1.00
H168   H     0.48449   0.25232   0.93983   0.00000  Uiso   1.00
H169   H     0.35914   0.98630   0.30650   0.00000  Uiso   1.00
H170   H     0.40034   0.81501   0.37043   0.00000  Uiso   1.00
H171   H     0.26672   0.99238   0.29033   0.00000  Uiso   1.00
H172   H     0.40856   0.15985   0.28568   0.00000  Uiso   1.00
H173   H     0.44878   0.61193   0.39882   0.00000  Uiso   1.00
H174   H     0.16705   0.98598   0.22993   0.00000  Uiso   1.00
H175   H     0.46614   0.33912   0.22011   0.00000  Uiso   1.00
O176   O     0.48543   0.45401   0.29482   0.00000  Uiso   1.00
O177   O     0.11581   0.94475   0.07324   0.00000  Uiso   1.00
O178   O     0.50821   0.40807   0.06037   0.00000  Uiso   1.00
N179   N     0.45717   0.56908   0.17573   0.00000  Uiso   1.00
N180   N     0.19377   0.91877   0.01783   0.00000  Uiso   1.00
N181   N     0.47338   0.24895   0.00865   0.00000  Uiso   1.00
N182   N     0.44729   0.61579   0.32654   0.00000  Uiso   1.00
N183   N     0.18389   0.96547   0.16865   0.00000  Uiso   1.00
N184   N     0.46350   0.29565   0.15946   0.00000  Uiso   1.00
C185   C     0.12433   0.40814   0.05414   0.00000  Uiso   1.00
C186   C     0.10428   0.32612   0.12451   0.00000  Uiso   1.00
C187   C     0.08192   0.23113   0.09966   0.00000  Uiso   1.00
C188   C     0.06608   0.16695   0.17465   0.00000  Uiso   1.00
C189   C     0.03400   0.03503   0.26925   0.00000  Uiso   1.00
C190   C     0.17688   0.42248   0.08099   0.00000  Uiso   1.00
C191   C     0.21556   0.40852   0.01956   0.00000  Uiso   1.00
C192   C     0.26082   0.42547   0.05791   0.00000  Uiso   1.00
C193   C     0.34145   0.44322   0.08495   0.00000  Uiso   1.00
C194   C     0.09981   0.51346   0.07847   0.00000  Uiso   1.00
C195   C     0.07370   0.57602   0.01490   0.00000  Uiso   1.00
C196   C     0.05409   0.66959   0.05112   0.00000  Uiso   1.00
C197   C     0.01506   0.82861   0.07423   0.00000  Uiso   1.00
C198   C     0.13595   0.46307   0.23150   0.00000  Uiso   1.00
C199   C     0.11059   0.35595   0.22084   0.00000  Uiso   1.00
C200   C     0.09477   0.29190   0.29589   0.00000  Uiso   1.00
C201   C     0.07239   0.19684   0.27115   0.00000  Uiso   1.00
C202   C     0.18319   0.45231   0.17732   0.00000  Uiso   1.00
C203   C     0.22841   0.46929   0.21578   0.00000  Uiso   1.00
C204   C     0.26715   0.45535   0.15442   0.00000  Uiso   1.00
C205   C     0.10612   0.54330   0.17480   0.00000  Uiso   1.00
C206   C     0.08655   0.63679   0.21113   0.00000  Uiso   1.00
C207   C     0.06041   0.69948   0.14763   0.00000  Uiso   1.00
H208   H     0.11943   0.38491   0.97914   0.00000  Uiso   1.00
H209   H     0.07705   0.20806   0.02510   0.00000  Uiso   1.00
H210   H     0.21066   0.38544   0.94501   0.00000  Uiso   1.00
H211   H     0.06883   0.55291   0.94036   0.00000  Uiso   1.00
H212   H     0.03287   0.02514   0.11854   0.00000  Uiso   1.00
H213   H     0.31460   0.39917   0.94965   0.00000  Uiso   1.00
H214   H     0.01551   0.75232   0.93983   0.00000  Uiso   1.00
H215   H     0.14086   0.48630   0.30650   0.00000  Uiso   1.00
H216   H     0.09966   0.31501   0.37043   0.00000  Uiso   1.00
H217   H     0.23328   0.49238   0.29033   0.00000  Uiso   1.00
H218   H     0.09144   0.65985   0.28568   0.00000  Uiso   1.00
H219   H     0.05122   0.11193   0.39882   0.00000  Uiso   1.00
H220   H     0.33295   0.48598   0.22993   0.00000  Uiso   1.00
H221   H     0.03386   0.83912   0.22011   0.00000  Uiso   1.00
O222   O     0.01457   0.95401   0.29482   0.00000  Uiso   1.00
O223   O     0.38419   0.44475   0.07324   0.00000  Uiso   1.00
O224   O     0.99179   0.90807   0.06037   0.00000  Uiso   1.00
N225   N     0.04283   0.06908   0.17573   0.00000  Uiso   1.00
N226   N     0.30623   0.41877   0.01783   0.00000  Uiso   1.00
N227   N     0.02662   0.74895   0.00865   0.00000  Uiso   1.00
N228   N     0.05271   0.11579   0.32654   0.00000  Uiso   1.00
N229   N     0.31611   0.46547   0.16865   0.00000  Uiso   1.00
N230   N     0.03650   0.79565   0.15946   0.00000  Uiso   1.00
C231   C     0.37567   0.59186   0.55414   0.00000  Uiso   1.00
C232   C     0.39572   0.67388   0.62451   0.00000  Uiso   1.00
C233   C     0.41808   0.76887   0.59966   0.00000  Uiso   1.00
C234   C     0.43392   0.83305   0.67465   0.00000  Uiso   1.00
C235   C     0.46600   0.96497   0.76925   0.00000  Uiso   1.00
C236   C     0.32312   0.57752   0.58099   0.00000  Uiso   1.00
C237   C     0.28444   0.59148   0.51956   0.00000  Uiso   1.00
C238   C     0.23918   0.57453   0.55791   0.00000  Uiso   1.00
C239   C     0.15855   0.55678   0.58495   0.00000  Uiso   1.00
C240   C     0.40019   0.48654   0.57847   0.00000  Uiso   1.00
C241   C     0.42630   0.42398   0.51490   0.00000  Uiso   1.00
C242   C     0.44591   0.33041   0.55112   0.00000  Uiso   1.00
C243   C     0.48494   0.17139   0.57423   0.00000  Uiso   1.00
C244   C     0.36405   0.53693   0.73150   0.00000  Uiso   1.00
C245   C     0.38941   0.64405   0.72084   0.00000  Uiso   1.00
C246   C     0.40523   0.70810   0.79589   0.00000  Uiso   1.00
C247   C     0.42761   0.80316   0.77115   0.00000  Uiso   1.00
C248   C     0.31681   0.54769   0.67732   0.00000  Uiso   1.00
C249   C     0.27159   0.53071   0.71578   0.00000  Uiso   1.00
C250   C     0.23285   0.54465   0.65442   0.00000  Uiso   1.00
C251   C     0.39388   0.45670   0.67480   0.00000  Uiso   1.00
C252   C     0.41345   0.36321   0.71113   0.00000  Uiso   1.00
C253   C     0.43959   0.30052   0.64763   0.00000  Uiso   1.00
H254   H     0.38057   0.61509   0.47914   0.00000  Uiso   1.00
H255   H     0.42295   0.79194   0.52510   0.00000  Uiso   1.00
H256   H     0.28934   0.61456   0.44501   0.00000  Uiso   1.00
H257   H     0.43117   0.44709   0.44036   0.00000  Uiso   1.00
H258   H     0.46713   0.97486   0.61854   0.00000  Uiso   1.00
H259   H     0.18540   0.60083   0.44965   0.00000  Uiso   1.00
H260   H     0.48449   0.24768   0.43983   0.00000  Uiso   1.00
H261   H     0.35914   0.51370   0.80650   0.00000  Uiso   1.00
H262   H     0.40034   0.68499   0.87043   0.00000  Uiso   1.00
H263   H     0.26672   0.50762   0.79033   0.00000  Uiso   1.00
H264   H     0.40856   0.34015   0.78568   0.00000  Uiso   1.00
H265   H     0.44878   0.88807   0.89882   0.00000  Uiso   1.00
H266   H     0.16705   0.51402   0.72993   0.00000  Uiso   1.00
H267   H     0.46614   0.16088   0.72011   0.00000  Uiso   1.00
O268   O     0.48543   0.04599   0.79482   0.00000  Uiso   1.00
O269   O     0.11581   0.55525   0.57324   0.00000  Uiso   1.00
O270   O     0.50821   0.09193   0.56037   0.00000  Uiso   1.00
N271   N     0.45717   0.93092   0.67573   0.00000  Uiso   1.00
N272   N     0.19377   0.58123   0.51783   0.00000  Uiso   1.00
N273   N     0.47338   0.25105   0.50865   0.00000  Uiso   1.00
N274   N     0.44729   0.88421   0.82654   0.00000  Uiso   1.00
N275   N     0.18389   0.53453   0.66865   0.00000  Uiso   1.00
N276   N     0.46350   0.20435   0.65946   0.00000  Uiso   1.00
C277   C     0.87567   0.90814   0.44586   0.00000  Uiso   1.00
C278   C     0.89572   0.82612   0.37549   0.00000  Uiso   1.00
C279   C     0.91808   0.73113   0.40034   0.00000  Uiso   1.00
C280   C     0.93392   0.66695   0.32535   0.00000  Uiso   1.00
C281   C     0.96600   0.53503   0.23075   0.00000  Uiso   1.00
C282   C     0.82312   0.92248   0.41901   0.00000  Uiso   1.00
C283   C     0.78444   0.90852   0.48044   0.00000  Uiso   1.00
C284   C     0.73918   0.92547   0.44209   0.00000  Uiso   1.00
C285   C     0.65855   0.94322   0.41505   0.00000  Uiso   1.00
C286   C     0.90019   0.01346   0.42153   0.00000  Uiso   1.00
C287   C     0.92630   0.07602   0.48510   0.00000  Uiso   1.00
C288   C     0.94591   0.16959   0.44888   0.00000  Uiso   1.00
C289   C     0.98494   0.32861   0.42577   0.00000  Uiso   1.00
C290   C     0.86405   0.96307   0.26850   0.00000  Uiso   1.00
C291   C     0.88941   0.85595   0.27916   0.00000  Uiso   1.00
C292   C     0.90523   0.79190   0.20411   0.00000  Uiso   1.00
C293   C     0.92761   0.69684   0.22885   0.00000  Uiso   1.00
C294   C     0.81681   0.95231   0.32268   0.00000  Uiso   1.00
C295   C     0.77159   0.96929   0.28422   0.00000  Uiso   1.00
C296   C     0.73285   0.95535   0.34558   0.00000  Uiso   1.00
C297   C     0.89388   0.04330   0.32520   0.00000  Uiso   1.00
C298   C     0.91345   0.13679   0.28887   0.00000  Uiso   1.00
C299   C     0.93959   0.19948   0.35237   0.00000  Uiso   1.00
H300   H     0.88057   0.88491   0.52086   0.00000  Uiso   1.00
H301   H     0.92295   0.70806   0.47490   0.00000  Uiso   1.00
H302   H     0.78934   0.88544   0.55499   0.00000  Uiso   1.00
H303   H     0.93117   0.05291   0.55964   0.00000  Uiso   1.00
H304   H     0.96713   0.52514   0.38146   0.00000  Uiso   1.00
H305   H     0.68540   0.89917   0.55035   0.00000  Uiso   1.00
H306   H     0.98449   0.25232   0.56017   0.00000  Uiso   1.00
H307   H     0.85914   0.98630   0.19350   0.00000  Uiso   1.00
H308   H     0.90034   0.81501   0.12957   0.00000  Uiso   1.00
H309   H     0.76672   0.99238   0.20967   0.00000  Uiso   1.00
H310   H     0.90856   0.15985   0.21432   0.00000  Uiso   1.00
H311   H     0.94878   0.61193   0.10118   0.00000  Uiso   1.00
H312   H     0.66705   0.98598   0.27007   0.00000  Uiso   1.00
H313   H     0.96614   0.33912   0.27989   0.00000  Uiso   1.00
O314   O     0.98543   0.45401   0.20518   0.00000  Uiso   1.00
O315   O     0.61581   0.94475   0.42676   0.00000  Uiso   1.00
O316   O     0.00821   0.40807   0.43963   0.00000  Uiso   1.00
N317   N     0.95717   0.56908   0.32427   0.00000  Uiso   1.00
N318   N     0.69377   0.91877   0.48217   0.00000  Uiso   1.00
N319   N     0.97338   0.24895   0.49135   0.00000  Uiso   1.00
N320   N     0.94729   0.61579   0.17346   0.00000  Uiso   1.00
N321   N     0.68389   0.96547   0.33135   0.00000  Uiso   1.00
N322   N     0.96350   0.29565   0.34054   0.00000  Uiso   1.00
C323   C     0.62433   0.09186   0.94586   0.00000  Uiso   1.00
C324   C     0.60428   0.17388   0.87549   0.00000  Uiso   1.00
C325   C     0.58192   0.26887   0.90034   0.00000  Uiso   1.00
C326   C     0.56608   0.33305   0.82535   0.00000  Uiso   1.00
C327   C     0.53400   0.46497   0.73075   0.00000  Uiso   1.00
C328   C     0.67688   0.07752   0.91901   0.00000  Uiso   1.00
C329   C     0.71556   0.09148   0.98044   0.00000  Uiso   1.00
C330   C     0.76082   0.07453   0.94209   0.00000  Uiso   1.00
C331   C     0.84145   0.05678   0.91505   0.00000  Uiso   1.00
C332   C     0.59981   0.98654   0.92153   0.00000  Uiso   1.00
C333   C     0.57370   0.92398   0.98510   0.00000  Uiso   1.00
C334   C     0.55409   0.83041   0.94888   0.00000  Uiso   1.00
C335   C     0.51506   0.67139   0.92577   0.00000  Uiso   1.00
C336   C     0.63595   0.03693   0.76850   0.00000  Uiso   1.00
C337   C     0.61059   0.14405   0.77916   0.00000  Uiso   1.00
C338   C     0.59477   0.20810   0.70411   0.00000  Uiso   1.00
C339   C     0.57239   0.30316   0.72885   0.00000  Uiso   1.00
C340   C     0.68319   0.04769   0.82268   0.00000  Uiso   1.00
C341   C     0.72841   0.03071   0.78422   0.00000  Uiso   1.00
C342   C     0.76715   0.04465   0.84558   0.00000  Uiso   1.00
C343   C     0.60612   0.95670   0.82520   0.00000  Uiso   1.00
C344   C     0.58655   0.86321   0.78887   0.00000  Uiso   1.00
C345   C     0.56041   0.80052   0.85237   0.00000  Uiso   1.00
H346   H     0.61943   0.11509   0.02086   0.00000  Uiso   1.00
H347   H     0.57705   0.29194   0.97490   0.00000  Uiso   1.00
H348   H     0.71066   0.11456   0.05499   0.00000  Uiso   1.00
H349   H     0.56883   0.94709   0.05964   0.00000  Uiso   1.00
H350   H     0.53287   0.47486   0.88146   0.00000  Uiso   1.00
H351   H     0.81460   0.10083   0.05035   0.00000  Uiso   1.00
H352   H     0.51551   0.74768   0.06017   0.00000  Uiso   1.00
H353   H     0.64086   0.01370   0.69350   0.00000  Uiso   1.00
H354   H     0.59966   0.18499   0.62957   0.00000  Uiso   1.00
H355   H     0.73328   0.00762   0.70967   0.00000  Uiso   1.00
H356   H     0.59144   0.84015   0.71432   0.00000  Uiso   1.00
H357   H     0.55122   0.38807   0.60118   0.00000  Uiso   1.00
H358   H     0.83295   0.01402   0.77007   0.00000  Uiso   1.00
H359   H     0.53386   0.66088   0.77989   0.00000  Uiso   1.00
O360   O     0.51457   0.54599   0.70518   0.00000  Uiso   1.00
O361   O     0.88419   0.05525   0.92676   0.00000  Uiso   1.00
O362   O     0.49179   0.59193   0.93963   0.00000  Uiso   1.00
N363   N     0.54283   0.43092   0.82427   0.00000  Uiso   1.00
N364   N     0.80623   0.08123   0.98217   0.00000  Uiso   1.00
N365   N     0.52662   0.75105   0.99135   0.00000  Uiso   1.00
N366   N     0.55271   0.38421   0.67346   0.00000  Uiso   1.00
N367   N     0.81611   0.03453   0.83135   0.00000  Uiso   1.00
N368   N     0.53650   0.70435   0.84054   0.00000  Uiso   1.00
