data_job_07081
_audit_creation_date              2018-12-19
_audit_creation_method            'Materials Studio'
_symmetry_space_group_name_H-M    'P1'
_symmetry_Int_Tables_number       1
_symmetry_cell_setting            triclinic
loop_
_symmetry_equiv_pos_as_xyz
  x,y,z
_cell_length_a                    18.9952
_cell_length_b                    21.3238
_cell_length_c                    20.4134
_cell_angle_alpha                 74.5157
_cell_angle_beta                  80.9501
_cell_angle_gamma                 79.5535
loop_
_atom_site_label
_atom_site_type_symbol
_atom_site_fract_x
_atom_site_fract_y
_atom_site_fract_z
_atom_site_U_iso_or_equiv
_atom_site_adp_type
_atom_site_occupancy
C1     C     0.08368   0.13618   0.67340   0.00000  Uiso   1.00
C2     C     0.06304   0.14636   0.60166   0.00000  Uiso   1.00
C3     C     0.11029   0.15272   0.54184   0.00000  Uiso   1.00
C4     C     0.08079   0.16171   0.48136   0.00000  Uiso   1.00
C5     C     0.06000   0.17716   0.37005   0.00000  Uiso   1.00
C6     C     0.03873   0.19205   0.70170   0.00000  Uiso   1.00
C7     C     0.06556   0.23682   0.72600   0.00000  Uiso   1.00
C8     C     0.01560   0.28427   0.74973   0.00000  Uiso   1.00
C9     C     0.95707   0.37063   0.79379   0.00000  Uiso   1.00
C10    C     0.05580   0.07333   0.71610   0.00000  Uiso   1.00
C11    C     0.09696   0.01829   0.75254   0.00000  Uiso   1.00
C12    C     0.06136   0.96579   0.78842   0.00000  Uiso   1.00
C13    C     0.02933   0.86781   0.85484   0.00000  Uiso   1.00
C14    C     0.94727   0.14082   0.67234   0.00000  Uiso   1.00
C15    C     0.98894   0.14888   0.60109   0.00000  Uiso   1.00
C16    C     0.95937   0.15786   0.54068   0.00000  Uiso   1.00
C17    C     0.00657   0.16423   0.48078   0.00000  Uiso   1.00
C18    C     0.96464   0.19457   0.70113   0.00000  Uiso   1.00
C19    C     0.91464   0.24196   0.72484   0.00000  Uiso   1.00
C20    C     0.94137   0.28680   0.74916   0.00000  Uiso   1.00
C21    C     0.98170   0.07585   0.71553   0.00000  Uiso   1.00
C22    C     0.94604   0.02342   0.75137   0.00000  Uiso   1.00
C23    C     0.98714   0.96831   0.78784   0.00000  Uiso   1.00
H24    H     0.14137   0.13422   0.67384   0.00000  Uiso   1.00
H25    H     0.16762   0.15078   0.54231   0.00000  Uiso   1.00
H26    H     0.12290   0.23486   0.72644   0.00000  Uiso   1.00
H27    H     0.15429   0.01636   0.75297   0.00000  Uiso   1.00
H28    H     0.16406   0.17026   0.39622   0.00000  Uiso   1.00
H29    H     0.06975   0.34754   0.78450   0.00000  Uiso   1.00
H30    H     0.13596   0.88679   0.84044   0.00000  Uiso   1.00
H31    H     0.88959   0.14279   0.67190   0.00000  Uiso   1.00
H32    H     0.90203   0.15980   0.54025   0.00000  Uiso   1.00
H33    H     0.85730   0.24389   0.72439   0.00000  Uiso   1.00
H34    H     0.88870   0.02539   0.75091   0.00000  Uiso   1.00
H35    H     0.94849   0.17759   0.39455   0.00000  Uiso   1.00
H36    H     0.85418   0.35487   0.78284   0.00000  Uiso   1.00
H37    H     0.92039   0.89412   0.83877   0.00000  Uiso   1.00
O38    O     0.06900   0.18499   0.30882   0.00000  Uiso   1.00
O39    O     0.94527   0.41757   0.81824   0.00000  Uiso   1.00
O40    O     0.03213   0.81307   0.89163   0.00000  Uiso   1.00
N41    N     0.11162   0.16964   0.41390   0.00000  Uiso   1.00
N42    N     0.02344   0.33539   0.77691   0.00000  Uiso   1.00
N43    N     0.08534   0.90463   0.82922   0.00000  Uiso   1.00
N44    N     0.99562   0.17358   0.41300   0.00000  Uiso   1.00
N45    N     0.90745   0.33934   0.77601   0.00000  Uiso   1.00
N46    N     0.96935   0.90858   0.82832   0.00000  Uiso   1.00
C47    C     0.59027   0.95391   0.17164   0.00000  Uiso   1.00
C48    C     0.51120   0.97204   0.15928   0.00000  Uiso   1.00
C49    C     0.46822   0.03142   0.16243   0.00000  Uiso   1.00
C50    C     0.39724   0.03840   0.14950   0.00000  Uiso   1.00
C51    C     0.27856   0.07423   0.13271   0.00000  Uiso   1.00
C52    C     0.59494   0.89085   0.22868   0.00000  Uiso   1.00
C53    C     0.62239   0.88196   0.29017   0.00000  Uiso   1.00
C54    C     0.62192   0.82059   0.33566   0.00000  Uiso   1.00
C55    C     0.63330   0.73036   0.42659   0.00000  Uiso   1.00
C56    C     0.63065   0.93498   0.10739   0.00000  Uiso   1.00
C57    C     0.68814   0.96320   0.06690   0.00000  Uiso   1.00
C58    C     0.71774   0.93897   0.01028   0.00000  Uiso   1.00
C59    C     0.78457   0.91727   0.91289   0.00000  Uiso   1.00
C60    C     0.54065   0.86072   0.14309   0.00000  Uiso   1.00
C61    C     0.48425   0.92141   0.14378   0.00000  Uiso   1.00
C62    C     0.41332   0.92831   0.13084   0.00000  Uiso   1.00
C63    C     0.37024   0.98769   0.13397   0.00000  Uiso   1.00
C64    C     0.56799   0.84023   0.21318   0.00000  Uiso   1.00
C65    C     0.56749   0.77885   0.25859   0.00000  Uiso   1.00
C66    C     0.59492   0.76988   0.32013   0.00000  Uiso   1.00
C67    C     0.60370   0.88436   0.09188   0.00000  Uiso   1.00
C68    C     0.63323   0.86009   0.03532   0.00000  Uiso   1.00
C69    C     0.69074   0.88826   0.99475   0.00000  Uiso   1.00
H70    H     0.61125   0.99332   0.18371   0.00000  Uiso   1.00
H71    H     0.48909   0.07058   0.17443   0.00000  Uiso   1.00
H72    H     0.64325   0.92114   0.30215   0.00000  Uiso   1.00
H73    H     0.70898   0.00237   0.07892   0.00000  Uiso   1.00
H74    H     0.34177   0.13390   0.15734   0.00000  Uiso   1.00
H75    H     0.66682   0.81880   0.42662   0.00000  Uiso   1.00
H76    H     0.80544   0.99008   0.95590   0.00000  Uiso   1.00
H77    H     0.51966   0.82130   0.13102   0.00000  Uiso   1.00
H78    H     0.39247   0.88912   0.11885   0.00000  Uiso   1.00
H79    H     0.54663   0.73969   0.24657   0.00000  Uiso   1.00
H80    H     0.61236   0.82092   0.02334   0.00000  Uiso   1.00
H81    H     0.26334   0.98662   0.11222   0.00000  Uiso   1.00
H82    H     0.58841   0.67153   0.38151   0.00000  Uiso   1.00
H83    H     0.72702   0.84281   0.91079   0.00000  Uiso   1.00
O84    O     0.22053   0.10797   0.12775   0.00000  Uiso   1.00
O85    O     0.64701   0.69458   0.48103   0.00000  Uiso   1.00
O86    O     0.82887   0.91929   0.86345   0.00000  Uiso   1.00
N87    N     0.34077   0.08993   0.14837   0.00000  Uiso   1.00
N88    N     0.64467   0.79534   0.40015   0.00000  Uiso   1.00
N89    N     0.77428   0.95546   0.96007   0.00000  Uiso   1.00
N90    N     0.29857   0.01069   0.12410   0.00000  Uiso   1.00
N91    N     0.60247   0.71610   0.37587   0.00000  Uiso   1.00
N92    N     0.73208   0.87621   0.93579   0.00000  Uiso   1.00
C93    C     0.06228   0.45851   0.25300   0.00000  Uiso   1.00
C94    C     0.05046   0.41423   0.20933   0.00000  Uiso   1.00
C95    C     0.05045   0.34677   0.23109   0.00000  Uiso   1.00
C96    C     0.03865   0.31516   0.18336   0.00000  Uiso   1.00
C97    C     0.02207   0.24112   0.12576   0.00000  Uiso   1.00
C98    C     0.12563   0.49341   0.21507   0.00000  Uiso   1.00
C99    C     0.18881   0.49252   0.24165   0.00000  Uiso   1.00
C100   C     0.24029   0.52757   0.19876   0.00000  Uiso   1.00
C101   C     0.34039   0.57650   0.15007   0.00000  Uiso   1.00
C102   C     0.99642   0.51163   0.24999   0.00000  Uiso   1.00
C103   C     0.95096   0.52608   0.30594   0.00000  Uiso   1.00
C104   C     0.89366   0.57649   0.29245   0.00000  Uiso   1.00
C105   C     0.79313   0.65372   0.29798   0.00000  Uiso   1.00
C106   C     0.04137   0.52235   0.12956   0.00000  Uiso   1.00
C107   C     0.03911   0.44891   0.14228   0.00000  Uiso   1.00
C108   C     0.02731   0.41739   0.09451   0.00000  Uiso   1.00
C109   C     0.02727   0.34989   0.11620   0.00000  Uiso   1.00
C110   C     0.11428   0.52808   0.14802   0.00000  Uiso   1.00
C111   C     0.16567   0.56314   0.10508   0.00000  Uiso   1.00
C112   C     0.22891   0.56230   0.13159   0.00000  Uiso   1.00
C113   C     0.98506   0.54631   0.18294   0.00000  Uiso   1.00
C114   C     0.92782   0.59671   0.16936   0.00000  Uiso   1.00
C115   C     0.88228   0.61123   0.22528   0.00000  Uiso   1.00
H116   H     0.07113   0.43152   0.30519   0.00000  Uiso   1.00
H117   H     0.05925   0.31995   0.28298   0.00000  Uiso   1.00
H118   H     0.19758   0.46569   0.29354   0.00000  Uiso   1.00
H119   H     0.95977   0.49924   0.35781   0.00000  Uiso   1.00
H120   H     0.04109   0.21154   0.22877   0.00000  Uiso   1.00
H121   H     0.33277   0.51886   0.25106   0.00000  Uiso   1.00
H122   H     0.83130   0.58962   0.38659   0.00000  Uiso   1.00
H123   H     0.03252   0.54934   0.07735   0.00000  Uiso   1.00
H124   H     0.01852   0.44424   0.04263   0.00000  Uiso   1.00
H125   H     0.15686   0.58997   0.05320   0.00000  Uiso   1.00
H126   H     0.91905   0.62353   0.11747   0.00000  Uiso   1.00
H127   H     0.00804   0.31242   0.03370   0.00000  Uiso   1.00
H128   H     0.29972   0.61973   0.05599   0.00000  Uiso   1.00
H129   H     0.79824   0.69049   0.19152   0.00000  Uiso   1.00
O130   O     0.01607   0.19071   0.11250   0.00000  Uiso   1.00
O131   O     0.39874   0.59390   0.14174   0.00000  Uiso   1.00
O132   O     0.74082   0.68673   0.31956   0.00000  Uiso   1.00
N133   N     0.03522   0.24971   0.18763   0.00000  Uiso   1.00
N134   N     0.30793   0.53702   0.20846   0.00000  Uiso   1.00
N135   N     0.83910   0.60319   0.33517   0.00000  Uiso   1.00
N136   N     0.01743   0.30399   0.08266   0.00000  Uiso   1.00
N137   N     0.29014   0.59130   0.10349   0.00000  Uiso   1.00
N138   N     0.82132   0.65747   0.23021   0.00000  Uiso   1.00
C139   C     0.45828   0.12865   0.71505   0.00000  Uiso   1.00
C140   C     0.47161   0.08171   0.66816   0.00000  Uiso   1.00
C141   C     0.53599   0.04176   0.65572   0.00000  Uiso   1.00
C142   C     0.53725   0.00233   0.61119   0.00000  Uiso   1.00
C143   C     0.56722   0.92934   0.54311   0.00000  Uiso   1.00
C144   C     0.39425   0.10862   0.76695   0.00000  Uiso   1.00
C145   C     0.39358   0.09130   0.83757   0.00000  Uiso   1.00
C146   C     0.32970   0.07453   0.87620   0.00000  Uiso   1.00
C147   C     0.23955   0.04336   0.96150   0.00000  Uiso   1.00
C148   C     0.43204   0.19630   0.67103   0.00000  Uiso   1.00
C149   C     0.46314   0.25272   0.66101   0.00000  Uiso   1.00
C150   C     0.43107   0.30978   0.61890   0.00000  Uiso   1.00
C151   C     0.39960   0.41475   0.55526   0.00000  Uiso   1.00
C152   C     0.34602   0.12967   0.65811   0.00000  Uiso   1.00
C153   C     0.41064   0.08227   0.63723   0.00000  Uiso   1.00
C154   C     0.41180   0.04289   0.59271   0.00000  Uiso   1.00
C155   C     0.47617   0.00289   0.58020   0.00000  Uiso   1.00
C156   C     0.33328   0.10917   0.73603   0.00000  Uiso   1.00
C157   C     0.26939   0.09243   0.77456   0.00000  Uiso   1.00
C158   C     0.26862   0.07508   0.84522   0.00000  Uiso   1.00
C159   C     0.37107   0.19686   0.64010   0.00000  Uiso   1.00
C160   C     0.33894   0.25384   0.59800   0.00000  Uiso   1.00
C161   C     0.36999   0.31033   0.58791   0.00000  Uiso   1.00
H162   H     0.50574   0.12821   0.73914   0.00000  Uiso   1.00
H163   H     0.58316   0.04134   0.67967   0.00000  Uiso   1.00
H164   H     0.44077   0.09088   0.86149   0.00000  Uiso   1.00
H165   H     0.51032   0.25227   0.68495   0.00000  Uiso   1.00
H166   H     0.64211   0.94525   0.60011   0.00000  Uiso   1.00
H167   H     0.34185   0.04973   0.98349   0.00000  Uiso   1.00
H168   H     0.48851   0.39005   0.61124   0.00000  Uiso   1.00
H169   H     0.29855   0.13010   0.63403   0.00000  Uiso   1.00
H170   H     0.36461   0.04333   0.56879   0.00000  Uiso   1.00
H171   H     0.22221   0.09287   0.75061   0.00000  Uiso   1.00
H172   H     0.29176   0.25426   0.57408   0.00000  Uiso   1.00
H173   H     0.46472   0.94686   0.51012   0.00000  Uiso   1.00
H174   H     0.16446   0.05134   0.89350   0.00000  Uiso   1.00
H175   H     0.31112   0.39166   0.52124   0.00000  Uiso   1.00
O176   O     0.60060   0.88892   0.51411   0.00000  Uiso   1.00
O177   O     0.20667   0.02601   0.01709   0.00000  Uiso   1.00
O178   O     0.39908   0.47250   0.52870   0.00000  Uiso   1.00
N179   N     0.59130   0.95755   0.58788   0.00000  Uiso   1.00
N180   N     0.31058   0.05522   0.94631   0.00000  Uiso   1.00
N181   N     0.44768   0.37340   0.59830   0.00000  Uiso   1.00
N182   N     0.49585   0.95842   0.53945   0.00000  Uiso   1.00
N183   N     0.21513   0.05609   0.89789   0.00000  Uiso   1.00
N184   N     0.35223   0.37426   0.54987   0.00000  Uiso   1.00
C185   C     0.96989   0.69286   0.69532   0.00000  Uiso   1.00
C186   C     0.89904   0.69036   0.67052   0.00000  Uiso   1.00
C187   C     0.83370   0.68365   0.71114   0.00000  Uiso   1.00
C188   C     0.77512   0.68243   0.67874   0.00000  Uiso   1.00
C189   C     0.66409   0.67778   0.65095   0.00000  Uiso   1.00
C190   C     0.99500   0.75705   0.65288   0.00000  Uiso   1.00
C191   C     0.01036   0.80642   0.67868   0.00000  Uiso   1.00
C192   C     0.03258   0.86133   0.63143   0.00000  Uiso   1.00
C193   C     0.07059   0.96020   0.57626   0.00000  Uiso   1.00
C194   C     0.02397   0.63785   0.67361   0.00000  Uiso   1.00
C195   C     0.06371   0.58699   0.71683   0.00000  Uiso   1.00
C196   C     0.11033   0.54154   0.68702   0.00000  Uiso   1.00
C197   C     0.19332   0.45532   0.66403   0.00000  Uiso   1.00
C198   C     0.98206   0.70260   0.56552   0.00000  Uiso   1.00
C199   C     0.90565   0.69565   0.60002   0.00000  Uiso   1.00
C200   C     0.84716   0.69443   0.56754   0.00000  Uiso   1.00
C201   C     0.78174   0.68773   0.60811   0.00000  Uiso   1.00
C202   C     0.00161   0.76235   0.58238   0.00000  Uiso   1.00
C203   C     0.02382   0.81720   0.53508   0.00000  Uiso   1.00
C204   C     0.03920   0.86663   0.56080   0.00000  Uiso   1.00
C205   C     0.03058   0.64314   0.60311   0.00000  Uiso   1.00
C206   C     0.07716   0.59776   0.57323   0.00000  Uiso   1.00
C207   C     0.11695   0.54684   0.61640   0.00000  Uiso   1.00
H208   H     0.96475   0.68874   0.75020   0.00000  Uiso   1.00
H209   H     0.82860   0.67957   0.76570   0.00000  Uiso   1.00
H210   H     0.00525   0.80230   0.73324   0.00000  Uiso   1.00
H211   H     0.05858   0.58291   0.77138   0.00000  Uiso   1.00
H212   H     0.68057   0.67175   0.75179   0.00000  Uiso   1.00
H213   H     0.05305   0.93054   0.68334   0.00000  Uiso   1.00
H214   H     0.16552   0.46790   0.76378   0.00000  Uiso   1.00
H215   H     0.98721   0.70672   0.51063   0.00000  Uiso   1.00
H216   H     0.85229   0.69853   0.51298   0.00000  Uiso   1.00
H217   H     0.02893   0.82127   0.48053   0.00000  Uiso   1.00
H218   H     0.08226   0.60187   0.51867   0.00000  Uiso   1.00
H219   H     0.69979   0.68715   0.54667   0.00000  Uiso   1.00
H220   H     0.07228   0.94594   0.47823   0.00000  Uiso   1.00
H221   H     0.18474   0.48329   0.55866   0.00000  Uiso   1.00
O222   O     0.60101   0.67376   0.65509   0.00000  Uiso   1.00
O223   O     0.08972   0.01327   0.56530   0.00000  Uiso   1.00
O224   O     0.23726   0.40630   0.67083   0.00000  Uiso   1.00
N225   N     0.70361   0.67649   0.70319   0.00000  Uiso   1.00
N226   N     0.05185   0.91844   0.63920   0.00000  Uiso   1.00
N227   N     0.15701   0.48592   0.71440   0.00000  Uiso   1.00
N228   N     0.71395   0.68477   0.59282   0.00000  Uiso   1.00
N229   N     0.06220   0.92673   0.52883   0.00000  Uiso   1.00
N230   N     0.16735   0.49420   0.60403   0.00000  Uiso   1.00
C231   C     0.59752   0.52693   0.18870   0.00000  Uiso   1.00
C232   C     0.57093   0.51044   0.12945   0.00000  Uiso   1.00
C233   C     0.57726   0.54622   0.06172   0.00000  Uiso   1.00
C234   C     0.54951   0.52303   0.01519   0.00000  Uiso   1.00
C235   C     0.51325   0.50607   0.92006   0.00000  Uiso   1.00
C236   C     0.64810   0.46614   0.22079   0.00000  Uiso   1.00
C237   C     0.71933   0.46468   0.22986   0.00000  Uiso   1.00
C238   C     0.75653   0.40420   0.26024   0.00000  Uiso   1.00
C239   C     0.84008   0.31848   0.30696   0.00000  Uiso   1.00
C240   C     0.53204   0.53237   0.24177   0.00000  Uiso   1.00
C241   C     0.50568   0.58658   0.26850   0.00000  Uiso   1.00
C242   C     0.44517   0.58184   0.31655   0.00000  Uiso   1.00
C243   C     0.34851   0.59894   0.39585   0.00000  Uiso   1.00
C244   C     0.53696   0.42211   0.22651   0.00000  Uiso   1.00
C245   C     0.53803   0.45350   0.14999   0.00000  Uiso   1.00
C246   C     0.51025   0.43025   0.10355   0.00000  Uiso   1.00
C247   C     0.51655   0.46599   0.03577   0.00000  Uiso   1.00
C248   C     0.61521   0.40921   0.24133   0.00000  Uiso   1.00
C249   C     0.65232   0.34871   0.27170   0.00000  Uiso   1.00
C250   C     0.72358   0.34716   0.28081   0.00000  Uiso   1.00
C251   C     0.49914   0.47543   0.26231   0.00000  Uiso   1.00
C252   C     0.43867   0.47061   0.31033   0.00000  Uiso   1.00
C253   C     0.41222   0.52481   0.33713   0.00000  Uiso   1.00
H254   H     0.62314   0.57125   0.17271   0.00000  Uiso   1.00
H255   H     0.60273   0.59028   0.04584   0.00000  Uiso   1.00
H256   H     0.74477   0.50875   0.21397   0.00000  Uiso   1.00
H257   H     0.53115   0.63063   0.25259   0.00000  Uiso   1.00
H258   H     0.56562   0.58625   0.91424   0.00000  Uiso   1.00
H259   H     0.86511   0.41436   0.26877   0.00000  Uiso   1.00
H260   H     0.41466   0.67136   0.35022   0.00000  Uiso   1.00
H261   H     0.51134   0.37778   0.24250   0.00000  Uiso   1.00
H262   H     0.48480   0.38619   0.11946   0.00000  Uiso   1.00
H263   H     0.62684   0.30466   0.28759   0.00000  Uiso   1.00
H264   H     0.41322   0.42654   0.32622   0.00000  Uiso   1.00
H265   H     0.46991   0.42060   0.97399   0.00000  Uiso   1.00
H266   H     0.76939   0.24870   0.32852   0.00000  Uiso   1.00
H267   H     0.31894   0.50571   0.40997   0.00000  Uiso   1.00
O268   O     0.50234   0.51244   0.86191   0.00000  Uiso   1.00
O269   O     0.89525   0.28692   0.32705   0.00000  Uiso   1.00
O270   O     0.30427   0.62410   0.43391   0.00000  Uiso   1.00
N271   N     0.54673   0.54612   0.94519   0.00000  Uiso   1.00
N272   N     0.82673   0.38540   0.27664   0.00000  Uiso   1.00
N273   N     0.40561   0.62568   0.35281   0.00000  Uiso   1.00
N274   N     0.49522   0.45698   0.97734   0.00000  Uiso   1.00
N275   N     0.77523   0.29627   0.30879   0.00000  Uiso   1.00
N276   N     0.35410   0.53654   0.38496   0.00000  Uiso   1.00
C277   C     0.90807   0.78792   0.31810   0.00000  Uiso   1.00
C278   C     0.88652   0.83019   0.36966   0.00000  Uiso   1.00
C279   C     0.82163   0.83383   0.41156   0.00000  Uiso   1.00
C280   C     0.81226   0.87539   0.45525   0.00000  Uiso   1.00
C281   C     0.77064   0.93544   0.53508   0.00000  Uiso   1.00
C282   C     0.97864   0.74474   0.33747   0.00000  Uiso   1.00
C283   C     0.99120   0.67652   0.35229   0.00000  Uiso   1.00
C284   C     0.05937   0.64616   0.36887   0.00000  Uiso   1.00
C285   C     0.16079   0.57354   0.39867   0.00000  Uiso   1.00
C286   C     0.92674   0.83497   0.24929   0.00000  Uiso   1.00
C287   C     0.89568   0.84261   0.18996   0.00000  Uiso   1.00
C288   C     0.92017   0.88820   0.13230   0.00000  Uiso   1.00
C289   C     0.94101   0.95569   0.02519   0.00000  Uiso   1.00
C290   C     0.00682   0.85527   0.32119   0.00000  Uiso   1.00
C291   C     0.94016   0.86677   0.37134   0.00000  Uiso   1.00
C292   C     0.93088   0.90835   0.41498   0.00000  Uiso   1.00
C293   C     0.86598   0.91204   0.45693   0.00000  Uiso   1.00
C294   C     0.03227   0.78132   0.33915   0.00000  Uiso   1.00
C295   C     0.10045   0.75105   0.35571   0.00000  Uiso   1.00
C296   C     0.11311   0.68281   0.37055   0.00000  Uiso   1.00
C297   C     0.98037   0.87156   0.25097   0.00000  Uiso   1.00
C298   C     0.00492   0.91714   0.19338   0.00000  Uiso   1.00
C299   C     0.97390   0.92485   0.13398   0.00000  Uiso   1.00
H300   H     0.86632   0.75943   0.31680   0.00000  Uiso   1.00
H301   H     0.78014   0.80550   0.41025   0.00000  Uiso   1.00
H302   H     0.94968   0.64823   0.35098   0.00000  Uiso   1.00
H303   H     0.85417   0.81429   0.18868   0.00000  Uiso   1.00
H304   H     0.70825   0.87269   0.51462   0.00000  Uiso   1.00
H305   H     0.06575   0.54107   0.38962   0.00000  Uiso   1.00
H306   H     0.86436   0.89126   0.04739   0.00000  Uiso   1.00
H307   H     0.04858   0.88376   0.32250   0.00000  Uiso   1.00
H308   H     0.97239   0.93665   0.41627   0.00000  Uiso   1.00
H309   H     0.14194   0.77937   0.35700   0.00000  Uiso   1.00
H310   H     0.04643   0.94544   0.19470   0.00000  Uiso   1.00
H311   H     0.86429   0.97914   0.51951   0.00000  Uiso   1.00
H312   H     0.22180   0.64752   0.39451   0.00000  Uiso   1.00
H313   H     0.02040   0.99770   0.05227   0.00000  Uiso   1.00
O314   O     0.73288   0.95845   0.57866   0.00000  Uiso   1.00
O315   O     0.20191   0.52338   0.41466   0.00000  Uiso   1.00
O316   O     0.93768   0.98281   0.96565   0.00000  Uiso   1.00
N317   N     0.75543   0.89050   0.50289   0.00000  Uiso   1.00
N318   N     0.08967   0.58045   0.38604   0.00000  Uiso   1.00
N319   N     0.90139   0.90783   0.06607   0.00000  Uiso   1.00
N320   N     0.83939   0.94777   0.50552   0.00000  Uiso   1.00
N321   N     0.17363   0.63773   0.38867   0.00000  Uiso   1.00
N322   N     0.98535   0.96511   0.06870   0.00000  Uiso   1.00
C323   C     0.33213   0.78325   0.80695   0.00000  Uiso   1.00
C324   C     0.40071   0.80162   0.82220   0.00000  Uiso   1.00
C325   C     0.46639   0.76086   0.82844   0.00000  Uiso   1.00
C326   C     0.52263   0.78687   0.84250   0.00000  Uiso   1.00
C327   C     0.63053   0.80560   0.86500   0.00000  Uiso   1.00
C328   C     0.30963   0.83445   0.74298   0.00000  Uiso   1.00
C329   C     0.29871   0.82129   0.68262   0.00000  Uiso   1.00
C330   C     0.27827   0.87494   0.62999   0.00000  Uiso   1.00
C331   C     0.24471   0.94465   0.52951   0.00000  Uiso   1.00
C332   C     0.27446   0.79500   0.86517   0.00000  Uiso   1.00
C333   C     0.23396   0.74867   0.90754   0.00000  Uiso   1.00
C334   C     0.18389   0.76911   0.95778   0.00000  Uiso   1.00
C335   C     0.09572   0.77756   0.04703   0.00000  Uiso   1.00
C336   C     0.31522   0.90193   0.82082   0.00000  Uiso   1.00
C337   C     0.39153   0.86609   0.82973   0.00000  Uiso   1.00
C338   C     0.44768   0.89217   0.84378   0.00000  Uiso   1.00
C339   C     0.51343   0.85145   0.85005   0.00000  Uiso   1.00
C340   C     0.30044   0.89892   0.75051   0.00000  Uiso   1.00
C341   C     0.28000   0.95260   0.69796   0.00000  Uiso   1.00
C342   C     0.26907   0.93953   0.63753   0.00000  Uiso   1.00
C343   C     0.26527   0.85947   0.87270   0.00000  Uiso   1.00
C344   C     0.21525   0.87999   0.92288   0.00000  Uiso   1.00
C345   C     0.17468   0.83370   0.96533   0.00000  Uiso   1.00
H346   H     0.33928   0.73306   0.80109   0.00000  Uiso   1.00
H347   H     0.47348   0.71097   0.82261   0.00000  Uiso   1.00
H348   H     0.30582   0.77140   0.67681   0.00000  Uiso   1.00
H349   H     0.24108   0.69879   0.90170   0.00000  Uiso   1.00
H350   H     0.61822   0.71492   0.84976   0.00000  Uiso   1.00
H351   H     0.26468   0.84233   0.54235   0.00000  Uiso   1.00
H352   H     0.12816   0.68922   0.01657   0.00000  Uiso   1.00
H353   H     0.30806   0.95213   0.82668   0.00000  Uiso   1.00
H354   H     0.44056   0.94206   0.84961   0.00000  Uiso   1.00
H355   H     0.27290   0.00248   0.70380   0.00000  Uiso   1.00
H356   H     0.20816   0.92988   0.92870   0.00000  Uiso   1.00
H357   H     0.59150   0.90248   0.87167   0.00000  Uiso   1.00
H358   H     0.23796   0.02989   0.56426   0.00000  Uiso   1.00
H359   H     0.10144   0.87678   0.03849   0.00000  Uiso   1.00
O360   O     0.69259   0.79813   0.87532   0.00000  Uiso   1.00
O361   O     0.22874   0.96528   0.47200   0.00000  Uiso   1.00
O362   O     0.04963   0.76441   0.09418   0.00000  Uiso   1.00
N363   N     0.59375   0.76044   0.85179   0.00000  Uiso   1.00
N364   N     0.26322   0.87956   0.56437   0.00000  Uiso   1.00
N365   N     0.13557   0.73642   0.00772   0.00000  Uiso   1.00
N366   N     0.57937   0.86137   0.86358   0.00000  Uiso   1.00
N367   N     0.24884   0.98048   0.57616   0.00000  Uiso   1.00
N368   N     0.12119   0.83735   0.01951   0.00000  Uiso   1.00
C369   C     0.69549   0.29928   0.93383   0.00000  Uiso   1.00
C370   C     0.70153   0.37075   0.92905   0.00000  Uiso   1.00
C371   C     0.69091   0.42296   0.87230   0.00000  Uiso   1.00
C372   C     0.69892   0.48460   0.87816   0.00000  Uiso   1.00
C373   C     0.70553   0.59420   0.86155   0.00000  Uiso   1.00
C374   C     0.64007   0.27900   0.99520   0.00000  Uiso   1.00
C375   C     0.57779   0.25406   0.99406   0.00000  Uiso   1.00
C376   C     0.53408   0.23846   0.05562   0.00000  Uiso   1.00
C377   C     0.44530   0.20557   0.14171   0.00000  Uiso   1.00
C378   C     0.76755   0.25949   0.95355   0.00000  Uiso   1.00
C379   C     0.81245   0.21814   0.91740   0.00000  Uiso   1.00
C380   C     0.87605   0.18611   0.94390   0.00000  Uiso   1.00
C381   C     0.98520   0.12294   0.96533   0.00000  Uiso   1.00
C382   C     0.72860   0.31591   0.04517   0.00000  Uiso   1.00
C383   C     0.71951   0.37977   0.98953   0.00000  Uiso   1.00
C384   C     0.72754   0.44136   0.99548   0.00000  Uiso   1.00
C385   C     0.71694   0.49365   0.93874   0.00000  Uiso   1.00
C386   C     0.65805   0.28803   0.05568   0.00000  Uiso   1.00
C387   C     0.61442   0.27246   0.11725   0.00000  Uiso   1.00
C388   C     0.55209   0.24751   0.11620   0.00000  Uiso   1.00
C389   C     0.78553   0.26852   0.01403   0.00000  Uiso   1.00
C390   C     0.84908   0.23654   0.04059   0.00000  Uiso   1.00
C391   C     0.89406   0.19515   0.00449   0.00000  Uiso   1.00
H392   H     0.68149   0.29225   0.88675   0.00000  Uiso   1.00
H393   H     0.67699   0.41595   0.82551   0.00000  Uiso   1.00
H394   H     0.56390   0.24707   0.94726   0.00000  Uiso   1.00
H395   H     0.79851   0.21117   0.87061   0.00000  Uiso   1.00
H396   H     0.67991   0.55709   0.78428   0.00000  Uiso   1.00
H397   H     0.44146   0.20098   0.04100   0.00000  Uiso   1.00
H398   H     0.93619   0.12525   0.87937   0.00000  Uiso   1.00
H399   H     0.74260   0.32294   0.09226   0.00000  Uiso   1.00
H400   H     0.74146   0.44833   0.04229   0.00000  Uiso   1.00
H401   H     0.62836   0.27945   0.16404   0.00000  Uiso   1.00
H402   H     0.86298   0.24354   0.08739   0.00000  Uiso   1.00
H403   H     0.73223   0.58337   0.96023   0.00000  Uiso   1.00
H404   H     0.49377   0.22725   0.21695   0.00000  Uiso   1.00
H405   H     0.98851   0.15153   0.05532   0.00000  Uiso   1.00
O406   O     0.70419   0.65216   0.83568   0.00000  Uiso   1.00
O407   O     0.39136   0.18494   0.17249   0.00000  Uiso   1.00
O408   O     0.04044   0.08561   0.96043   0.00000  Uiso   1.00
N409   N     0.69239   0.54606   0.83254   0.00000  Uiso   1.00
N410   N     0.46945   0.21313   0.07256   0.00000  Uiso   1.00
N411   N     0.93198   0.14232   0.92146   0.00000  Uiso   1.00
N412   N     0.72055   0.56020   0.92722   0.00000  Uiso   1.00
N413   N     0.49760   0.22727   0.16723   0.00000  Uiso   1.00
N414   N     0.96013   0.15646   0.01613   0.00000  Uiso   1.00
C415   C     0.25120   0.87451   0.34194   0.00000  Uiso   1.00
C416   C     0.30418   0.92201   0.33650   0.00000  Uiso   1.00
C417   C     0.28656   0.98935   0.32948   0.00000  Uiso   1.00
C418   C     0.34282   0.02420   0.32534   0.00000  Uiso   1.00
C419   C     0.41426   0.10274   0.31644   0.00000  Uiso   1.00
C420   C     0.27785   0.83980   0.28439   0.00000  Uiso   1.00
C421   C     0.23808   0.83802   0.23358   0.00000  Uiso   1.00
C422   C     0.27217   0.80366   0.18558   0.00000  Uiso   1.00
C423   C     0.30269   0.75453   0.09581   0.00000  Uiso   1.00
C424   C     0.26152   0.82207   0.40843   0.00000  Uiso   1.00
C425   C     0.20801   0.80536   0.46191   0.00000  Uiso   1.00
C426   C     0.22835   0.75606   0.51835   0.00000  Uiso   1.00
C427   C     0.23352   0.67940   0.62117   0.00000  Uiso   1.00
C428   C     0.38246   0.81664   0.34707   0.00000  Uiso   1.00
C429   C     0.37548   0.89057   0.33928   0.00000  Uiso   1.00
C430   C     0.43178   0.92532   0.33516   0.00000  Uiso   1.00
C431   C     0.41425   0.99271   0.32814   0.00000  Uiso   1.00
C432   C     0.34914   0.80837   0.28718   0.00000  Uiso   1.00
C433   C     0.38330   0.77399   0.23925   0.00000  Uiso   1.00
C434   C     0.34359   0.77217   0.18837   0.00000  Uiso   1.00
C435   C     0.33281   0.79063   0.41122   0.00000  Uiso   1.00
C436   C     0.35324   0.74134   0.46758   0.00000  Uiso   1.00
C437   C     0.29977   0.72457   0.52114   0.00000  Uiso   1.00
H438   H     0.19569   0.89898   0.33977   0.00000  Uiso   1.00
H439   H     0.23138   0.01366   0.32732   0.00000  Uiso   1.00
H440   H     0.18290   0.86235   0.23144   0.00000  Uiso   1.00
H441   H     0.15285   0.82970   0.45974   0.00000  Uiso   1.00
H442   H     0.30239   0.12695   0.31473   0.00000  Uiso   1.00
H443   H     0.20017   0.80788   0.11256   0.00000  Uiso   1.00
H444   H     0.13678   0.73903   0.59397   0.00000  Uiso   1.00
H445   H     0.43796   0.79216   0.34924   0.00000  Uiso   1.00
H446   H     0.48695   0.90099   0.33731   0.00000  Uiso   1.00
H447   H     0.43847   0.74967   0.24142   0.00000  Uiso   1.00
H448   H     0.40841   0.71702   0.46972   0.00000  Uiso   1.00
H449   H     0.50982   0.03550   0.32283   0.00000  Uiso   1.00
H450   H     0.40759   0.71642   0.12067   0.00000  Uiso   1.00
H451   H     0.34421   0.64758   0.60208   0.00000  Uiso   1.00
O452   O     0.43396   0.15474   0.31074   0.00000  Uiso   1.00
O453   O     0.29984   0.73612   0.04552   0.00000  Uiso   1.00
O454   O     0.21668   0.64580   0.67712   0.00000  Uiso   1.00
N455   N     0.34449   0.09049   0.31829   0.00000  Uiso   1.00
N456   N     0.24891   0.79218   0.12927   0.00000  Uiso   1.00
N457   N     0.18965   0.72781   0.57934   0.00000  Uiso   1.00
N458   N     0.45610   0.04128   0.32265   0.00000  Uiso   1.00
N459   N     0.36053   0.74297   0.13363   0.00000  Uiso   1.00
N460   N     0.30127   0.67860   0.58370   0.00000  Uiso   1.00
C461   C     0.69814   0.32977   0.56520   0.00000  Uiso   1.00
C462   C     0.77741   0.33803   0.54595   0.00000  Uiso   1.00
C463   C     0.82004   0.32588   0.48762   0.00000  Uiso   1.00
C464   C     0.89128   0.33639   0.47932   0.00000  Uiso   1.00
C465   C     0.01017   0.34585   0.44209   0.00000  Uiso   1.00
C466   C     0.69320   0.28263   0.63604   0.00000  Uiso   1.00
C467   C     0.66502   0.22391   0.65345   0.00000  Uiso   1.00
C468   C     0.66537   0.18780   0.72099   0.00000  Uiso   1.00
C469   C     0.65349   0.11128   0.82363   0.00000  Uiso   1.00
C470   C     0.65857   0.39626   0.57460   0.00000  Uiso   1.00
C471   C     0.60125   0.43307   0.54038   0.00000  Uiso   1.00
C472   C     0.57242   0.49262   0.55620   0.00000  Uiso   1.00
C473   C     0.50676   0.59252   0.56346   0.00000  Uiso   1.00
C474   C     0.74884   0.37006   0.65418   0.00000  Uiso   1.00
C475   C     0.80494   0.35990   0.59428   0.00000  Uiso   1.00
C476   C     0.87613   0.37045   0.58606   0.00000  Uiso   1.00
C477   C     0.91886   0.35831   0.52773   0.00000  Uiso   1.00
C478   C     0.72074   0.30451   0.68436   0.00000  Uiso   1.00
C479   C     0.72112   0.26848   0.75189   0.00000  Uiso   1.00
C480   C     0.69296   0.20972   0.76940   0.00000  Uiso   1.00
C481   C     0.68610   0.41814   0.62293   0.00000  Uiso   1.00
C482   C     0.65735   0.47764   0.63882   0.00000  Uiso   1.00
C483   C     0.60001   0.51454   0.60462   0.00000  Uiso   1.00
H484   H     0.67670   0.31273   0.52758   0.00000  Uiso   1.00
H485   H     0.79871   0.30894   0.45024   0.00000  Uiso   1.00
H486   H     0.64371   0.20700   0.61604   0.00000  Uiso   1.00
H487   H     0.57996   0.41612   0.50298   0.00000  Uiso   1.00
H488   H     0.94613   0.31435   0.38581   0.00000  Uiso   1.00
H489   H     0.61929   0.09942   0.73542   0.00000  Uiso   1.00
H490   H     0.48484   0.54040   0.49702   0.00000  Uiso   1.00
H491   H     0.77028   0.38709   0.69181   0.00000  Uiso   1.00
H492   H     0.89743   0.38738   0.62347   0.00000  Uiso   1.00
H493   H     0.74243   0.28543   0.78928   0.00000  Uiso   1.00
H494   H     0.67868   0.49456   0.67622   0.00000  Uiso   1.00
H495   H     0.02626   0.37802   0.52641   0.00000  Uiso   1.00
H496   H     0.69941   0.16308   0.87603   0.00000  Uiso   1.00
H497   H     0.56497   0.60406   0.63762   0.00000  Uiso   1.00
O498   O     0.06815   0.34501   0.40821   0.00000  Uiso   1.00
O499   O     0.63933   0.06303   0.86689   0.00000  Uiso   1.00
O500   O     0.46295   0.64158   0.55410   0.00000  Uiso   1.00
N501   N     0.94753   0.32931   0.42827   0.00000  Uiso   1.00
N502   N     0.64197   0.12835   0.75514   0.00000  Uiso   1.00
N503   N     0.51626   0.54062   0.53226   0.00000  Uiso   1.00
N504   N     0.99065   0.36357   0.50393   0.00000  Uiso   1.00
N505   N     0.68508   0.16261   0.83080   0.00000  Uiso   1.00
N506   N     0.55937   0.57488   0.60792   0.00000  Uiso   1.00
C507   C     0.19332   0.35277   0.94372   0.00000  Uiso   1.00
C508   C     0.20736   0.33485   0.01847   0.00000  Uiso   1.00
C509   C     0.19932   0.27520   0.06513   0.00000  Uiso   1.00
C510   C     0.21484   0.26847   0.13110   0.00000  Uiso   1.00
C511   C     0.23315   0.23287   0.24436   0.00000  Uiso   1.00
C512   C     0.13817   0.41516   0.93430   0.00000  Uiso   1.00
C513   C     0.07197   0.42305   0.91018   0.00000  Uiso   1.00
C514   C     0.02926   0.48393   0.90528   0.00000  Uiso   1.00
C515   C     0.94018   0.57303   0.88781   0.00000  Uiso   1.00
C516   C     0.26311   0.37280   0.90181   0.00000  Uiso   1.00
C517   C     0.30195   0.34508   0.85037   0.00000  Uiso   1.00
C518   C     0.36442   0.37031   0.81811   0.00000  Uiso   1.00
C519   C     0.46933   0.39365   0.75021   0.00000  Uiso   1.00
C520   C     0.23520   0.44687   0.97790   0.00000  Uiso   1.00
C521   C     0.23010   0.38596   0.03704   0.00000  Uiso   1.00
C522   C     0.24565   0.37932   0.10295   0.00000  Uiso   1.00
C523   C     0.23763   0.31967   0.14970   0.00000  Uiso   1.00
C524   C     0.16092   0.46627   0.95286   0.00000  Uiso   1.00
C525   C     0.11830   0.52716   0.94800   0.00000  Uiso   1.00
C526   C     0.05205   0.53513   0.92388   0.00000  Uiso   1.00
C527   C     0.28586   0.42391   0.92038   0.00000  Uiso   1.00
C528   C     0.34828   0.44920   0.88820   0.00000  Uiso   1.00
C529   C     0.38721   0.42152   0.83671   0.00000  Uiso   1.00
H530   H     0.17560   0.31298   0.92926   0.00000  Uiso   1.00
H531   H     0.18170   0.23566   0.05074   0.00000  Uiso   1.00
H532   H     0.05438   0.38348   0.89580   0.00000  Uiso   1.00
H533   H     0.28433   0.30553   0.83601   0.00000  Uiso   1.00
H534   H     0.19847   0.17249   0.19362   0.00000  Uiso   1.00
H535   H     0.93002   0.48418   0.86691   0.00000  Uiso   1.00
H536   H     0.41490   0.31981   0.74082   0.00000  Uiso   1.00
H537   H     0.25290   0.48667   0.99236   0.00000  Uiso   1.00
H538   H     0.26325   0.41888   0.11731   0.00000  Uiso   1.00
H539   H     0.13592   0.56670   0.96237   0.00000  Uiso   1.00
H540   H     0.36587   0.48875   0.90258   0.00000  Uiso   1.00
H541   H     0.26466   0.32120   0.24765   0.00000  Uiso   1.00
H542   H     0.99620   0.63289   0.92094   0.00000  Uiso   1.00
H543   H     0.48108   0.46852   0.79485   0.00000  Uiso   1.00
O544   O     0.23695   0.19912   0.30170   0.00000  Uiso   1.00
O545   O     0.88476   0.60806   0.87305   0.00000  Uiso   1.00
O546   O     0.52091   0.39240   0.70763   0.00000  Uiso   1.00
N547   N     0.21265   0.21679   0.18919   0.00000  Uiso   1.00
N548   N     0.96165   0.50820   0.88374   0.00000  Uiso   1.00
N549   N     0.41496   0.35453   0.76584   0.00000  Uiso   1.00
N550   N     0.24826   0.29680   0.21826   0.00000  Uiso   1.00
N551   N     0.99726   0.58822   0.91281   0.00000  Uiso   1.00
N552   N     0.45058   0.43455   0.79492   0.00000  Uiso   1.00
