data_job_03874
_audit_creation_date              2018-12-19
_audit_creation_method            'Materials Studio'
_symmetry_space_group_name_H-M    'P1'
_symmetry_Int_Tables_number       1
_symmetry_cell_setting            triclinic
loop_
_symmetry_equiv_pos_as_xyz
  x,y,z
_cell_length_a                    12.4856
_cell_length_b                    12.4856
_cell_length_c                    44.4304
_cell_angle_alpha                 90.0000
_cell_angle_beta                  90.0000
_cell_angle_gamma                 90.0000
loop_
_atom_site_label
_atom_site_type_symbol
_atom_site_fract_x
_atom_site_fract_y
_atom_site_fract_z
_atom_site_U_iso_or_equiv
_atom_site_adp_type
_atom_site_occupancy
C1     C     0.31566   0.61922   0.32246   0.00000  Uiso   1.00
C2     C     0.37055   0.72467   0.33032   0.00000  Uiso   1.00
C3     C     0.34993   0.78673   0.35558   0.00000  Uiso   1.00
C4     C     0.40865   0.88050   0.35870   0.00000  Uiso   1.00
C5     C     0.48221   0.03963   0.37416   0.00000  Uiso   1.00
C6     C     0.26797   0.63454   0.29115   0.00000  Uiso   1.00
C7     C     0.16110   0.62081   0.28348   0.00000  Uiso   1.00
C8     C     0.13347   0.63870   0.25363   0.00000  Uiso   1.00
C9     C     0.04777   0.65782   0.20827   0.00000  Uiso   1.00
C10    C     0.40503   0.53694   0.31892   0.00000  Uiso   1.00
C11    C     0.41340   0.44113   0.33458   0.00000  Uiso   1.00
C12    C     0.50116   0.37684   0.32810   0.00000  Uiso   1.00
C13    C     0.62827   0.24443   0.32585   0.00000  Uiso   1.00
C14    C     0.45661   0.67539   0.28309   0.00000  Uiso   1.00
C15    C     0.44711   0.75518   0.30894   0.00000  Uiso   1.00
C16    C     0.50588   0.84888   0.31203   0.00000  Uiso   1.00
C17    C     0.48536   0.91107   0.33728   0.00000  Uiso   1.00
C18    C     0.34452   0.66505   0.26977   0.00000  Uiso   1.00
C19    C     0.31705   0.68295   0.23993   0.00000  Uiso   1.00
C20    C     0.21017   0.66926   0.23221   0.00000  Uiso   1.00
C21    C     0.48160   0.56745   0.29754   0.00000  Uiso   1.00
C22    C     0.56935   0.50329   0.29103   0.00000  Uiso   1.00
C23    C     0.57785   0.40740   0.30668   0.00000  Uiso   1.00
H24    H     0.25605   0.59546   0.33910   0.00000  Uiso   1.00
H25    H     0.29067   0.76310   0.37212   0.00000  Uiso   1.00
H26    H     0.10187   0.59719   0.30003   0.00000  Uiso   1.00
H27    H     0.35414   0.41755   0.35112   0.00000  Uiso   1.00
H28    H     0.36279   0.96243   0.39929   0.00000  Uiso   1.00
H29    H     0.96471   0.61256   0.24728   0.00000  Uiso   1.00
H30    H     0.49665   0.23375   0.35502   0.00000  Uiso   1.00
H31    H     0.51622   0.69914   0.26645   0.00000  Uiso   1.00
H32    H     0.56513   0.87247   0.29548   0.00000  Uiso   1.00
H33    H     0.37632   0.70656   0.22339   0.00000  Uiso   1.00
H34    H     0.62858   0.52692   0.27448   0.00000  Uiso   1.00
H35    H     0.58555   0.05120   0.33709   0.00000  Uiso   1.00
H36    H     0.18746   0.70133   0.18508   0.00000  Uiso   1.00
H37    H     0.71940   0.32253   0.29282   0.00000  Uiso   1.00
O38    O     0.50162   0.11898   0.38859   0.00000  Uiso   1.00
O39    O     0.97935   0.65995   0.18916   0.00000  Uiso   1.00
O40    O     0.67725   0.16297   0.33052   0.00000  Uiso   1.00
N41    N     0.40852   0.95952   0.38067   0.00000  Uiso   1.00
N42    N     0.03633   0.63243   0.23855   0.00000  Uiso   1.00
N43    N     0.53364   0.27827   0.33927   0.00000  Uiso   1.00
N44    N     0.52839   0.00729   0.34720   0.00000  Uiso   1.00
N45    N     0.15619   0.68020   0.20508   0.00000  Uiso   1.00
N46    N     0.65350   0.32604   0.30580   0.00000  Uiso   1.00
C47    C     0.68434   0.38078   0.82246   0.00000  Uiso   1.00
C48    C     0.62945   0.27533   0.83032   0.00000  Uiso   1.00
C49    C     0.65007   0.21327   0.85558   0.00000  Uiso   1.00
C50    C     0.59135   0.11950   0.85870   0.00000  Uiso   1.00
C51    C     0.51779   0.96037   0.87416   0.00000  Uiso   1.00
C52    C     0.73203   0.36546   0.79115   0.00000  Uiso   1.00
C53    C     0.83890   0.37919   0.78348   0.00000  Uiso   1.00
C54    C     0.86653   0.36130   0.75363   0.00000  Uiso   1.00
C55    C     0.95223   0.34218   0.70827   0.00000  Uiso   1.00
C56    C     0.59497   0.46306   0.81892   0.00000  Uiso   1.00
C57    C     0.58660   0.55887   0.83458   0.00000  Uiso   1.00
C58    C     0.49884   0.62316   0.82810   0.00000  Uiso   1.00
C59    C     0.37173   0.75557   0.82585   0.00000  Uiso   1.00
C60    C     0.54339   0.32461   0.78309   0.00000  Uiso   1.00
C61    C     0.55289   0.24482   0.80894   0.00000  Uiso   1.00
C62    C     0.49412   0.15112   0.81203   0.00000  Uiso   1.00
C63    C     0.51464   0.08893   0.83728   0.00000  Uiso   1.00
C64    C     0.65548   0.33495   0.76977   0.00000  Uiso   1.00
C65    C     0.68295   0.31705   0.73993   0.00000  Uiso   1.00
C66    C     0.78983   0.33074   0.73221   0.00000  Uiso   1.00
C67    C     0.51840   0.43255   0.79754   0.00000  Uiso   1.00
C68    C     0.43065   0.49671   0.79103   0.00000  Uiso   1.00
C69    C     0.42215   0.59260   0.80668   0.00000  Uiso   1.00
H70    H     0.74395   0.40454   0.83910   0.00000  Uiso   1.00
H71    H     0.70933   0.23690   0.87212   0.00000  Uiso   1.00
H72    H     0.89813   0.40281   0.80003   0.00000  Uiso   1.00
H73    H     0.64586   0.58245   0.85112   0.00000  Uiso   1.00
H74    H     0.63721   0.03757   0.89929   0.00000  Uiso   1.00
H75    H     0.03529   0.38744   0.74728   0.00000  Uiso   1.00
H76    H     0.50335   0.76625   0.85502   0.00000  Uiso   1.00
H77    H     0.48378   0.30086   0.76645   0.00000  Uiso   1.00
H78    H     0.43487   0.12753   0.79548   0.00000  Uiso   1.00
H79    H     0.62368   0.29344   0.72339   0.00000  Uiso   1.00
H80    H     0.37142   0.47308   0.77448   0.00000  Uiso   1.00
H81    H     0.41445   0.94880   0.83709   0.00000  Uiso   1.00
H82    H     0.81254   0.29867   0.68508   0.00000  Uiso   1.00
H83    H     0.28060   0.67747   0.79282   0.00000  Uiso   1.00
O84    O     0.49838   0.88102   0.88859   0.00000  Uiso   1.00
O85    O     0.02065   0.34005   0.68916   0.00000  Uiso   1.00
O86    O     0.32275   0.83703   0.83052   0.00000  Uiso   1.00
N87    N     0.59148   0.04048   0.88067   0.00000  Uiso   1.00
N88    N     0.96367   0.36757   0.73855   0.00000  Uiso   1.00
N89    N     0.46636   0.72173   0.83927   0.00000  Uiso   1.00
N90    N     0.47161   0.99271   0.84720   0.00000  Uiso   1.00
N91    N     0.84381   0.31980   0.70508   0.00000  Uiso   1.00
N92    N     0.34650   0.67396   0.80580   0.00000  Uiso   1.00
C93    C     0.38078   0.31566   0.57246   0.00000  Uiso   1.00
C94    C     0.27533   0.37055   0.58032   0.00000  Uiso   1.00
C95    C     0.21327   0.34993   0.60558   0.00000  Uiso   1.00
C96    C     0.11950   0.40865   0.60870   0.00000  Uiso   1.00
C97    C     0.96037   0.48221   0.62416   0.00000  Uiso   1.00
C98    C     0.36546   0.26797   0.54115   0.00000  Uiso   1.00
C99    C     0.37919   0.16110   0.53348   0.00000  Uiso   1.00
C100   C     0.36130   0.13347   0.50363   0.00000  Uiso   1.00
C101   C     0.34218   0.04777   0.45827   0.00000  Uiso   1.00
C102   C     0.46306   0.40503   0.56892   0.00000  Uiso   1.00
C103   C     0.55887   0.41340   0.58458   0.00000  Uiso   1.00
C104   C     0.62316   0.50116   0.57810   0.00000  Uiso   1.00
C105   C     0.75557   0.62827   0.57585   0.00000  Uiso   1.00
C106   C     0.32461   0.45661   0.53309   0.00000  Uiso   1.00
C107   C     0.24482   0.44711   0.55894   0.00000  Uiso   1.00
C108   C     0.15112   0.50588   0.56203   0.00000  Uiso   1.00
C109   C     0.08893   0.48536   0.58728   0.00000  Uiso   1.00
C110   C     0.33495   0.34452   0.51977   0.00000  Uiso   1.00
C111   C     0.31705   0.31705   0.48993   0.00000  Uiso   1.00
C112   C     0.33074   0.21017   0.48221   0.00000  Uiso   1.00
C113   C     0.43255   0.48160   0.54754   0.00000  Uiso   1.00
C114   C     0.49671   0.56935   0.54103   0.00000  Uiso   1.00
C115   C     0.59260   0.57785   0.55668   0.00000  Uiso   1.00
H116   H     0.40454   0.25605   0.58910   0.00000  Uiso   1.00
H117   H     0.23690   0.29067   0.62212   0.00000  Uiso   1.00
H118   H     0.40281   0.10187   0.55003   0.00000  Uiso   1.00
H119   H     0.58245   0.35414   0.60112   0.00000  Uiso   1.00
H120   H     0.03757   0.36279   0.64929   0.00000  Uiso   1.00
H121   H     0.38744   0.96471   0.49728   0.00000  Uiso   1.00
H122   H     0.76625   0.49665   0.60502   0.00000  Uiso   1.00
H123   H     0.30086   0.51622   0.51645   0.00000  Uiso   1.00
H124   H     0.12753   0.56513   0.54548   0.00000  Uiso   1.00
H125   H     0.29344   0.37632   0.47339   0.00000  Uiso   1.00
H126   H     0.47308   0.62858   0.52448   0.00000  Uiso   1.00
H127   H     0.94880   0.58555   0.58709   0.00000  Uiso   1.00
H128   H     0.29867   0.18746   0.43508   0.00000  Uiso   1.00
H129   H     0.67747   0.71940   0.54282   0.00000  Uiso   1.00
O130   O     0.88102   0.50162   0.63859   0.00000  Uiso   1.00
O131   O     0.34005   0.97935   0.43916   0.00000  Uiso   1.00
O132   O     0.83703   0.67725   0.58052   0.00000  Uiso   1.00
N133   N     0.04048   0.40852   0.63067   0.00000  Uiso   1.00
N134   N     0.36757   0.03633   0.48855   0.00000  Uiso   1.00
N135   N     0.72173   0.53364   0.58927   0.00000  Uiso   1.00
N136   N     0.99271   0.52839   0.59720   0.00000  Uiso   1.00
N137   N     0.31980   0.15619   0.45508   0.00000  Uiso   1.00
N138   N     0.67396   0.65350   0.55580   0.00000  Uiso   1.00
C139   C     0.61922   0.68434   0.07246   0.00000  Uiso   1.00
C140   C     0.72467   0.62945   0.08032   0.00000  Uiso   1.00
C141   C     0.78673   0.65007   0.10558   0.00000  Uiso   1.00
C142   C     0.88050   0.59135   0.10870   0.00000  Uiso   1.00
C143   C     0.03963   0.51779   0.12416   0.00000  Uiso   1.00
C144   C     0.63454   0.73203   0.04115   0.00000  Uiso   1.00
C145   C     0.62081   0.83890   0.03348   0.00000  Uiso   1.00
C146   C     0.63870   0.86653   0.00363   0.00000  Uiso   1.00
C147   C     0.65782   0.95223   0.95827   0.00000  Uiso   1.00
C148   C     0.53694   0.59497   0.06892   0.00000  Uiso   1.00
C149   C     0.44113   0.58660   0.08458   0.00000  Uiso   1.00
C150   C     0.37684   0.49884   0.07810   0.00000  Uiso   1.00
C151   C     0.24443   0.37173   0.07585   0.00000  Uiso   1.00
C152   C     0.67539   0.54339   0.03309   0.00000  Uiso   1.00
C153   C     0.75518   0.55289   0.05894   0.00000  Uiso   1.00
C154   C     0.84888   0.49412   0.06203   0.00000  Uiso   1.00
C155   C     0.91107   0.51464   0.08728   0.00000  Uiso   1.00
C156   C     0.66505   0.65548   0.01977   0.00000  Uiso   1.00
C157   C     0.68295   0.68295   0.98993   0.00000  Uiso   1.00
C158   C     0.66926   0.78983   0.98221   0.00000  Uiso   1.00
C159   C     0.56745   0.51840   0.04754   0.00000  Uiso   1.00
C160   C     0.50329   0.43065   0.04103   0.00000  Uiso   1.00
C161   C     0.40740   0.42215   0.05668   0.00000  Uiso   1.00
H162   H     0.59546   0.74395   0.08910   0.00000  Uiso   1.00
H163   H     0.76310   0.70933   0.12212   0.00000  Uiso   1.00
H164   H     0.59719   0.89813   0.05003   0.00000  Uiso   1.00
H165   H     0.41755   0.64586   0.10112   0.00000  Uiso   1.00
H166   H     0.96243   0.63721   0.14929   0.00000  Uiso   1.00
H167   H     0.61256   0.03529   0.99728   0.00000  Uiso   1.00
H168   H     0.23375   0.50335   0.10502   0.00000  Uiso   1.00
H169   H     0.69914   0.48378   0.01645   0.00000  Uiso   1.00
H170   H     0.87247   0.43487   0.04548   0.00000  Uiso   1.00
H171   H     0.70656   0.62368   0.97339   0.00000  Uiso   1.00
H172   H     0.52692   0.37142   0.02448   0.00000  Uiso   1.00
H173   H     0.05120   0.41445   0.08709   0.00000  Uiso   1.00
H174   H     0.70133   0.81254   0.93508   0.00000  Uiso   1.00
H175   H     0.32253   0.28060   0.04282   0.00000  Uiso   1.00
O176   O     0.11898   0.49838   0.13859   0.00000  Uiso   1.00
O177   O     0.65995   0.02065   0.93916   0.00000  Uiso   1.00
O178   O     0.16297   0.32275   0.08052   0.00000  Uiso   1.00
N179   N     0.95952   0.59148   0.13067   0.00000  Uiso   1.00
N180   N     0.63243   0.96367   0.98855   0.00000  Uiso   1.00
N181   N     0.27827   0.46636   0.08927   0.00000  Uiso   1.00
N182   N     0.00729   0.47161   0.09720   0.00000  Uiso   1.00
N183   N     0.68020   0.84381   0.95508   0.00000  Uiso   1.00
N184   N     0.32604   0.34650   0.05580   0.00000  Uiso   1.00
C185   C     0.68434   0.61922   0.67754   0.00000  Uiso   1.00
C186   C     0.62945   0.72467   0.66968   0.00000  Uiso   1.00
C187   C     0.65007   0.78673   0.64442   0.00000  Uiso   1.00
C188   C     0.59135   0.88050   0.64130   0.00000  Uiso   1.00
C189   C     0.51779   0.03963   0.62584   0.00000  Uiso   1.00
C190   C     0.73203   0.63454   0.70885   0.00000  Uiso   1.00
C191   C     0.83890   0.62081   0.71652   0.00000  Uiso   1.00
C192   C     0.86653   0.63870   0.74637   0.00000  Uiso   1.00
C193   C     0.95223   0.65782   0.79173   0.00000  Uiso   1.00
C194   C     0.59497   0.53694   0.68108   0.00000  Uiso   1.00
C195   C     0.58660   0.44113   0.66542   0.00000  Uiso   1.00
C196   C     0.49884   0.37684   0.67190   0.00000  Uiso   1.00
C197   C     0.37173   0.24443   0.67415   0.00000  Uiso   1.00
C198   C     0.54339   0.67539   0.71691   0.00000  Uiso   1.00
C199   C     0.55289   0.75518   0.69106   0.00000  Uiso   1.00
C200   C     0.49412   0.84888   0.68797   0.00000  Uiso   1.00
C201   C     0.51464   0.91107   0.66272   0.00000  Uiso   1.00
C202   C     0.65548   0.66505   0.73023   0.00000  Uiso   1.00
C203   C     0.68295   0.68295   0.76007   0.00000  Uiso   1.00
C204   C     0.78983   0.66926   0.76779   0.00000  Uiso   1.00
C205   C     0.51840   0.56745   0.70246   0.00000  Uiso   1.00
C206   C     0.43065   0.50329   0.70897   0.00000  Uiso   1.00
C207   C     0.42215   0.40740   0.69332   0.00000  Uiso   1.00
H208   H     0.74395   0.59546   0.66090   0.00000  Uiso   1.00
H209   H     0.70933   0.76310   0.62788   0.00000  Uiso   1.00
H210   H     0.89813   0.59719   0.69997   0.00000  Uiso   1.00
H211   H     0.64586   0.41755   0.64888   0.00000  Uiso   1.00
H212   H     0.63721   0.96243   0.60071   0.00000  Uiso   1.00
H213   H     0.03529   0.61256   0.75272   0.00000  Uiso   1.00
H214   H     0.50335   0.23375   0.64498   0.00000  Uiso   1.00
H215   H     0.48378   0.69914   0.73355   0.00000  Uiso   1.00
H216   H     0.43487   0.87247   0.70452   0.00000  Uiso   1.00
H217   H     0.62368   0.70656   0.77661   0.00000  Uiso   1.00
H218   H     0.37142   0.52692   0.72552   0.00000  Uiso   1.00
H219   H     0.41445   0.05120   0.66291   0.00000  Uiso   1.00
H220   H     0.81254   0.70133   0.81492   0.00000  Uiso   1.00
H221   H     0.28060   0.32253   0.70718   0.00000  Uiso   1.00
O222   O     0.49838   0.11898   0.61141   0.00000  Uiso   1.00
O223   O     0.02065   0.65995   0.81084   0.00000  Uiso   1.00
O224   O     0.32275   0.16297   0.66948   0.00000  Uiso   1.00
N225   N     0.59148   0.95952   0.61933   0.00000  Uiso   1.00
N226   N     0.96367   0.63243   0.76145   0.00000  Uiso   1.00
N227   N     0.46636   0.27827   0.66073   0.00000  Uiso   1.00
N228   N     0.47161   0.00729   0.65280   0.00000  Uiso   1.00
N229   N     0.84381   0.68020   0.79492   0.00000  Uiso   1.00
N230   N     0.34650   0.32604   0.69420   0.00000  Uiso   1.00
C231   C     0.31566   0.38078   0.17754   0.00000  Uiso   1.00
C232   C     0.37055   0.27533   0.16968   0.00000  Uiso   1.00
C233   C     0.34993   0.21327   0.14442   0.00000  Uiso   1.00
C234   C     0.40865   0.11950   0.14130   0.00000  Uiso   1.00
C235   C     0.48221   0.96037   0.12584   0.00000  Uiso   1.00
C236   C     0.26797   0.36546   0.20885   0.00000  Uiso   1.00
C237   C     0.16110   0.37919   0.21652   0.00000  Uiso   1.00
C238   C     0.13347   0.36130   0.24637   0.00000  Uiso   1.00
C239   C     0.04777   0.34218   0.29173   0.00000  Uiso   1.00
C240   C     0.40503   0.46306   0.18108   0.00000  Uiso   1.00
C241   C     0.41340   0.55887   0.16542   0.00000  Uiso   1.00
C242   C     0.50116   0.62316   0.17190   0.00000  Uiso   1.00
C243   C     0.62827   0.75557   0.17415   0.00000  Uiso   1.00
C244   C     0.45661   0.32461   0.21691   0.00000  Uiso   1.00
C245   C     0.44711   0.24482   0.19106   0.00000  Uiso   1.00
C246   C     0.50588   0.15112   0.18797   0.00000  Uiso   1.00
C247   C     0.48536   0.08893   0.16272   0.00000  Uiso   1.00
C248   C     0.34452   0.33495   0.23023   0.00000  Uiso   1.00
C249   C     0.31705   0.31705   0.26007   0.00000  Uiso   1.00
C250   C     0.21017   0.33074   0.26779   0.00000  Uiso   1.00
C251   C     0.48160   0.43255   0.20246   0.00000  Uiso   1.00
C252   C     0.56935   0.49671   0.20897   0.00000  Uiso   1.00
C253   C     0.57785   0.59260   0.19332   0.00000  Uiso   1.00
H254   H     0.25605   0.40454   0.16090   0.00000  Uiso   1.00
H255   H     0.29067   0.23690   0.12788   0.00000  Uiso   1.00
H256   H     0.10187   0.40281   0.19997   0.00000  Uiso   1.00
H257   H     0.35414   0.58245   0.14888   0.00000  Uiso   1.00
H258   H     0.36279   0.03757   0.10071   0.00000  Uiso   1.00
H259   H     0.96471   0.38744   0.25272   0.00000  Uiso   1.00
H260   H     0.49665   0.76625   0.14498   0.00000  Uiso   1.00
H261   H     0.51622   0.30086   0.23355   0.00000  Uiso   1.00
H262   H     0.56513   0.12753   0.20452   0.00000  Uiso   1.00
H263   H     0.37632   0.29344   0.27661   0.00000  Uiso   1.00
H264   H     0.62858   0.47308   0.22552   0.00000  Uiso   1.00
H265   H     0.58555   0.94880   0.16291   0.00000  Uiso   1.00
H266   H     0.18746   0.29867   0.31492   0.00000  Uiso   1.00
H267   H     0.71940   0.67747   0.20718   0.00000  Uiso   1.00
O268   O     0.50162   0.88102   0.11141   0.00000  Uiso   1.00
O269   O     0.97935   0.34005   0.31084   0.00000  Uiso   1.00
O270   O     0.67725   0.83703   0.16948   0.00000  Uiso   1.00
N271   N     0.40852   0.04048   0.11933   0.00000  Uiso   1.00
N272   N     0.03633   0.36757   0.26145   0.00000  Uiso   1.00
N273   N     0.53364   0.72173   0.16073   0.00000  Uiso   1.00
N274   N     0.52839   0.99271   0.15280   0.00000  Uiso   1.00
N275   N     0.15619   0.31980   0.29492   0.00000  Uiso   1.00
N276   N     0.65350   0.67396   0.19420   0.00000  Uiso   1.00
C277   C     0.61922   0.31566   0.42754   0.00000  Uiso   1.00
C278   C     0.72467   0.37055   0.41968   0.00000  Uiso   1.00
C279   C     0.78673   0.34993   0.39442   0.00000  Uiso   1.00
C280   C     0.88050   0.40865   0.39130   0.00000  Uiso   1.00
C281   C     0.03963   0.48221   0.37584   0.00000  Uiso   1.00
C282   C     0.63454   0.26797   0.45885   0.00000  Uiso   1.00
C283   C     0.62081   0.16110   0.46652   0.00000  Uiso   1.00
C284   C     0.63870   0.13347   0.49637   0.00000  Uiso   1.00
C285   C     0.65782   0.04777   0.54173   0.00000  Uiso   1.00
C286   C     0.53694   0.40503   0.43108   0.00000  Uiso   1.00
C287   C     0.44113   0.41340   0.41542   0.00000  Uiso   1.00
C288   C     0.37684   0.50116   0.42190   0.00000  Uiso   1.00
C289   C     0.24443   0.62827   0.42415   0.00000  Uiso   1.00
C290   C     0.67539   0.45661   0.46691   0.00000  Uiso   1.00
C291   C     0.75518   0.44711   0.44106   0.00000  Uiso   1.00
C292   C     0.84888   0.50588   0.43797   0.00000  Uiso   1.00
C293   C     0.91107   0.48536   0.41272   0.00000  Uiso   1.00
C294   C     0.66505   0.34452   0.48023   0.00000  Uiso   1.00
C295   C     0.68295   0.31705   0.51007   0.00000  Uiso   1.00
C296   C     0.66926   0.21017   0.51779   0.00000  Uiso   1.00
C297   C     0.56745   0.48160   0.45246   0.00000  Uiso   1.00
C298   C     0.50329   0.56935   0.45897   0.00000  Uiso   1.00
C299   C     0.40740   0.57785   0.44332   0.00000  Uiso   1.00
H300   H     0.59546   0.25605   0.41090   0.00000  Uiso   1.00
H301   H     0.76310   0.29067   0.37788   0.00000  Uiso   1.00
H302   H     0.59719   0.10187   0.44997   0.00000  Uiso   1.00
H303   H     0.41755   0.35414   0.39888   0.00000  Uiso   1.00
H304   H     0.96243   0.36279   0.35071   0.00000  Uiso   1.00
H305   H     0.61256   0.96471   0.50272   0.00000  Uiso   1.00
H306   H     0.23375   0.49665   0.39498   0.00000  Uiso   1.00
H307   H     0.69914   0.51622   0.48355   0.00000  Uiso   1.00
H308   H     0.87247   0.56513   0.45452   0.00000  Uiso   1.00
H309   H     0.70656   0.37632   0.52661   0.00000  Uiso   1.00
H310   H     0.52692   0.62858   0.47552   0.00000  Uiso   1.00
H311   H     0.05120   0.58555   0.41291   0.00000  Uiso   1.00
H312   H     0.70133   0.18746   0.56492   0.00000  Uiso   1.00
H313   H     0.32253   0.71940   0.45718   0.00000  Uiso   1.00
O314   O     0.11898   0.50162   0.36141   0.00000  Uiso   1.00
O315   O     0.65995   0.97935   0.56084   0.00000  Uiso   1.00
O316   O     0.16297   0.67725   0.41948   0.00000  Uiso   1.00
N317   N     0.95952   0.40852   0.36933   0.00000  Uiso   1.00
N318   N     0.63243   0.03633   0.51145   0.00000  Uiso   1.00
N319   N     0.27827   0.53364   0.41073   0.00000  Uiso   1.00
N320   N     0.00729   0.52839   0.40280   0.00000  Uiso   1.00
N321   N     0.68020   0.15619   0.54492   0.00000  Uiso   1.00
N322   N     0.32604   0.65350   0.44420   0.00000  Uiso   1.00
C323   C     0.38078   0.68434   0.92754   0.00000  Uiso   1.00
C324   C     0.27533   0.62945   0.91968   0.00000  Uiso   1.00
C325   C     0.21327   0.65007   0.89442   0.00000  Uiso   1.00
C326   C     0.11950   0.59135   0.89130   0.00000  Uiso   1.00
C327   C     0.96037   0.51779   0.87584   0.00000  Uiso   1.00
C328   C     0.36546   0.73203   0.95885   0.00000  Uiso   1.00
C329   C     0.37919   0.83890   0.96652   0.00000  Uiso   1.00
C330   C     0.36130   0.86653   0.99637   0.00000  Uiso   1.00
C331   C     0.34218   0.95223   0.04173   0.00000  Uiso   1.00
C332   C     0.46306   0.59497   0.93108   0.00000  Uiso   1.00
C333   C     0.55887   0.58660   0.91542   0.00000  Uiso   1.00
C334   C     0.62316   0.49884   0.92190   0.00000  Uiso   1.00
C335   C     0.75557   0.37173   0.92415   0.00000  Uiso   1.00
C336   C     0.32461   0.54339   0.96691   0.00000  Uiso   1.00
C337   C     0.24482   0.55289   0.94106   0.00000  Uiso   1.00
C338   C     0.15112   0.49412   0.93797   0.00000  Uiso   1.00
C339   C     0.08893   0.51464   0.91272   0.00000  Uiso   1.00
C340   C     0.33495   0.65548   0.98023   0.00000  Uiso   1.00
C341   C     0.31705   0.68295   0.01007   0.00000  Uiso   1.00
C342   C     0.33074   0.78983   0.01779   0.00000  Uiso   1.00
C343   C     0.43255   0.51840   0.95246   0.00000  Uiso   1.00
C344   C     0.49671   0.43065   0.95897   0.00000  Uiso   1.00
C345   C     0.59260   0.42215   0.94332   0.00000  Uiso   1.00
H346   H     0.40454   0.74395   0.91090   0.00000  Uiso   1.00
H347   H     0.23690   0.70933   0.87788   0.00000  Uiso   1.00
H348   H     0.40281   0.89813   0.94997   0.00000  Uiso   1.00
H349   H     0.58245   0.64586   0.89888   0.00000  Uiso   1.00
H350   H     0.03757   0.63721   0.85071   0.00000  Uiso   1.00
H351   H     0.38744   0.03529   0.00272   0.00000  Uiso   1.00
H352   H     0.76625   0.50335   0.89498   0.00000  Uiso   1.00
H353   H     0.30086   0.48378   0.98355   0.00000  Uiso   1.00
H354   H     0.12753   0.43487   0.95452   0.00000  Uiso   1.00
H355   H     0.29344   0.62368   0.02661   0.00000  Uiso   1.00
H356   H     0.47308   0.37142   0.97552   0.00000  Uiso   1.00
H357   H     0.94880   0.41445   0.91291   0.00000  Uiso   1.00
H358   H     0.29867   0.81254   0.06492   0.00000  Uiso   1.00
H359   H     0.67747   0.28060   0.95718   0.00000  Uiso   1.00
O360   O     0.88102   0.49838   0.86141   0.00000  Uiso   1.00
O361   O     0.34005   0.02065   0.06084   0.00000  Uiso   1.00
O362   O     0.83703   0.32275   0.91948   0.00000  Uiso   1.00
N363   N     0.04048   0.59148   0.86933   0.00000  Uiso   1.00
N364   N     0.36757   0.96367   0.01145   0.00000  Uiso   1.00
N365   N     0.72173   0.46636   0.91073   0.00000  Uiso   1.00
N366   N     0.99271   0.47161   0.90280   0.00000  Uiso   1.00
N367   N     0.31980   0.84381   0.04492   0.00000  Uiso   1.00
N368   N     0.67396   0.34650   0.94420   0.00000  Uiso   1.00
