data_job_06076
_audit_creation_date              2018-12-19
_audit_creation_method            'Materials Studio'
_symmetry_space_group_name_H-M    'P1'
_symmetry_Int_Tables_number       1
_symmetry_cell_setting            triclinic
loop_
_symmetry_equiv_pos_as_xyz
  x,y,z
_cell_length_a                    12.0807
_cell_length_b                    24.3486
_cell_length_c                    24.3894
_cell_angle_alpha                 62.6040
_cell_angle_beta                  81.0190
_cell_angle_gamma                 98.9565
loop_
_atom_site_label
_atom_site_type_symbol
_atom_site_fract_x
_atom_site_fract_y
_atom_site_fract_z
_atom_site_U_iso_or_equiv
_atom_site_adp_type
_atom_site_occupancy
C1     C     0.45061   0.41088   0.17633   0.00000  Uiso   1.00
C2     C     0.40275   0.35646   0.24528   0.00000  Uiso   1.00
C3     C     0.35216   0.36228   0.29683   0.00000  Uiso   1.00
C4     C     0.31383   0.30679   0.35609   0.00000  Uiso   1.00
C5     C     0.23776   0.23130   0.46204   0.00000  Uiso   1.00
C6     C     0.57676   0.41092   0.15648   0.00000  Uiso   1.00
C7     C     0.67246   0.46253   0.13337   0.00000  Uiso   1.00
C8     C     0.78060   0.45289   0.11786   0.00000  Uiso   1.00
C9     C     0.97467   0.46196   0.08591   0.00000  Uiso   1.00
C10    C     0.38734   0.39064   0.13650   0.00000  Uiso   1.00
C11    C     0.32380   0.42521   0.09658   0.00000  Uiso   1.00
C12    C     0.27249   0.39851   0.06425   0.00000  Uiso   1.00
C13    C     0.17245   0.37609   0.00128   0.00000  Uiso   1.00
C14    C     0.47249   0.30199   0.18988   0.00000  Uiso   1.00
C15    C     0.41464   0.29731   0.25264   0.00000  Uiso   1.00
C16    C     0.37637   0.24180   0.31183   0.00000  Uiso   1.00
C17    C     0.32573   0.24754   0.36347   0.00000  Uiso   1.00
C18    C     0.58864   0.35177   0.16384   0.00000  Uiso   1.00
C19    C     0.69667   0.34206   0.14836   0.00000  Uiso   1.00
C20    C     0.79251   0.39364   0.12524   0.00000  Uiso   1.00
C21    C     0.39922   0.33149   0.14387   0.00000  Uiso   1.00
C22    C     0.34801   0.30474   0.11158   0.00000  Uiso   1.00
C23    C     0.28440   0.33926   0.07162   0.00000  Uiso   1.00
H24    H     0.44137   0.45692   0.17059   0.00000  Uiso   1.00
H25    H     0.34299   0.40806   0.29112   0.00000  Uiso   1.00
H26    H     0.66323   0.50830   0.12767   0.00000  Uiso   1.00
H27    H     0.31462   0.47098   0.09090   0.00000  Uiso   1.00
H28    H     0.23920   0.32780   0.42800   0.00000  Uiso   1.00
H29    H     0.91445   0.53917   0.08334   0.00000  Uiso   1.00
H30    H     0.17934   0.46048   0.00579   0.00000  Uiso   1.00
H31    H     0.48175   0.25594   0.19561   0.00000  Uiso   1.00
H32    H     0.38558   0.19604   0.31751   0.00000  Uiso   1.00
H33    H     0.70583   0.29628   0.15406   0.00000  Uiso   1.00
H34    H     0.35722   0.25897   0.11729   0.00000  Uiso   1.00
H35    H     0.27378   0.15572   0.44942   0.00000  Uiso   1.00
H36    H     0.94903   0.36709   0.10475   0.00000  Uiso   1.00
H37    H     0.21391   0.28840   0.02721   0.00000  Uiso   1.00
O38    O     0.19254   0.20599   0.51845   0.00000  Uiso   1.00
O39    O     0.07843   0.48330   0.06626   0.00000  Uiso   1.00
O40    O     0.11398   0.38006   0.96453   0.00000  Uiso   1.00
N41    N     0.26051   0.29552   0.41631   0.00000  Uiso   1.00
N42    N     0.89184   0.49313   0.09408   0.00000  Uiso   1.00
N43    N     0.20459   0.41958   0.02157   0.00000  Uiso   1.00
N44    N     0.27912   0.20293   0.42783   0.00000  Uiso   1.00
N45    N     0.91044   0.40054   0.10561   0.00000  Uiso   1.00
N46    N     0.22320   0.32698   0.03309   0.00000  Uiso   1.00
C47    C     0.04189   0.41389   0.40911   0.00000  Uiso   1.00
C48    C     0.04685   0.39919   0.35451   0.00000  Uiso   1.00
C49    C     0.99092   0.34204   0.35976   0.00000  Uiso   1.00
C50    C     0.00638   0.33806   0.30420   0.00000  Uiso   1.00
C51    C     0.00364   0.30741   0.22835   0.00000  Uiso   1.00
C52    C     0.16743   0.43314   0.41030   0.00000  Uiso   1.00
C53    C     0.21287   0.40453   0.46246   0.00000  Uiso   1.00
C54    C     0.32983   0.42913   0.45387   0.00000  Uiso   1.00
C55    C     0.51427   0.45121   0.46465   0.00000  Uiso   1.00
C56    C     0.99839   0.47415   0.38853   0.00000  Uiso   1.00
C57    C     0.90171   0.48003   0.42237   0.00000  Uiso   1.00
C58    C     0.87636   0.53916   0.39546   0.00000  Uiso   1.00
C59    C     0.79833   0.62491   0.37242   0.00000  Uiso   1.00
C60    C     0.16881   0.50845   0.30113   0.00000  Uiso   1.00
C61    C     0.11580   0.45056   0.29586   0.00000  Uiso   1.00
C62    C     0.13134   0.44666   0.24029   0.00000  Uiso   1.00
C63    C     0.07544   0.38951   0.24544   0.00000  Uiso   1.00
C64    C     0.23637   0.48450   0.35166   0.00000  Uiso   1.00
C65    C     0.35329   0.50915   0.34299   0.00000  Uiso   1.00
C66    C     0.39889   0.48058   0.39511   0.00000  Uiso   1.00
C67    C     0.06732   0.52551   0.32987   0.00000  Uiso   1.00
C68    C     0.04213   0.58464   0.30290   0.00000  Uiso   1.00
C69    C     0.94542   0.59061   0.33670   0.00000  Uiso   1.00
H70    H     0.98823   0.37391   0.45478   0.00000  Uiso   1.00
H71    H     0.93758   0.30231   0.40515   0.00000  Uiso   1.00
H72    H     0.15950   0.36479   0.50784   0.00000  Uiso   1.00
H73    H     0.84838   0.44027   0.46776   0.00000  Uiso   1.00
H74    H     0.91187   0.24556   0.32428   0.00000  Uiso   1.00
H75    H     0.37977   0.37732   0.54081   0.00000  Uiso   1.00
H76    H     0.72373   0.53650   0.45629   0.00000  Uiso   1.00
H77    H     0.22249   0.54844   0.25547   0.00000  Uiso   1.00
H78    H     0.18469   0.48641   0.19491   0.00000  Uiso   1.00
H79    H     0.40661   0.54889   0.29760   0.00000  Uiso   1.00
H80    H     0.09549   0.62438   0.25751   0.00000  Uiso   1.00
H81    H     0.11244   0.39499   0.15363   0.00000  Uiso   1.00
H82    H     0.58034   0.52675   0.37017   0.00000  Uiso   1.00
H83    H     0.92430   0.68592   0.28564   0.00000  Uiso   1.00
O84    O     0.98310   0.27632   0.20271   0.00000  Uiso   1.00
O85    O     0.59696   0.44919   0.48680   0.00000  Uiso   1.00
O86    O     0.73624   0.65802   0.37591   0.00000  Uiso   1.00
N87    N     0.96424   0.28925   0.29242   0.00000  Uiso   1.00
N88    N     0.40171   0.41243   0.49487   0.00000  Uiso   1.00
N89    N     0.78838   0.56125   0.41586   0.00000  Uiso   1.00
N90    N     0.07217   0.36965   0.20060   0.00000  Uiso   1.00
N91    N     0.50963   0.49284   0.40304   0.00000  Uiso   1.00
N92    N     0.89630   0.64165   0.32403   0.00000  Uiso   1.00
C93    C     0.62900   0.17792   0.41194   0.00000  Uiso   1.00
C94    C     0.64807   0.24714   0.39748   0.00000  Uiso   1.00
C95    C     0.64755   0.29895   0.34021   0.00000  Uiso   1.00
C96    C     0.66673   0.35844   0.33649   0.00000  Uiso   1.00
C97    C     0.69351   0.46482   0.30616   0.00000  Uiso   1.00
C98    C     0.73542   0.15702   0.43216   0.00000  Uiso   1.00
C99    C     0.80833   0.13305   0.40405   0.00000  Uiso   1.00
C100   C     0.90103   0.11667   0.42953   0.00000  Uiso   1.00
C101   C     0.06336   0.08309   0.45308   0.00000  Uiso   1.00
C102   C     0.52750   0.13884   0.47143   0.00000  Uiso   1.00
C103   C     0.42559   0.09956   0.47636   0.00000  Uiso   1.00
C104   C     0.34324   0.06785   0.53491   0.00000  Uiso   1.00
C105   C     0.18275   0.00603   0.61943   0.00000  Uiso   1.00
C106   C     0.66397   0.19142   0.50717   0.00000  Uiso   1.00
C107   C     0.66707   0.25448   0.44921   0.00000  Uiso   1.00
C108   C     0.68624   0.31390   0.44558   0.00000  Uiso   1.00
C109   C     0.68576   0.36579   0.38831   0.00000  Uiso   1.00
C110   C     0.75441   0.16436   0.48388   0.00000  Uiso   1.00
C111   C     0.84702   0.14800   0.50942   0.00000  Uiso   1.00
C112   C     0.92006   0.12401   0.48135   0.00000  Uiso   1.00
C113   C     0.54649   0.14617   0.52316   0.00000  Uiso   1.00
C114   C     0.46428   0.11451   0.58172   0.00000  Uiso   1.00
C115   C     0.36227   0.07520   0.58673   0.00000  Uiso   1.00
H116   H     0.61422   0.17220   0.37166   0.00000  Uiso   1.00
H117   H     0.63286   0.29326   0.30019   0.00000  Uiso   1.00
H118   H     0.79360   0.12738   0.36403   0.00000  Uiso   1.00
H119   H     0.41093   0.09390   0.43632   0.00000  Uiso   1.00
H120   H     0.66195   0.43071   0.24375   0.00000  Uiso   1.00
H121   H     0.00086   0.08092   0.37837   0.00000  Uiso   1.00
H122   H     0.19391   0.01031   0.53081   0.00000  Uiso   1.00
H123   H     0.67876   0.19713   0.54745   0.00000  Uiso   1.00
H124   H     0.70094   0.31956   0.48561   0.00000  Uiso   1.00
H125   H     0.86169   0.15368   0.54945   0.00000  Uiso   1.00
H126   H     0.47901   0.12020   0.62174   0.00000  Uiso   1.00
H127   H     0.71721   0.45206   0.39424   0.00000  Uiso   1.00
H128   H     0.05612   0.10226   0.52886   0.00000  Uiso   1.00
H129   H     0.24917   0.03166   0.68130   0.00000  Uiso   1.00
O130   O     0.70305   0.52147   0.27514   0.00000  Uiso   1.00
O131   O     0.14766   0.06255   0.45176   0.00000  Uiso   1.00
O132   O     0.08897   0.96992   0.65176   0.00000  Uiso   1.00
N133   N     0.67189   0.41893   0.28766   0.00000  Uiso   1.00
N134   N     0.98876   0.09191   0.41351   0.00000  Uiso   1.00
N135   N     0.23434   0.02588   0.55603   0.00000  Uiso   1.00
N136   N     0.70162   0.43042   0.36864   0.00000  Uiso   1.00
N137   N     0.01849   0.10339   0.49449   0.00000  Uiso   1.00
N138   N     0.26408   0.03737   0.63702   0.00000  Uiso   1.00
C139   C     0.54939   0.58912   0.82367   0.00000  Uiso   1.00
C140   C     0.59725   0.64354   0.75472   0.00000  Uiso   1.00
C141   C     0.64784   0.63772   0.70317   0.00000  Uiso   1.00
C142   C     0.68617   0.69321   0.64391   0.00000  Uiso   1.00
C143   C     0.76224   0.76870   0.53796   0.00000  Uiso   1.00
C144   C     0.42324   0.58908   0.84352   0.00000  Uiso   1.00
C145   C     0.32754   0.53747   0.86663   0.00000  Uiso   1.00
C146   C     0.21940   0.54711   0.88214   0.00000  Uiso   1.00
C147   C     0.02533   0.53804   0.91409   0.00000  Uiso   1.00
C148   C     0.61266   0.60936   0.86349   0.00000  Uiso   1.00
C149   C     0.67620   0.57479   0.90342   0.00000  Uiso   1.00
C150   C     0.72751   0.60149   0.93575   0.00000  Uiso   1.00
C151   C     0.82755   0.62391   0.99872   0.00000  Uiso   1.00
C152   C     0.52750   0.69801   0.81012   0.00000  Uiso   1.00
C153   C     0.58536   0.70269   0.74736   0.00000  Uiso   1.00
C154   C     0.62363   0.75820   0.68817   0.00000  Uiso   1.00
C155   C     0.67427   0.75246   0.63653   0.00000  Uiso   1.00
C156   C     0.41136   0.64823   0.83616   0.00000  Uiso   1.00
C157   C     0.30333   0.65794   0.85164   0.00000  Uiso   1.00
C158   C     0.20748   0.60636   0.87476   0.00000  Uiso   1.00
C159   C     0.60078   0.66851   0.85613   0.00000  Uiso   1.00
C160   C     0.65199   0.69526   0.88842   0.00000  Uiso   1.00
C161   C     0.71560   0.66074   0.92838   0.00000  Uiso   1.00
H162   H     0.55863   0.54308   0.82941   0.00000  Uiso   1.00
H163   H     0.65701   0.59194   0.70888   0.00000  Uiso   1.00
H164   H     0.33677   0.49170   0.87233   0.00000  Uiso   1.00
H165   H     0.68538   0.52902   0.90910   0.00000  Uiso   1.00
H166   H     0.76080   0.67220   0.57200   0.00000  Uiso   1.00
H167   H     0.08555   0.46083   0.91666   0.00000  Uiso   1.00
H168   H     0.82066   0.53952   0.99421   0.00000  Uiso   1.00
H169   H     0.51825   0.74406   0.80439   0.00000  Uiso   1.00
H170   H     0.61442   0.80396   0.68249   0.00000  Uiso   1.00
H171   H     0.29416   0.70372   0.84594   0.00000  Uiso   1.00
H172   H     0.64278   0.74103   0.88271   0.00000  Uiso   1.00
H173   H     0.72622   0.84428   0.55058   0.00000  Uiso   1.00
H174   H     0.05097   0.63291   0.89525   0.00000  Uiso   1.00
H175   H     0.78608   0.71160   0.97279   0.00000  Uiso   1.00
O176   O     0.80746   0.79401   0.48155   0.00000  Uiso   1.00
O177   O     0.92157   0.51670   0.93374   0.00000  Uiso   1.00
O178   O     0.88602   0.61994   0.03547   0.00000  Uiso   1.00
N179   N     0.73949   0.70448   0.58369   0.00000  Uiso   1.00
N180   N     0.10816   0.50687   0.90592   0.00000  Uiso   1.00
N181   N     0.79541   0.58042   0.97843   0.00000  Uiso   1.00
N182   N     0.72088   0.79707   0.57217   0.00000  Uiso   1.00
N183   N     0.08956   0.59946   0.89439   0.00000  Uiso   1.00
N184   N     0.77680   0.67302   0.96691   0.00000  Uiso   1.00
C185   C     0.95811   0.58611   0.59089   0.00000  Uiso   1.00
C186   C     0.95315   0.60081   0.64549   0.00000  Uiso   1.00
C187   C     0.00908   0.65796   0.64024   0.00000  Uiso   1.00
C188   C     0.99362   0.66194   0.69580   0.00000  Uiso   1.00
C189   C     0.99636   0.69259   0.77165   0.00000  Uiso   1.00
C190   C     0.83257   0.56686   0.58970   0.00000  Uiso   1.00
C191   C     0.78713   0.59547   0.53754   0.00000  Uiso   1.00
C192   C     0.67017   0.57087   0.54613   0.00000  Uiso   1.00
C193   C     0.48573   0.54879   0.53535   0.00000  Uiso   1.00
C194   C     0.00161   0.52585   0.61147   0.00000  Uiso   1.00
C195   C     0.09829   0.51997   0.57763   0.00000  Uiso   1.00
C196   C     0.12364   0.46084   0.60454   0.00000  Uiso   1.00
C197   C     0.20167   0.37509   0.62758   0.00000  Uiso   1.00
C198   C     0.83118   0.49155   0.69887   0.00000  Uiso   1.00
C199   C     0.88420   0.54944   0.70414   0.00000  Uiso   1.00
C200   C     0.86866   0.55334   0.75972   0.00000  Uiso   1.00
C201   C     0.92456   0.61049   0.75456   0.00000  Uiso   1.00
C202   C     0.76363   0.51550   0.64834   0.00000  Uiso   1.00
C203   C     0.64671   0.49085   0.65701   0.00000  Uiso   1.00
C204   C     0.60111   0.51942   0.60489   0.00000  Uiso   1.00
C205   C     0.93268   0.47449   0.67013   0.00000  Uiso   1.00
C206   C     0.95787   0.41536   0.69710   0.00000  Uiso   1.00
C207   C     0.05458   0.40939   0.66330   0.00000  Uiso   1.00
H208   H     0.01177   0.62609   0.54522   0.00000  Uiso   1.00
H209   H     0.06241   0.69769   0.59485   0.00000  Uiso   1.00
H210   H     0.84050   0.63521   0.49216   0.00000  Uiso   1.00
H211   H     0.15162   0.55973   0.53224   0.00000  Uiso   1.00
H212   H     0.08813   0.75444   0.67572   0.00000  Uiso   1.00
H213   H     0.62023   0.62268   0.45919   0.00000  Uiso   1.00
H214   H     0.27627   0.46350   0.54371   0.00000  Uiso   1.00
H215   H     0.77751   0.45156   0.74453   0.00000  Uiso   1.00
H216   H     0.81531   0.51359   0.80510   0.00000  Uiso   1.00
H217   H     0.59339   0.45111   0.70240   0.00000  Uiso   1.00
H218   H     0.90451   0.37562   0.74249   0.00000  Uiso   1.00
H219   H     0.88756   0.60501   0.84637   0.00000  Uiso   1.00
H220   H     0.41966   0.47325   0.62983   0.00000  Uiso   1.00
H221   H     0.07570   0.31408   0.71436   0.00000  Uiso   1.00
O222   O     0.01690   0.72368   0.79729   0.00000  Uiso   1.00
O223   O     0.40304   0.55081   0.51320   0.00000  Uiso   1.00
O224   O     0.26376   0.34198   0.62409   0.00000  Uiso   1.00
N225   N     0.03576   0.71075   0.70758   0.00000  Uiso   1.00
N226   N     0.59829   0.58757   0.50513   0.00000  Uiso   1.00
N227   N     0.21162   0.43875   0.58414   0.00000  Uiso   1.00
N228   N     0.92783   0.63035   0.79940   0.00000  Uiso   1.00
N229   N     0.49037   0.50716   0.59696   0.00000  Uiso   1.00
N230   N     0.10370   0.35835   0.67597   0.00000  Uiso   1.00
C231   C     0.37100   0.82208   0.58806   0.00000  Uiso   1.00
C232   C     0.35193   0.75286   0.60252   0.00000  Uiso   1.00
C233   C     0.35245   0.70105   0.65979   0.00000  Uiso   1.00
C234   C     0.33327   0.64156   0.66351   0.00000  Uiso   1.00
C235   C     0.30649   0.53518   0.69384   0.00000  Uiso   1.00
C236   C     0.26458   0.84298   0.56784   0.00000  Uiso   1.00
C237   C     0.19167   0.86695   0.59595   0.00000  Uiso   1.00
C238   C     0.09897   0.88333   0.57046   0.00000  Uiso   1.00
C239   C     0.93664   0.91691   0.54692   0.00000  Uiso   1.00
C240   C     0.47250   0.86116   0.52857   0.00000  Uiso   1.00
C241   C     0.57441   0.90044   0.52364   0.00000  Uiso   1.00
C242   C     0.65676   0.93215   0.46509   0.00000  Uiso   1.00
C243   C     0.81725   0.99396   0.38057   0.00000  Uiso   1.00
C244   C     0.33603   0.80858   0.49283   0.00000  Uiso   1.00
C245   C     0.33293   0.74552   0.55079   0.00000  Uiso   1.00
C246   C     0.31376   0.68610   0.55442   0.00000  Uiso   1.00
C247   C     0.31424   0.63421   0.61169   0.00000  Uiso   1.00
C248   C     0.24559   0.83564   0.51612   0.00000  Uiso   1.00
C249   C     0.15298   0.85200   0.49058   0.00000  Uiso   1.00
C250   C     0.07994   0.87599   0.51865   0.00000  Uiso   1.00
C251   C     0.45351   0.85383   0.47684   0.00000  Uiso   1.00
C252   C     0.53572   0.88549   0.41828   0.00000  Uiso   1.00
C253   C     0.63773   0.92480   0.41327   0.00000  Uiso   1.00
H254   H     0.38578   0.82780   0.62834   0.00000  Uiso   1.00
H255   H     0.36714   0.70674   0.69981   0.00000  Uiso   1.00
H256   H     0.20640   0.87262   0.63597   0.00000  Uiso   1.00
H257   H     0.58907   0.90610   0.56368   0.00000  Uiso   1.00
H258   H     0.33805   0.56929   0.75625   0.00000  Uiso   1.00
H259   H     0.99914   0.91908   0.62163   0.00000  Uiso   1.00
H260   H     0.80609   0.98969   0.46919   0.00000  Uiso   1.00
H261   H     0.32124   0.80287   0.45255   0.00000  Uiso   1.00
H262   H     0.29906   0.68044   0.51439   0.00000  Uiso   1.00
H263   H     0.13831   0.84632   0.45055   0.00000  Uiso   1.00
H264   H     0.52099   0.87980   0.37826   0.00000  Uiso   1.00
H265   H     0.28279   0.54794   0.60576   0.00000  Uiso   1.00
H266   H     0.94388   0.89774   0.47114   0.00000  Uiso   1.00
H267   H     0.75083   0.96834   0.31870   0.00000  Uiso   1.00
O268   O     0.29695   0.47853   0.72486   0.00000  Uiso   1.00
O269   O     0.85234   0.93745   0.54824   0.00000  Uiso   1.00
O270   O     0.91103   0.03008   0.34824   0.00000  Uiso   1.00
N271   N     0.32811   0.58107   0.71234   0.00000  Uiso   1.00
N272   N     0.01124   0.90809   0.58649   0.00000  Uiso   1.00
N273   N     0.76566   0.97412   0.44397   0.00000  Uiso   1.00
N274   N     0.29838   0.56958   0.63136   0.00000  Uiso   1.00
N275   N     0.98151   0.89661   0.50551   0.00000  Uiso   1.00
N276   N     0.73592   0.96263   0.36298   0.00000  Uiso   1.00
