data_job_02442
_audit_creation_date              2018-12-19
_audit_creation_method            'Materials Studio'
_symmetry_space_group_name_H-M    'P1'
_symmetry_Int_Tables_number       1
_symmetry_cell_setting            triclinic
loop_
_symmetry_equiv_pos_as_xyz
  x,y,z
_cell_length_a                    12.3755
_cell_length_b                    17.9389
_cell_length_c                    15.2402
_cell_angle_alpha                 90.0000
_cell_angle_beta                  106.6180
_cell_angle_gamma                 90.0000
loop_
_atom_site_label
_atom_site_type_symbol
_atom_site_fract_x
_atom_site_fract_y
_atom_site_fract_z
_atom_site_U_iso_or_equiv
_atom_site_adp_type
_atom_site_occupancy
C1     C     0.75122   0.28351   0.42013   0.00000  Uiso   1.00
C2     C     0.65629   0.27838   0.46531   0.00000  Uiso   1.00
C3     C     0.59064   0.21587   0.46648   0.00000  Uiso   1.00
C4     C     0.50804   0.22246   0.51140   0.00000  Uiso   1.00
C5     C     0.36308   0.20435   0.57509   0.00000  Uiso   1.00
C6     C     0.72111   0.34856   0.35314   0.00000  Uiso   1.00
C7     C     0.70997   0.34507   0.25999   0.00000  Uiso   1.00
C8     C     0.68196   0.41075   0.21050   0.00000  Uiso   1.00
C9     C     0.63770   0.50161   0.10005   0.00000  Uiso   1.00
C10    C     0.85575   0.30779   0.49520   0.00000  Uiso   1.00
C11    C     0.95784   0.27002   0.52148   0.00000  Uiso   1.00
C12    C     0.04319   0.30138   0.59157   0.00000  Uiso   1.00
C13    C     0.20799   0.32893   0.70169   0.00000  Uiso   1.00
C14    C     0.72129   0.40637   0.49785   0.00000  Uiso   1.00
C15    C     0.64003   0.34511   0.50752   0.00000  Uiso   1.00
C16    C     0.55752   0.35180   0.55246   0.00000  Uiso   1.00
C17    C     0.49176   0.28931   0.55369   0.00000  Uiso   1.00
C18    C     0.70485   0.41529   0.39535   0.00000  Uiso   1.00
C19    C     0.67686   0.48099   0.34598   0.00000  Uiso   1.00
C20    C     0.66567   0.47760   0.25278   0.00000  Uiso   1.00
C21    C     0.83949   0.37452   0.53741   0.00000  Uiso   1.00
C22    C     0.92472   0.40594   0.60746   0.00000  Uiso   1.00
C23    C     0.02691   0.36823   0.63385   0.00000  Uiso   1.00
H24    H     0.76388   0.23157   0.38727   0.00000  Uiso   1.00
H25    H     0.60324   0.16425   0.43379   0.00000  Uiso   1.00
H26    H     0.72256   0.29342   0.22735   0.00000  Uiso   1.00
H27    H     0.97038   0.21839   0.48880   0.00000  Uiso   1.00
H28    H     0.41794   0.11905   0.50396   0.00000  Uiso   1.00
H29    H     0.66958   0.39143   0.06867   0.00000  Uiso   1.00
H30    H     0.19217   0.23320   0.61999   0.00000  Uiso   1.00
H31    H     0.70864   0.45832   0.53071   0.00000  Uiso   1.00
H32    H     0.54496   0.40344   0.58511   0.00000  Uiso   1.00
H33    H     0.66429   0.53262   0.37866   0.00000  Uiso   1.00
H34    H     0.91211   0.45758   0.64011   0.00000  Uiso   1.00
H35    H     0.37064   0.31319   0.62678   0.00000  Uiso   1.00
H36    H     0.62229   0.58557   0.19148   0.00000  Uiso   1.00
H37    H     0.14487   0.42734   0.74280   0.00000  Uiso   1.00
O38    O     0.28759   0.17593   0.59854   0.00000  Uiso   1.00
O39    O     0.61776   0.53329   0.02746   0.00000  Uiso   1.00
O40    O     0.30337   0.32569   0.75077   0.00000  Uiso   1.00
N41    N     0.42929   0.17226   0.52542   0.00000  Uiso   1.00
N42    N     0.66454   0.42692   0.11844   0.00000  Uiso   1.00
N43    N     0.15312   0.27900   0.63386   0.00000  Uiso   1.00
N44    N     0.40383   0.27673   0.59150   0.00000  Uiso   1.00
N45    N     0.63909   0.53139   0.18453   0.00000  Uiso   1.00
N46    N     0.12767   0.38347   0.69994   0.00000  Uiso   1.00
C47    C     0.24878   0.78351   0.07987   0.00000  Uiso   1.00
C48    C     0.34371   0.77838   0.03469   0.00000  Uiso   1.00
C49    C     0.40936   0.71587   0.03352   0.00000  Uiso   1.00
C50    C     0.49196   0.72246   0.98860   0.00000  Uiso   1.00
C51    C     0.63692   0.70435   0.92491   0.00000  Uiso   1.00
C52    C     0.27889   0.84856   0.14686   0.00000  Uiso   1.00
C53    C     0.29003   0.84507   0.24001   0.00000  Uiso   1.00
C54    C     0.31804   0.91075   0.28950   0.00000  Uiso   1.00
C55    C     0.36230   0.00161   0.39995   0.00000  Uiso   1.00
C56    C     0.14425   0.80779   0.00480   0.00000  Uiso   1.00
C57    C     0.04216   0.77002   0.97852   0.00000  Uiso   1.00
C58    C     0.95681   0.80138   0.90843   0.00000  Uiso   1.00
C59    C     0.79201   0.82893   0.79831   0.00000  Uiso   1.00
C60    C     0.27871   0.90637   0.00215   0.00000  Uiso   1.00
C61    C     0.35997   0.84511   0.99248   0.00000  Uiso   1.00
C62    C     0.44248   0.85180   0.94754   0.00000  Uiso   1.00
C63    C     0.50824   0.78931   0.94631   0.00000  Uiso   1.00
C64    C     0.29515   0.91529   0.10465   0.00000  Uiso   1.00
C65    C     0.32314   0.98099   0.15402   0.00000  Uiso   1.00
C66    C     0.33433   0.97760   0.24722   0.00000  Uiso   1.00
C67    C     0.16051   0.87452   0.96259   0.00000  Uiso   1.00
C68    C     0.07528   0.90594   0.89254   0.00000  Uiso   1.00
C69    C     0.97309   0.86823   0.86615   0.00000  Uiso   1.00
H70    H     0.23612   0.73157   0.11273   0.00000  Uiso   1.00
H71    H     0.39676   0.66425   0.06621   0.00000  Uiso   1.00
H72    H     0.27744   0.79342   0.27265   0.00000  Uiso   1.00
H73    H     0.02962   0.71839   0.01120   0.00000  Uiso   1.00
H74    H     0.58206   0.61905   0.99604   0.00000  Uiso   1.00
H75    H     0.33042   0.89143   0.43133   0.00000  Uiso   1.00
H76    H     0.80783   0.73320   0.88001   0.00000  Uiso   1.00
H77    H     0.29136   0.95832   0.96929   0.00000  Uiso   1.00
H78    H     0.45504   0.90344   0.91489   0.00000  Uiso   1.00
H79    H     0.33571   0.03262   0.12134   0.00000  Uiso   1.00
H80    H     0.08789   0.95758   0.85989   0.00000  Uiso   1.00
H81    H     0.62936   0.81319   0.87322   0.00000  Uiso   1.00
H82    H     0.37771   0.08557   0.30852   0.00000  Uiso   1.00
H83    H     0.85513   0.92734   0.75720   0.00000  Uiso   1.00
O84    O     0.71241   0.67593   0.90146   0.00000  Uiso   1.00
O85    O     0.38224   0.03329   0.47254   0.00000  Uiso   1.00
O86    O     0.69663   0.82569   0.74923   0.00000  Uiso   1.00
N87    N     0.57071   0.67226   0.97458   0.00000  Uiso   1.00
N88    N     0.33546   0.92692   0.38156   0.00000  Uiso   1.00
N89    N     0.84688   0.77900   0.86614   0.00000  Uiso   1.00
N90    N     0.59617   0.77673   0.90850   0.00000  Uiso   1.00
N91    N     0.36091   0.03139   0.31547   0.00000  Uiso   1.00
N92    N     0.87233   0.88347   0.80006   0.00000  Uiso   1.00
C93    C     0.24878   0.71649   0.57987   0.00000  Uiso   1.00
C94    C     0.34371   0.72162   0.53469   0.00000  Uiso   1.00
C95    C     0.40936   0.78413   0.53352   0.00000  Uiso   1.00
C96    C     0.49196   0.77754   0.48860   0.00000  Uiso   1.00
C97    C     0.63692   0.79565   0.42491   0.00000  Uiso   1.00
C98    C     0.27889   0.65144   0.64686   0.00000  Uiso   1.00
C99    C     0.29003   0.65493   0.74001   0.00000  Uiso   1.00
C100   C     0.31804   0.58925   0.78950   0.00000  Uiso   1.00
C101   C     0.36230   0.49839   0.89995   0.00000  Uiso   1.00
C102   C     0.14425   0.69221   0.50480   0.00000  Uiso   1.00
C103   C     0.04216   0.72998   0.47852   0.00000  Uiso   1.00
C104   C     0.95681   0.69862   0.40843   0.00000  Uiso   1.00
C105   C     0.79201   0.67107   0.29831   0.00000  Uiso   1.00
C106   C     0.27871   0.59363   0.50215   0.00000  Uiso   1.00
C107   C     0.35997   0.65489   0.49248   0.00000  Uiso   1.00
C108   C     0.44248   0.64820   0.44754   0.00000  Uiso   1.00
C109   C     0.50824   0.71069   0.44631   0.00000  Uiso   1.00
C110   C     0.29515   0.58471   0.60465   0.00000  Uiso   1.00
C111   C     0.32314   0.51901   0.65402   0.00000  Uiso   1.00
C112   C     0.33433   0.52240   0.74722   0.00000  Uiso   1.00
C113   C     0.16051   0.62548   0.46259   0.00000  Uiso   1.00
C114   C     0.07528   0.59406   0.39254   0.00000  Uiso   1.00
C115   C     0.97309   0.63177   0.36615   0.00000  Uiso   1.00
H116   H     0.23612   0.76843   0.61273   0.00000  Uiso   1.00
H117   H     0.39676   0.83575   0.56621   0.00000  Uiso   1.00
H118   H     0.27744   0.70658   0.77265   0.00000  Uiso   1.00
H119   H     0.02962   0.78161   0.51120   0.00000  Uiso   1.00
H120   H     0.58206   0.88095   0.49604   0.00000  Uiso   1.00
H121   H     0.33042   0.60857   0.93133   0.00000  Uiso   1.00
H122   H     0.80783   0.76680   0.38001   0.00000  Uiso   1.00
H123   H     0.29136   0.54168   0.46929   0.00000  Uiso   1.00
H124   H     0.45504   0.59656   0.41489   0.00000  Uiso   1.00
H125   H     0.33571   0.46738   0.62134   0.00000  Uiso   1.00
H126   H     0.08789   0.54242   0.35989   0.00000  Uiso   1.00
H127   H     0.62936   0.68681   0.37322   0.00000  Uiso   1.00
H128   H     0.37771   0.41443   0.80852   0.00000  Uiso   1.00
H129   H     0.85513   0.57266   0.25720   0.00000  Uiso   1.00
O130   O     0.71241   0.82407   0.40146   0.00000  Uiso   1.00
O131   O     0.38224   0.46671   0.97254   0.00000  Uiso   1.00
O132   O     0.69663   0.67431   0.24923   0.00000  Uiso   1.00
N133   N     0.57071   0.82774   0.47458   0.00000  Uiso   1.00
N134   N     0.33546   0.57308   0.88156   0.00000  Uiso   1.00
N135   N     0.84688   0.72100   0.36614   0.00000  Uiso   1.00
N136   N     0.59617   0.72327   0.40850   0.00000  Uiso   1.00
N137   N     0.36091   0.46861   0.81547   0.00000  Uiso   1.00
N138   N     0.87233   0.61653   0.30006   0.00000  Uiso   1.00
C139   C     0.75122   0.21649   0.92013   0.00000  Uiso   1.00
C140   C     0.65629   0.22162   0.96531   0.00000  Uiso   1.00
C141   C     0.59064   0.28413   0.96648   0.00000  Uiso   1.00
C142   C     0.50804   0.27754   0.01140   0.00000  Uiso   1.00
C143   C     0.36308   0.29565   0.07509   0.00000  Uiso   1.00
C144   C     0.72111   0.15144   0.85314   0.00000  Uiso   1.00
C145   C     0.70997   0.15493   0.75999   0.00000  Uiso   1.00
C146   C     0.68196   0.08925   0.71050   0.00000  Uiso   1.00
C147   C     0.63770   0.99839   0.60005   0.00000  Uiso   1.00
C148   C     0.85575   0.19221   0.99520   0.00000  Uiso   1.00
C149   C     0.95784   0.22998   0.02148   0.00000  Uiso   1.00
C150   C     0.04319   0.19862   0.09157   0.00000  Uiso   1.00
C151   C     0.20799   0.17107   0.20169   0.00000  Uiso   1.00
C152   C     0.72129   0.09363   0.99785   0.00000  Uiso   1.00
C153   C     0.64003   0.15489   0.00752   0.00000  Uiso   1.00
C154   C     0.55752   0.14820   0.05246   0.00000  Uiso   1.00
C155   C     0.49176   0.21069   0.05369   0.00000  Uiso   1.00
C156   C     0.70485   0.08471   0.89535   0.00000  Uiso   1.00
C157   C     0.67686   0.01901   0.84598   0.00000  Uiso   1.00
C158   C     0.66567   0.02240   0.75278   0.00000  Uiso   1.00
C159   C     0.83949   0.12548   0.03741   0.00000  Uiso   1.00
C160   C     0.92472   0.09406   0.10746   0.00000  Uiso   1.00
C161   C     0.02691   0.13177   0.13385   0.00000  Uiso   1.00
H162   H     0.76388   0.26843   0.88727   0.00000  Uiso   1.00
H163   H     0.60324   0.33575   0.93379   0.00000  Uiso   1.00
H164   H     0.72256   0.20658   0.72735   0.00000  Uiso   1.00
H165   H     0.97038   0.28161   0.98880   0.00000  Uiso   1.00
H166   H     0.41794   0.38095   0.00396   0.00000  Uiso   1.00
H167   H     0.66958   0.10857   0.56867   0.00000  Uiso   1.00
H168   H     0.19217   0.26680   0.11999   0.00000  Uiso   1.00
H169   H     0.70864   0.04168   0.03071   0.00000  Uiso   1.00
H170   H     0.54496   0.09656   0.08511   0.00000  Uiso   1.00
H171   H     0.66429   0.96738   0.87866   0.00000  Uiso   1.00
H172   H     0.91211   0.04242   0.14011   0.00000  Uiso   1.00
H173   H     0.37064   0.18681   0.12678   0.00000  Uiso   1.00
H174   H     0.62229   0.91443   0.69148   0.00000  Uiso   1.00
H175   H     0.14487   0.07266   0.24280   0.00000  Uiso   1.00
O176   O     0.28759   0.32407   0.09854   0.00000  Uiso   1.00
O177   O     0.61776   0.96671   0.52746   0.00000  Uiso   1.00
O178   O     0.30337   0.17431   0.25077   0.00000  Uiso   1.00
N179   N     0.42929   0.32774   0.02542   0.00000  Uiso   1.00
N180   N     0.66454   0.07308   0.61844   0.00000  Uiso   1.00
N181   N     0.15312   0.22100   0.13386   0.00000  Uiso   1.00
N182   N     0.40383   0.22327   0.09150   0.00000  Uiso   1.00
N183   N     0.63909   0.96861   0.68453   0.00000  Uiso   1.00
N184   N     0.12767   0.11653   0.19994   0.00000  Uiso   1.00
