data_job_03017
_audit_creation_date              2018-12-19
_audit_creation_method            'Materials Studio'
_symmetry_space_group_name_H-M    'P1'
_symmetry_Int_Tables_number       1
_symmetry_cell_setting            triclinic
loop_
_symmetry_equiv_pos_as_xyz
  x,y,z
_cell_length_a                    15.4806
_cell_length_b                    8.1666
_cell_length_c                    27.5215
_cell_angle_alpha                 90.0000
_cell_angle_beta                  91.7161
_cell_angle_gamma                 90.0000
loop_
_atom_site_label
_atom_site_type_symbol
_atom_site_fract_x
_atom_site_fract_y
_atom_site_fract_z
_atom_site_U_iso_or_equiv
_atom_site_adp_type
_atom_site_occupancy
C1     C     0.64768   0.81311   0.87743   0.00000  Uiso   1.00
C2     C     0.70058   0.67552   0.90109   0.00000  Uiso   1.00
C3     C     0.78081   0.69283   0.92439   0.00000  Uiso   1.00
C4     C     0.81865   0.55207   0.94367   0.00000  Uiso   1.00
C5     C     0.90705   0.36161   0.98099   0.00000  Uiso   1.00
C6     C     0.63054   0.76107   0.82481   0.00000  Uiso   1.00
C7     C     0.65188   0.85031   0.78396   0.00000  Uiso   1.00
C8     C     0.63075   0.78156   0.73902   0.00000  Uiso   1.00
C9     C     0.61035   0.72398   0.65790   0.00000  Uiso   1.00
C10    C     0.56020   0.81033   0.90145   0.00000  Uiso   1.00
C11    C     0.52238   0.94100   0.92505   0.00000  Uiso   1.00
C12    C     0.44202   0.91374   0.94463   0.00000  Uiso   1.00
C13    C     0.31241   0.93263   0.98252   0.00000  Uiso   1.00
C14    C     0.57221   0.53234   0.87024   0.00000  Uiso   1.00
C15    C     0.65959   0.52302   0.89719   0.00000  Uiso   1.00
C16    C     0.69732   0.38219   0.91644   0.00000  Uiso   1.00
C17    C     0.77759   0.39929   0.93976   0.00000  Uiso   1.00
C18    C     0.58956   0.60857   0.82090   0.00000  Uiso   1.00
C19    C     0.56838   0.53968   0.77601   0.00000  Uiso   1.00
C20    C     0.58968   0.62878   0.73511   0.00000  Uiso   1.00
C21    C     0.51921   0.65782   0.89755   0.00000  Uiso   1.00
C22    C     0.43889   0.63036   0.91710   0.00000  Uiso   1.00
C23    C     0.40095   0.76096   0.94072   0.00000  Uiso   1.00
H24    H     0.67959   0.93184   0.88046   0.00000  Uiso   1.00
H25    H     0.81252   0.81087   0.92740   0.00000  Uiso   1.00
H26    H     0.68359   0.96833   0.78699   0.00000  Uiso   1.00
H27    H     0.55412   0.05900   0.92806   0.00000  Uiso   1.00
H28    H     0.94182   0.60949   0.97770   0.00000  Uiso   1.00
H29    H     0.66995   0.94153   0.68164   0.00000  Uiso   1.00
H30    H     0.39693   0.13273   0.97911   0.00000  Uiso   1.00
H31    H     0.54030   0.41361   0.86720   0.00000  Uiso   1.00
H32    H     0.66558   0.26419   0.91341   0.00000  Uiso   1.00
H33    H     0.53666   0.42166   0.77300   0.00000  Uiso   1.00
H34    H     0.40719   0.51233   0.91407   0.00000  Uiso   1.00
H35    H     0.82257   0.16578   0.96634   0.00000  Uiso   1.00
H36    H     0.55070   0.49784   0.67029   0.00000  Uiso   1.00
H37    H     0.27768   0.68902   0.96776   0.00000  Uiso   1.00
O38    O     0.96714   0.29869   0.00264   0.00000  Uiso   1.00
O39    O     0.61044   0.73434   0.61423   0.00000  Uiso   1.00
O40    O     0.25225   0.98517   0.00450   0.00000  Uiso   1.00
N41    N     0.89655   0.52557   0.96869   0.00000  Uiso   1.00
N42    N     0.64239   0.83600   0.69190   0.00000  Uiso   1.00
N43    N     0.38713   0.01477   0.96999   0.00000  Uiso   1.00
N44    N     0.83238   0.28682   0.96258   0.00000  Uiso   1.00
N45    N     0.57822   0.59725   0.68579   0.00000  Uiso   1.00
N46    N     0.32296   0.77601   0.96389   0.00000  Uiso   1.00
C47    C     0.35232   0.31311   0.62257   0.00000  Uiso   1.00
C48    C     0.29942   0.17552   0.59891   0.00000  Uiso   1.00
C49    C     0.21919   0.19283   0.57561   0.00000  Uiso   1.00
C50    C     0.18135   0.05207   0.55633   0.00000  Uiso   1.00
C51    C     0.09295   0.86161   0.51901   0.00000  Uiso   1.00
C52    C     0.36946   0.26107   0.67519   0.00000  Uiso   1.00
C53    C     0.34812   0.35031   0.71604   0.00000  Uiso   1.00
C54    C     0.36925   0.28156   0.76098   0.00000  Uiso   1.00
C55    C     0.38965   0.22398   0.84210   0.00000  Uiso   1.00
C56    C     0.43980   0.31033   0.59855   0.00000  Uiso   1.00
C57    C     0.47762   0.44100   0.57495   0.00000  Uiso   1.00
C58    C     0.55798   0.41374   0.55537   0.00000  Uiso   1.00
C59    C     0.68759   0.43263   0.51748   0.00000  Uiso   1.00
C60    C     0.42779   0.03234   0.62976   0.00000  Uiso   1.00
C61    C     0.34041   0.02302   0.60281   0.00000  Uiso   1.00
C62    C     0.30268   0.88219   0.58356   0.00000  Uiso   1.00
C63    C     0.22241   0.89929   0.56024   0.00000  Uiso   1.00
C64    C     0.41044   0.10857   0.67910   0.00000  Uiso   1.00
C65    C     0.43162   0.03968   0.72399   0.00000  Uiso   1.00
C66    C     0.41032   0.12878   0.76489   0.00000  Uiso   1.00
C67    C     0.48079   0.15782   0.60245   0.00000  Uiso   1.00
C68    C     0.56111   0.13036   0.58290   0.00000  Uiso   1.00
C69    C     0.59905   0.26096   0.55928   0.00000  Uiso   1.00
H70    H     0.32041   0.43184   0.61954   0.00000  Uiso   1.00
H71    H     0.18748   0.31087   0.57260   0.00000  Uiso   1.00
H72    H     0.31641   0.46833   0.71301   0.00000  Uiso   1.00
H73    H     0.44588   0.55900   0.57194   0.00000  Uiso   1.00
H74    H     0.05818   0.10949   0.52230   0.00000  Uiso   1.00
H75    H     0.33005   0.44153   0.81836   0.00000  Uiso   1.00
H76    H     0.60307   0.63273   0.52089   0.00000  Uiso   1.00
H77    H     0.45970   0.91361   0.63280   0.00000  Uiso   1.00
H78    H     0.33442   0.76419   0.58659   0.00000  Uiso   1.00
H79    H     0.46334   0.92166   0.72700   0.00000  Uiso   1.00
H80    H     0.59281   0.01233   0.58593   0.00000  Uiso   1.00
H81    H     0.17743   0.66578   0.53366   0.00000  Uiso   1.00
H82    H     0.44930   0.99784   0.82971   0.00000  Uiso   1.00
H83    H     0.72232   0.18902   0.53224   0.00000  Uiso   1.00
O84    O     0.03286   0.79869   0.49736   0.00000  Uiso   1.00
O85    O     0.38956   0.23434   0.88577   0.00000  Uiso   1.00
O86    O     0.74775   0.48517   0.49550   0.00000  Uiso   1.00
N87    N     0.10345   0.02557   0.53131   0.00000  Uiso   1.00
N88    N     0.35761   0.33600   0.80810   0.00000  Uiso   1.00
N89    N     0.61287   0.51477   0.53001   0.00000  Uiso   1.00
N90    N     0.16762   0.78682   0.53742   0.00000  Uiso   1.00
N91    N     0.42178   0.09725   0.81421   0.00000  Uiso   1.00
N92    N     0.67704   0.27601   0.53611   0.00000  Uiso   1.00
C93    C     0.35232   0.18689   0.12257   0.00000  Uiso   1.00
C94    C     0.29942   0.32448   0.09891   0.00000  Uiso   1.00
C95    C     0.21919   0.30717   0.07561   0.00000  Uiso   1.00
C96    C     0.18135   0.44793   0.05633   0.00000  Uiso   1.00
C97    C     0.09295   0.63839   0.01901   0.00000  Uiso   1.00
C98    C     0.36946   0.23893   0.17519   0.00000  Uiso   1.00
C99    C     0.34812   0.14969   0.21604   0.00000  Uiso   1.00
C100   C     0.36925   0.21844   0.26098   0.00000  Uiso   1.00
C101   C     0.38965   0.27602   0.34210   0.00000  Uiso   1.00
C102   C     0.43980   0.18967   0.09855   0.00000  Uiso   1.00
C103   C     0.47762   0.05900   0.07495   0.00000  Uiso   1.00
C104   C     0.55798   0.08626   0.05537   0.00000  Uiso   1.00
C105   C     0.68759   0.06737   0.01748   0.00000  Uiso   1.00
C106   C     0.42779   0.46766   0.12976   0.00000  Uiso   1.00
C107   C     0.34041   0.47698   0.10281   0.00000  Uiso   1.00
C108   C     0.30268   0.61781   0.08356   0.00000  Uiso   1.00
C109   C     0.22241   0.60071   0.06024   0.00000  Uiso   1.00
C110   C     0.41044   0.39143   0.17910   0.00000  Uiso   1.00
C111   C     0.43162   0.46032   0.22399   0.00000  Uiso   1.00
C112   C     0.41032   0.37122   0.26489   0.00000  Uiso   1.00
C113   C     0.48079   0.34218   0.10245   0.00000  Uiso   1.00
C114   C     0.56111   0.36964   0.08290   0.00000  Uiso   1.00
C115   C     0.59905   0.23904   0.05928   0.00000  Uiso   1.00
H116   H     0.32041   0.06816   0.11954   0.00000  Uiso   1.00
H117   H     0.18748   0.18913   0.07260   0.00000  Uiso   1.00
H118   H     0.31641   0.03167   0.21301   0.00000  Uiso   1.00
H119   H     0.44588   0.94100   0.07194   0.00000  Uiso   1.00
H120   H     0.05818   0.39051   0.02230   0.00000  Uiso   1.00
H121   H     0.33005   0.05847   0.31836   0.00000  Uiso   1.00
H122   H     0.60307   0.86727   0.02089   0.00000  Uiso   1.00
H123   H     0.45970   0.58639   0.13280   0.00000  Uiso   1.00
H124   H     0.33442   0.73581   0.08659   0.00000  Uiso   1.00
H125   H     0.46334   0.57834   0.22700   0.00000  Uiso   1.00
H126   H     0.59281   0.48767   0.08593   0.00000  Uiso   1.00
H127   H     0.17743   0.83422   0.03366   0.00000  Uiso   1.00
H128   H     0.44930   0.50216   0.32971   0.00000  Uiso   1.00
H129   H     0.72232   0.31098   0.03224   0.00000  Uiso   1.00
O130   O     0.03286   0.70131   0.99736   0.00000  Uiso   1.00
O131   O     0.38956   0.26566   0.38577   0.00000  Uiso   1.00
O132   O     0.74775   0.01483   0.99550   0.00000  Uiso   1.00
N133   N     0.10345   0.47443   0.03131   0.00000  Uiso   1.00
N134   N     0.35761   0.16400   0.30810   0.00000  Uiso   1.00
N135   N     0.61287   0.98523   0.03001   0.00000  Uiso   1.00
N136   N     0.16762   0.71318   0.03742   0.00000  Uiso   1.00
N137   N     0.42178   0.40275   0.31421   0.00000  Uiso   1.00
N138   N     0.67704   0.22399   0.03611   0.00000  Uiso   1.00
C139   C     0.64768   0.68689   0.37743   0.00000  Uiso   1.00
C140   C     0.70058   0.82448   0.40109   0.00000  Uiso   1.00
C141   C     0.78081   0.80717   0.42439   0.00000  Uiso   1.00
C142   C     0.81865   0.94793   0.44367   0.00000  Uiso   1.00
C143   C     0.90705   0.13839   0.48099   0.00000  Uiso   1.00
C144   C     0.63054   0.73893   0.32481   0.00000  Uiso   1.00
C145   C     0.65188   0.64969   0.28396   0.00000  Uiso   1.00
C146   C     0.63075   0.71844   0.23902   0.00000  Uiso   1.00
C147   C     0.61035   0.77602   0.15790   0.00000  Uiso   1.00
C148   C     0.56020   0.68967   0.40145   0.00000  Uiso   1.00
C149   C     0.52238   0.55900   0.42505   0.00000  Uiso   1.00
C150   C     0.44202   0.58626   0.44463   0.00000  Uiso   1.00
C151   C     0.31241   0.56737   0.48252   0.00000  Uiso   1.00
C152   C     0.57221   0.96766   0.37024   0.00000  Uiso   1.00
C153   C     0.65959   0.97698   0.39719   0.00000  Uiso   1.00
C154   C     0.69732   0.11781   0.41644   0.00000  Uiso   1.00
C155   C     0.77759   0.10071   0.43976   0.00000  Uiso   1.00
C156   C     0.58956   0.89143   0.32090   0.00000  Uiso   1.00
C157   C     0.56838   0.96032   0.27601   0.00000  Uiso   1.00
C158   C     0.58968   0.87122   0.23511   0.00000  Uiso   1.00
C159   C     0.51921   0.84218   0.39755   0.00000  Uiso   1.00
C160   C     0.43889   0.86964   0.41710   0.00000  Uiso   1.00
C161   C     0.40095   0.73904   0.44072   0.00000  Uiso   1.00
H162   H     0.67959   0.56816   0.38046   0.00000  Uiso   1.00
H163   H     0.81252   0.68913   0.42740   0.00000  Uiso   1.00
H164   H     0.68359   0.53167   0.28699   0.00000  Uiso   1.00
H165   H     0.55412   0.44100   0.42806   0.00000  Uiso   1.00
H166   H     0.94182   0.89051   0.47770   0.00000  Uiso   1.00
H167   H     0.66995   0.55847   0.18164   0.00000  Uiso   1.00
H168   H     0.39693   0.36727   0.47911   0.00000  Uiso   1.00
H169   H     0.54030   0.08639   0.36720   0.00000  Uiso   1.00
H170   H     0.66558   0.23581   0.41341   0.00000  Uiso   1.00
H171   H     0.53666   0.07834   0.27300   0.00000  Uiso   1.00
H172   H     0.40719   0.98767   0.41407   0.00000  Uiso   1.00
H173   H     0.82257   0.33422   0.46634   0.00000  Uiso   1.00
H174   H     0.55070   0.00216   0.17029   0.00000  Uiso   1.00
H175   H     0.27768   0.81098   0.46776   0.00000  Uiso   1.00
O176   O     0.96714   0.20131   0.50264   0.00000  Uiso   1.00
O177   O     0.61044   0.76566   0.11423   0.00000  Uiso   1.00
O178   O     0.25225   0.51483   0.50450   0.00000  Uiso   1.00
N179   N     0.89655   0.97443   0.46869   0.00000  Uiso   1.00
N180   N     0.64239   0.66400   0.19190   0.00000  Uiso   1.00
N181   N     0.38713   0.48523   0.46999   0.00000  Uiso   1.00
N182   N     0.83238   0.21318   0.46258   0.00000  Uiso   1.00
N183   N     0.57822   0.90275   0.18579   0.00000  Uiso   1.00
N184   N     0.32296   0.72399   0.46389   0.00000  Uiso   1.00
