data_job_00950
_audit_creation_date              2018-12-19
_audit_creation_method            'Materials Studio'
_symmetry_space_group_name_H-M    'P1'
_symmetry_Int_Tables_number       1
_symmetry_cell_setting            triclinic
loop_
_symmetry_equiv_pos_as_xyz
  x,y,z
_cell_length_a                    8.3055
_cell_length_b                    12.6793
_cell_length_c                    13.8803
_cell_angle_alpha                 74.5117
_cell_angle_beta                  104.8394
_cell_angle_gamma                 71.1730
loop_
_atom_site_label
_atom_site_type_symbol
_atom_site_fract_x
_atom_site_fract_y
_atom_site_fract_z
_atom_site_U_iso_or_equiv
_atom_site_adp_type
_atom_site_occupancy
C1     C     0.60938   0.67821   0.66451   0.00000  Uiso   1.00
C2     C     0.63487   0.56919   0.75690   0.00000  Uiso   1.00
C3     C     0.78613   0.45847   0.80546   0.00000  Uiso   1.00
C4     C     0.78324   0.37026   0.88869   0.00000  Uiso   1.00
C5     C     0.84542   0.19763   0.02703   0.00000  Uiso   1.00
C6     C     0.42954   0.71149   0.57452   0.00000  Uiso   1.00
C7     C     0.40816   0.72043   0.46974   0.00000  Uiso   1.00
C8     C     0.23240   0.75202   0.39944   0.00000  Uiso   1.00
C9     C     0.97578   0.80040   0.25462   0.00000  Uiso   1.00
C10    C     0.57588   0.78151   0.70420   0.00000  Uiso   1.00
C11    C     0.67751   0.84935   0.70844   0.00000  Uiso   1.00
C12    C     0.62494   0.93992   0.74729   0.00000  Uiso   1.00
C13    C     0.59555   0.09702   0.80382   0.00000  Uiso   1.00
C14    C     0.33528   0.71844   0.72595   0.00000  Uiso   1.00
C15    C     0.48598   0.59104   0.79026   0.00000  Uiso   1.00
C16    C     0.48286   0.50297   0.87344   0.00000  Uiso   1.00
C17    C     0.63409   0.39214   0.92213   0.00000  Uiso   1.00
C18    C     0.28066   0.73334   0.60789   0.00000  Uiso   1.00
C19    C     0.10489   0.76493   0.53772   0.00000  Uiso   1.00
C20    C     0.08325   0.77390   0.43287   0.00000  Uiso   1.00
C21    C     0.42700   0.80336   0.73757   0.00000  Uiso   1.00
C22    C     0.37425   0.89385   0.77642   0.00000  Uiso   1.00
C23    C     0.47579   0.96181   0.78072   0.00000  Uiso   1.00
H24    H     0.72529   0.66121   0.63852   0.00000  Uiso   1.00
H25    H     0.90131   0.44160   0.77961   0.00000  Uiso   1.00
H26    H     0.52339   0.70353   0.44394   0.00000  Uiso   1.00
H27    H     0.79272   0.83242   0.68260   0.00000  Uiso   1.00
H28    H     0.03079   0.20774   0.95072   0.00000  Uiso   1.00
H29    H     0.23391   0.76007   0.24294   0.00000  Uiso   1.00
H30    H     0.80183   0.03188   0.74620   0.00000  Uiso   1.00
H31    H     0.21936   0.73545   0.75193   0.00000  Uiso   1.00
H32    H     0.36763   0.51991   0.89925   0.00000  Uiso   1.00
H33    H     0.98971   0.78184   0.56357   0.00000  Uiso   1.00
H34    H     0.25903   0.91073   0.80224   0.00000  Uiso   1.00
H35    H     0.59762   0.27130   0.04782   0.00000  Uiso   1.00
H36    H     0.80075   0.82364   0.34003   0.00000  Uiso   1.00
H37    H     0.36867   0.09543   0.84330   0.00000  Uiso   1.00
O38    O     0.92084   0.09638   0.09411   0.00000  Uiso   1.00
O39    O     0.87537   0.82104   0.16552   0.00000  Uiso   1.00
O40    O     0.62048   0.17763   0.82580   0.00000  Uiso   1.00
N41    N     0.90851   0.25229   0.95337   0.00000  Uiso   1.00
N42    N     0.16348   0.76867   0.29164   0.00000  Uiso   1.00
N43    N     0.69441   0.02280   0.76212   0.00000  Uiso   1.00
N44    N     0.67543   0.28649   0.00562   0.00000  Uiso   1.00
N45    N     0.93040   0.80286   0.34389   0.00000  Uiso   1.00
N46    N     0.46133   0.05700   0.81437   0.00000  Uiso   1.00
C47    C     0.39062   0.32179   0.33549   0.00000  Uiso   1.00
C48    C     0.36513   0.43081   0.24310   0.00000  Uiso   1.00
C49    C     0.21387   0.54153   0.19454   0.00000  Uiso   1.00
C50    C     0.21676   0.62974   0.11131   0.00000  Uiso   1.00
C51    C     0.15458   0.80237   0.97297   0.00000  Uiso   1.00
C52    C     0.57046   0.28851   0.42548   0.00000  Uiso   1.00
C53    C     0.59184   0.27957   0.53026   0.00000  Uiso   1.00
C54    C     0.76760   0.24798   0.60056   0.00000  Uiso   1.00
C55    C     0.02422   0.19960   0.74538   0.00000  Uiso   1.00
C56    C     0.42412   0.21849   0.29580   0.00000  Uiso   1.00
C57    C     0.32249   0.15065   0.29156   0.00000  Uiso   1.00
C58    C     0.37506   0.06008   0.25271   0.00000  Uiso   1.00
C59    C     0.40445   0.90298   0.19618   0.00000  Uiso   1.00
C60    C     0.66472   0.28156   0.27405   0.00000  Uiso   1.00
C61    C     0.51402   0.40896   0.20974   0.00000  Uiso   1.00
C62    C     0.51714   0.49703   0.12656   0.00000  Uiso   1.00
C63    C     0.36591   0.60786   0.07787   0.00000  Uiso   1.00
C64    C     0.71934   0.26666   0.39211   0.00000  Uiso   1.00
C65    C     0.89511   0.23507   0.46228   0.00000  Uiso   1.00
C66    C     0.91675   0.22610   0.56713   0.00000  Uiso   1.00
C67    C     0.57300   0.19664   0.26243   0.00000  Uiso   1.00
C68    C     0.62575   0.10615   0.22358   0.00000  Uiso   1.00
C69    C     0.52421   0.03819   0.21928   0.00000  Uiso   1.00
H70    H     0.27471   0.33879   0.36148   0.00000  Uiso   1.00
H71    H     0.09869   0.55840   0.22039   0.00000  Uiso   1.00
H72    H     0.47661   0.29647   0.55606   0.00000  Uiso   1.00
H73    H     0.20728   0.16758   0.31740   0.00000  Uiso   1.00
H74    H     0.96921   0.79226   0.04928   0.00000  Uiso   1.00
H75    H     0.76609   0.23993   0.75706   0.00000  Uiso   1.00
H76    H     0.19817   0.96812   0.25380   0.00000  Uiso   1.00
H77    H     0.78064   0.26455   0.24807   0.00000  Uiso   1.00
H78    H     0.63237   0.48009   0.10075   0.00000  Uiso   1.00
H79    H     0.01029   0.21816   0.43643   0.00000  Uiso   1.00
H80    H     0.74097   0.08927   0.19776   0.00000  Uiso   1.00
H81    H     0.40238   0.72870   0.95218   0.00000  Uiso   1.00
H82    H     0.19925   0.17636   0.65997   0.00000  Uiso   1.00
H83    H     0.63133   0.90457   0.15670   0.00000  Uiso   1.00
O84    O     0.07916   0.90362   0.90589   0.00000  Uiso   1.00
O85    O     0.12463   0.17896   0.83448   0.00000  Uiso   1.00
O86    O     0.37952   0.82237   0.17420   0.00000  Uiso   1.00
N87    N     0.09149   0.74771   0.04663   0.00000  Uiso   1.00
N88    N     0.83652   0.23133   0.70836   0.00000  Uiso   1.00
N89    N     0.30559   0.97720   0.23788   0.00000  Uiso   1.00
N90    N     0.32457   0.71351   0.99438   0.00000  Uiso   1.00
N91    N     0.06960   0.19714   0.65611   0.00000  Uiso   1.00
N92    N     0.53867   0.94300   0.18563   0.00000  Uiso   1.00
