data_job_05976
_audit_creation_date              2018-12-19
_audit_creation_method            'Materials Studio'
_symmetry_space_group_name_H-M    'P1'
_symmetry_Int_Tables_number       1
_symmetry_cell_setting            triclinic
loop_
_symmetry_equiv_pos_as_xyz
  x,y,z
_cell_length_a                    12.4338
_cell_length_b                    19.5566
_cell_length_c                    19.9846
_cell_angle_alpha                 115.9110
_cell_angle_beta                  76.7205
_cell_angle_gamma                 80.8196
loop_
_atom_site_label
_atom_site_type_symbol
_atom_site_fract_x
_atom_site_fract_y
_atom_site_fract_z
_atom_site_U_iso_or_equiv
_atom_site_adp_type
_atom_site_occupancy
C1     C     0.93585   0.51915   0.15668   0.00000  Uiso   1.00
C2     C     0.89749   0.56977   0.24636   0.00000  Uiso   1.00
C3     C     0.89344   0.64903   0.28791   0.00000  Uiso   1.00
C4     C     0.85588   0.68476   0.36975   0.00000  Uiso   1.00
C5     C     0.80129   0.76974   0.50309   0.00000  Uiso   1.00
C6     C     0.03396   0.44685   0.13384   0.00000  Uiso   1.00
C7     C     0.14463   0.42277   0.08078   0.00000  Uiso   1.00
C8     C     0.22194   0.35501   0.06790   0.00000  Uiso   1.00
C9     C     0.37919   0.24914   0.02651   0.00000  Uiso   1.00
C10    C     0.83535   0.48772   0.13881   0.00000  Uiso   1.00
C11    C     0.77904   0.49798   0.08991   0.00000  Uiso   1.00
C12    C     0.68915   0.46462   0.08120   0.00000  Uiso   1.00
C13    C     0.53803   0.42221   0.04753   0.00000  Uiso   1.00
C14    C     0.87636   0.44165   0.22813   0.00000  Uiso   1.00
C15    C     0.86519   0.52766   0.28517   0.00000  Uiso   1.00
C16    C     0.82762   0.56328   0.36697   0.00000  Uiso   1.00
C17    C     0.82351   0.64258   0.40863   0.00000  Uiso   1.00
C18    C     0.00165   0.40475   0.17265   0.00000  Uiso   1.00
C19    C     0.07881   0.33702   0.15983   0.00000  Uiso   1.00
C20    C     0.18958   0.31284   0.10678   0.00000  Uiso   1.00
C21    C     0.80303   0.44563   0.17762   0.00000  Uiso   1.00
C22    C     0.71322   0.41224   0.16897   0.00000  Uiso   1.00
C23    C     0.65678   0.42245   0.12008   0.00000  Uiso   1.00
H24    H     0.96101   0.55192   0.12646   0.00000  Uiso   1.00
H25    H     0.91846   0.68159   0.25786   0.00000  Uiso   1.00
H26    H     0.16960   0.45535   0.05075   0.00000  Uiso   1.00
H27    H     0.80407   0.53056   0.05989   0.00000  Uiso   1.00
H28    H     0.85707   0.80677   0.42064   0.00000  Uiso   1.00
H29    H     0.38662   0.32973   0.98393   0.00000  Uiso   1.00
H30    H     0.61581   0.48832   0.00320   0.00000  Uiso   1.00
H31    H     0.85121   0.40887   0.25835   0.00000  Uiso   1.00
H32    H     0.80262   0.53069   0.39698   0.00000  Uiso   1.00
H33    H     0.05378   0.30445   0.18987   0.00000  Uiso   1.00
H34    H     0.68824   0.37966   0.19901   0.00000  Uiso   1.00
H35    H     0.76306   0.68429   0.53356   0.00000  Uiso   1.00
H36    H     0.29261   0.20725   0.09685   0.00000  Uiso   1.00
H37    H     0.52181   0.36584   0.11612   0.00000  Uiso   1.00
O38    O     0.78013   0.82824   0.56592   0.00000  Uiso   1.00
O39    O     0.47486   0.20237   0.99296   0.00000  Uiso   1.00
O40    O     0.46358   0.41045   0.01824   0.00000  Uiso   1.00
N41    N     0.84159   0.76123   0.42819   0.00000  Uiso   1.00
N42    N     0.33669   0.31523   0.01990   0.00000  Uiso   1.00
N43    N     0.61607   0.46349   0.03790   0.00000  Uiso   1.00
N44    N     0.79100   0.69533   0.48895   0.00000  Uiso   1.00
N45    N     0.28610   0.24933   0.08066   0.00000  Uiso   1.00
N46    N     0.56549   0.39758   0.09866   0.00000  Uiso   1.00
C47    C     0.08683   0.84230   0.36196   0.00000  Uiso   1.00
C48    C     0.13527   0.75211   0.32300   0.00000  Uiso   1.00
C49    C     0.16892   0.71047   0.35960   0.00000  Uiso   1.00
C50    C     0.21105   0.62813   0.31379   0.00000  Uiso   1.00
C51    C     0.28508   0.49405   0.26539   0.00000  Uiso   1.00
C52    C     0.16543   0.86736   0.31197   0.00000  Uiso   1.00
C53    C     0.22443   0.92264   0.33932   0.00000  Uiso   1.00
C54    C     0.29193   0.93733   0.28423   0.00000  Uiso   1.00
C55    C     0.41271   0.98223   0.21872   0.00000  Uiso   1.00
C56    C     0.97005   0.85796   0.35055   0.00000  Uiso   1.00
C57    C     0.86478   0.90535   0.41031   0.00000  Uiso   1.00
C58    C     0.76780   0.91214   0.38770   0.00000  Uiso   1.00
C59    C     0.58524   0.94244   0.38208   0.00000  Uiso   1.00
C60    C     0.10178   0.77012   0.21552   0.00000  Uiso   1.00
C61    C     0.14339   0.71291   0.24346   0.00000  Uiso   1.00
C62    C     0.18547   0.63061   0.19758   0.00000  Uiso   1.00
C63    C     0.21918   0.58885   0.23411   0.00000  Uiso   1.00
C64    C     0.17355   0.82816   0.23244   0.00000  Uiso   1.00
C65    C     0.24097   0.84278   0.17730   0.00000  Uiso   1.00
C66    C     0.30007   0.89805   0.20454   0.00000  Uiso   1.00
C67    C     0.97817   0.81876   0.27101   0.00000  Uiso   1.00
C68    C     0.88133   0.82548   0.24830   0.00000  Uiso   1.00
C69    C     0.77593   0.87286   0.30802   0.00000  Uiso   1.00
H70    H     0.08051   0.87282   0.42388   0.00000  Uiso   1.00
H71    H     0.16263   0.74083   0.42115   0.00000  Uiso   1.00
H72    H     0.21811   0.95297   0.40087   0.00000  Uiso   1.00
H73    H     0.85853   0.93568   0.47186   0.00000  Uiso   1.00
H74    H     0.25731   0.57720   0.38305   0.00000  Uiso   1.00
H75    H     0.37426   0.02453   0.34028   0.00000  Uiso   1.00
H76    H     0.61601   0.98807   0.48998   0.00000  Uiso   1.00
H77    H     0.10811   0.73960   0.15359   0.00000  Uiso   1.00
H78    H     0.19175   0.60028   0.13603   0.00000  Uiso   1.00
H79    H     0.24723   0.81243   0.11575   0.00000  Uiso   1.00
H80    H     0.88765   0.79514   0.18674   0.00000  Uiso   1.00
H81    H     0.28094   0.46313   0.15163   0.00000  Uiso   1.00
H82    H     0.39789   0.91047   0.10887   0.00000  Uiso   1.00
H83    H     0.63964   0.87400   0.25856   0.00000  Uiso   1.00
O84    O     0.32368   0.43093   0.26066   0.00000  Uiso   1.00
O85    O     0.47710   0.01782   0.20456   0.00000  Uiso   1.00
O86    O     0.48230   0.96998   0.40095   0.00000  Uiso   1.00
N87    N     0.25137   0.56947   0.33100   0.00000  Uiso   1.00
N88    N     0.36073   0.98769   0.29101   0.00000  Uiso   1.00
N89    N     0.65183   0.95362   0.43096   0.00000  Uiso   1.00
N90    N     0.26409   0.50809   0.20647   0.00000  Uiso   1.00
N91    N     0.37345   0.92631   0.16649   0.00000  Uiso   1.00
N92    N     0.66455   0.89224   0.30644   0.00000  Uiso   1.00
C93    C     0.45346   0.64060   0.48154   0.00000  Uiso   1.00
C94    C     0.46722   0.68066   0.43086   0.00000  Uiso   1.00
C95    C     0.53906   0.64509   0.35287   0.00000  Uiso   1.00
C96    C     0.53936   0.69180   0.31684   0.00000  Uiso   1.00
C97    C     0.57128   0.74194   0.23199   0.00000  Uiso   1.00
C98    C     0.48126   0.69198   0.55469   0.00000  Uiso   1.00
C99    C     0.56490   0.66592   0.58081   0.00000  Uiso   1.00
C100   C     0.57700   0.72216   0.64903   0.00000  Uiso   1.00
C101   C     0.63067   0.78986   0.75645   0.00000  Uiso   1.00
C102   C     0.32474   0.64935   0.51028   0.00000  Uiso   1.00
C103   C     0.27675   0.58746   0.49908   0.00000  Uiso   1.00
C104   C     0.15707   0.60782   0.52992   0.00000  Uiso   1.00
C105   C     0.96770   0.60933   0.56839   0.00000  Uiso   1.00
C106   C     0.32625   0.78680   0.55626   0.00000  Uiso   1.00
C107   C     0.39813   0.76007   0.47145   0.00000  Uiso   1.00
C108   C     0.39831   0.80685   0.43553   0.00000  Uiso   1.00
C109   C     0.47014   0.77136   0.35749   0.00000  Uiso   1.00
C110   C     0.41217   0.77139   0.59527   0.00000  Uiso   1.00
C111   C     0.42415   0.82768   0.66347   0.00000  Uiso   1.00
C112   C     0.50779   0.80172   0.68968   0.00000  Uiso   1.00
C113   C     0.25564   0.72877   0.55086   0.00000  Uiso   1.00
C114   C     0.13601   0.74922   0.58174   0.00000  Uiso   1.00
C115   C     0.08785   0.68738   0.57058   0.00000  Uiso   1.00
H116   H     0.50726   0.57877   0.44995   0.00000  Uiso   1.00
H117   H     0.59253   0.58363   0.32148   0.00000  Uiso   1.00
H118   H     0.61835   0.60446   0.54939   0.00000  Uiso   1.00
H119   H     0.33025   0.52602   0.46767   0.00000  Uiso   1.00
H120   H     0.65662   0.62405   0.19696   0.00000  Uiso   1.00
H121   H     0.71104   0.66796   0.67754   0.00000  Uiso   1.00
H122   H     0.10353   0.50254   0.50520   0.00000  Uiso   1.00
H123   H     0.27246   0.84863   0.58786   0.00000  Uiso   1.00
H124   H     0.34483   0.86830   0.46695   0.00000  Uiso   1.00
H125   H     0.37066   0.88913   0.69486   0.00000  Uiso   1.00
H126   H     0.08257   0.81069   0.61314   0.00000  Uiso   1.00
H127   H     0.45559   0.85510   0.31502   0.00000  Uiso   1.00
H128   H     0.51001   0.89901   0.79561   0.00000  Uiso   1.00
H129   H     0.90250   0.73359   0.62327   0.00000  Uiso   1.00
O130   O     0.60798   0.74765   0.17397   0.00000  Uiso   1.00
O131   O     0.67937   0.80526   0.80449   0.00000  Uiso   1.00
O132   O     0.88233   0.58823   0.57838   0.00000  Uiso   1.00
N133   N     0.59935   0.67572   0.24133   0.00000  Uiso   1.00
N134   N     0.65025   0.71678   0.69064   0.00000  Uiso   1.00
N135   N     0.08228   0.56213   0.52954   0.00000  Uiso   1.00
N136   N     0.49118   0.80005   0.30486   0.00000  Uiso   1.00
N137   N     0.54208   0.84111   0.75417   0.00000  Uiso   1.00
N138   N     0.97411   0.68646   0.59307   0.00000  Uiso   1.00
C139   C     0.06415   0.48085   0.84332   0.00000  Uiso   1.00
C140   C     0.10251   0.43023   0.75364   0.00000  Uiso   1.00
C141   C     0.10656   0.35097   0.71209   0.00000  Uiso   1.00
C142   C     0.14412   0.31524   0.63025   0.00000  Uiso   1.00
C143   C     0.19871   0.23026   0.49691   0.00000  Uiso   1.00
C144   C     0.96604   0.55315   0.86616   0.00000  Uiso   1.00
C145   C     0.85537   0.57723   0.91922   0.00000  Uiso   1.00
C146   C     0.77806   0.64499   0.93210   0.00000  Uiso   1.00
C147   C     0.62081   0.75086   0.97349   0.00000  Uiso   1.00
C148   C     0.16465   0.51228   0.86119   0.00000  Uiso   1.00
C149   C     0.22096   0.50202   0.91009   0.00000  Uiso   1.00
C150   C     0.31085   0.53538   0.91880   0.00000  Uiso   1.00
C151   C     0.46197   0.57779   0.95247   0.00000  Uiso   1.00
C152   C     0.12364   0.55835   0.77187   0.00000  Uiso   1.00
C153   C     0.13481   0.47234   0.71483   0.00000  Uiso   1.00
C154   C     0.17238   0.43672   0.63303   0.00000  Uiso   1.00
C155   C     0.17649   0.35741   0.59137   0.00000  Uiso   1.00
C156   C     0.99835   0.59525   0.82735   0.00000  Uiso   1.00
C157   C     0.92119   0.66298   0.84017   0.00000  Uiso   1.00
C158   C     0.81042   0.68716   0.89322   0.00000  Uiso   1.00
C159   C     0.19697   0.55437   0.82238   0.00000  Uiso   1.00
C160   C     0.28678   0.58776   0.83103   0.00000  Uiso   1.00
C161   C     0.34321   0.57755   0.87992   0.00000  Uiso   1.00
H162   H     0.03899   0.44808   0.87354   0.00000  Uiso   1.00
H163   H     0.08154   0.31841   0.74214   0.00000  Uiso   1.00
H164   H     0.83040   0.54465   0.94925   0.00000  Uiso   1.00
H165   H     0.19593   0.46944   0.94011   0.00000  Uiso   1.00
H166   H     0.14293   0.19323   0.57936   0.00000  Uiso   1.00
H167   H     0.61338   0.67027   0.01607   0.00000  Uiso   1.00
H168   H     0.38419   0.51168   0.99680   0.00000  Uiso   1.00
H169   H     0.14879   0.59113   0.74165   0.00000  Uiso   1.00
H170   H     0.19738   0.46931   0.60302   0.00000  Uiso   1.00
H171   H     0.94622   0.69555   0.81013   0.00000  Uiso   1.00
H172   H     0.31176   0.62034   0.80099   0.00000  Uiso   1.00
H173   H     0.23694   0.31571   0.46644   0.00000  Uiso   1.00
H174   H     0.70739   0.79275   0.90315   0.00000  Uiso   1.00
H175   H     0.47819   0.63416   0.88388   0.00000  Uiso   1.00
O176   O     0.21987   0.17176   0.43408   0.00000  Uiso   1.00
O177   O     0.52514   0.79763   0.00704   0.00000  Uiso   1.00
O178   O     0.53642   0.58955   0.98176   0.00000  Uiso   1.00
N179   N     0.15841   0.23877   0.57181   0.00000  Uiso   1.00
N180   N     0.66331   0.68477   0.98010   0.00000  Uiso   1.00
N181   N     0.38392   0.53651   0.96210   0.00000  Uiso   1.00
N182   N     0.20899   0.30467   0.51105   0.00000  Uiso   1.00
N183   N     0.71390   0.75067   0.91934   0.00000  Uiso   1.00
N184   N     0.43451   0.60242   0.90134   0.00000  Uiso   1.00
C185   C     0.91317   0.15770   0.63804   0.00000  Uiso   1.00
C186   C     0.86473   0.24789   0.67700   0.00000  Uiso   1.00
C187   C     0.83108   0.28953   0.64040   0.00000  Uiso   1.00
C188   C     0.78895   0.37187   0.68621   0.00000  Uiso   1.00
C189   C     0.71492   0.50595   0.73461   0.00000  Uiso   1.00
C190   C     0.83457   0.13264   0.68803   0.00000  Uiso   1.00
C191   C     0.77557   0.07736   0.66068   0.00000  Uiso   1.00
C192   C     0.70807   0.06267   0.71577   0.00000  Uiso   1.00
C193   C     0.58729   0.01777   0.78128   0.00000  Uiso   1.00
C194   C     0.02994   0.14204   0.64945   0.00000  Uiso   1.00
C195   C     0.13522   0.09465   0.58969   0.00000  Uiso   1.00
C196   C     0.23220   0.08786   0.61230   0.00000  Uiso   1.00
C197   C     0.41476   0.05756   0.61792   0.00000  Uiso   1.00
C198   C     0.89822   0.22988   0.78448   0.00000  Uiso   1.00
C199   C     0.85661   0.28709   0.75654   0.00000  Uiso   1.00
C200   C     0.81453   0.36939   0.80242   0.00000  Uiso   1.00
C201   C     0.78082   0.41115   0.76589   0.00000  Uiso   1.00
C202   C     0.82645   0.17184   0.76756   0.00000  Uiso   1.00
C203   C     0.75903   0.15722   0.82270   0.00000  Uiso   1.00
C204   C     0.69993   0.10195   0.79546   0.00000  Uiso   1.00
C205   C     0.02182   0.18124   0.72899   0.00000  Uiso   1.00
C206   C     0.11867   0.17452   0.75170   0.00000  Uiso   1.00
C207   C     0.22406   0.12714   0.69198   0.00000  Uiso   1.00
H208   H     0.91949   0.12718   0.57612   0.00000  Uiso   1.00
H209   H     0.83737   0.25917   0.57885   0.00000  Uiso   1.00
H210   H     0.78189   0.04703   0.59913   0.00000  Uiso   1.00
H211   H     0.14147   0.06432   0.52814   0.00000  Uiso   1.00
H212   H     0.74269   0.42280   0.61695   0.00000  Uiso   1.00
H213   H     0.62574   0.97547   0.65972   0.00000  Uiso   1.00
H214   H     0.38399   0.01193   0.51002   0.00000  Uiso   1.00
H215   H     0.89189   0.26040   0.84641   0.00000  Uiso   1.00
H216   H     0.80825   0.39972   0.86397   0.00000  Uiso   1.00
H217   H     0.75277   0.18757   0.88425   0.00000  Uiso   1.00
H218   H     0.11235   0.20486   0.81326   0.00000  Uiso   1.00
H219   H     0.71906   0.53687   0.84837   0.00000  Uiso   1.00
H220   H     0.60210   0.08953   0.89113   0.00000  Uiso   1.00
H221   H     0.36036   0.12600   0.74144   0.00000  Uiso   1.00
O222   O     0.67632   0.56907   0.73934   0.00000  Uiso   1.00
O223   O     0.52290   0.98218   0.79544   0.00000  Uiso   1.00
O224   O     0.51770   0.03002   0.59905   0.00000  Uiso   1.00
N225   N     0.74863   0.43053   0.66900   0.00000  Uiso   1.00
N226   N     0.63927   0.01231   0.70899   0.00000  Uiso   1.00
N227   N     0.34817   0.04638   0.56904   0.00000  Uiso   1.00
N228   N     0.73591   0.49191   0.79353   0.00000  Uiso   1.00
N229   N     0.62655   0.07369   0.83351   0.00000  Uiso   1.00
N230   N     0.33545   0.10776   0.69356   0.00000  Uiso   1.00
C231   C     0.54654   0.35940   0.51846   0.00000  Uiso   1.00
C232   C     0.53278   0.31934   0.56914   0.00000  Uiso   1.00
C233   C     0.46094   0.35491   0.64713   0.00000  Uiso   1.00
C234   C     0.46064   0.30820   0.68316   0.00000  Uiso   1.00
C235   C     0.42872   0.25806   0.76801   0.00000  Uiso   1.00
C236   C     0.51874   0.30802   0.44531   0.00000  Uiso   1.00
C237   C     0.43510   0.33408   0.41919   0.00000  Uiso   1.00
C238   C     0.42299   0.27784   0.35097   0.00000  Uiso   1.00
C239   C     0.36933   0.21014   0.24355   0.00000  Uiso   1.00
C240   C     0.67526   0.35065   0.48972   0.00000  Uiso   1.00
C241   C     0.72325   0.41254   0.50092   0.00000  Uiso   1.00
C242   C     0.84292   0.39218   0.47008   0.00000  Uiso   1.00
C243   C     0.03230   0.39067   0.43161   0.00000  Uiso   1.00
C244   C     0.67375   0.21320   0.44374   0.00000  Uiso   1.00
C245   C     0.60187   0.23993   0.52855   0.00000  Uiso   1.00
C246   C     0.60169   0.19315   0.56447   0.00000  Uiso   1.00
C247   C     0.52986   0.22864   0.64251   0.00000  Uiso   1.00
C248   C     0.58783   0.22861   0.40473   0.00000  Uiso   1.00
C249   C     0.57585   0.17232   0.33653   0.00000  Uiso   1.00
C250   C     0.49221   0.19828   0.31031   0.00000  Uiso   1.00
C251   C     0.74436   0.27123   0.44914   0.00000  Uiso   1.00
C252   C     0.86399   0.25078   0.41826   0.00000  Uiso   1.00
C253   C     0.91214   0.31262   0.42942   0.00000  Uiso   1.00
H254   H     0.49274   0.42123   0.55005   0.00000  Uiso   1.00
H255   H     0.40747   0.41637   0.67852   0.00000  Uiso   1.00
H256   H     0.38165   0.39554   0.45061   0.00000  Uiso   1.00
H257   H     0.66975   0.47398   0.53233   0.00000  Uiso   1.00
H258   H     0.34338   0.37595   0.80304   0.00000  Uiso   1.00
H259   H     0.28896   0.33204   0.32246   0.00000  Uiso   1.00
H260   H     0.89647   0.49746   0.49480   0.00000  Uiso   1.00
H261   H     0.72754   0.15137   0.41214   0.00000  Uiso   1.00
H262   H     0.65517   0.13170   0.53305   0.00000  Uiso   1.00
H263   H     0.62934   0.11087   0.30514   0.00000  Uiso   1.00
H264   H     0.91743   0.18931   0.38686   0.00000  Uiso   1.00
H265   H     0.54441   0.14490   0.68498   0.00000  Uiso   1.00
H266   H     0.48999   0.10099   0.20439   0.00000  Uiso   1.00
H267   H     0.09750   0.26641   0.37673   0.00000  Uiso   1.00
O268   O     0.39202   0.25235   0.82603   0.00000  Uiso   1.00
O269   O     0.32063   0.19474   0.19551   0.00000  Uiso   1.00
O270   O     0.11766   0.41177   0.42162   0.00000  Uiso   1.00
N271   N     0.40064   0.32427   0.75867   0.00000  Uiso   1.00
N272   N     0.34975   0.28322   0.30936   0.00000  Uiso   1.00
N273   N     0.91772   0.43787   0.47046   0.00000  Uiso   1.00
N274   N     0.50882   0.19995   0.69514   0.00000  Uiso   1.00
N275   N     0.45792   0.15889   0.24583   0.00000  Uiso   1.00
N276   N     0.02589   0.31354   0.40693   0.00000  Uiso   1.00
