data_job_06495
_audit_creation_date              2018-12-19
_audit_creation_method            'Materials Studio'
_symmetry_space_group_name_H-M    'P1'
_symmetry_Int_Tables_number       1
_symmetry_cell_setting            triclinic
loop_
_symmetry_equiv_pos_as_xyz
  x,y,z
_cell_length_a                    20.4553
_cell_length_b                    26.6438
_cell_length_c                    15.6328
_cell_angle_alpha                 91.2125
_cell_angle_beta                  70.0321
_cell_angle_gamma                 109.9160
loop_
_atom_site_label
_atom_site_type_symbol
_atom_site_fract_x
_atom_site_fract_y
_atom_site_fract_z
_atom_site_U_iso_or_equiv
_atom_site_adp_type
_atom_site_occupancy
C1     C     0.30343   0.52748   0.51461   0.00000  Uiso   1.00
C2     C     0.26529   0.47903   0.47292   0.00000  Uiso   1.00
C3     C     0.28033   0.47470   0.38010   0.00000  Uiso   1.00
C4     C     0.23937   0.42709   0.35584   0.00000  Uiso   1.00
C5     C     0.18834   0.35821   0.28104   0.00000  Uiso   1.00
C6     C     0.24145   0.54427   0.57949   0.00000  Uiso   1.00
C7     C     0.23646   0.59481   0.57627   0.00000  Uiso   1.00
C8     C     0.17545   0.60212   0.64173   0.00000  Uiso   1.00
C9     C     0.08744   0.63456   0.73242   0.00000  Uiso   1.00
C10    C     0.33538   0.50646   0.57500   0.00000  Uiso   1.00
C11    C     0.40936   0.52522   0.56802   0.00000  Uiso   1.00
C12    C     0.42743   0.50070   0.62972   0.00000  Uiso   1.00
C13    C     0.48525   0.47443   0.71344   0.00000  Uiso   1.00
C14    C     0.20396   0.45061   0.63659   0.00000  Uiso   1.00
C15    C     0.21126   0.43727   0.53918   0.00000  Uiso   1.00
C16    C     0.17027   0.38965   0.51506   0.00000  Uiso   1.00
C17    C     0.18525   0.38526   0.42221   0.00000  Uiso   1.00
C18    C     0.18742   0.50252   0.64575   0.00000  Uiso   1.00
C19    C     0.12640   0.50976   0.71123   0.00000  Uiso   1.00
C20    C     0.12132   0.56030   0.70811   0.00000  Uiso   1.00
C21    C     0.28135   0.46471   0.64126   0.00000  Uiso   1.00
C22    C     0.29930   0.44016   0.70298   0.00000  Uiso   1.00
C23    C     0.37330   0.45887   0.69610   0.00000  Uiso   1.00
H24    H     0.34549   0.55999   0.46302   0.00000  Uiso   1.00
H25    H     0.32214   0.50703   0.32884   0.00000  Uiso   1.00
H26    H     0.27828   0.62712   0.52499   0.00000  Uiso   1.00
H27    H     0.45116   0.55753   0.51674   0.00000  Uiso   1.00
H28    H     0.27240   0.42990   0.20930   0.00000  Uiso   1.00
H29    H     0.17994   0.68313   0.62290   0.00000  Uiso   1.00
H30    H     0.54448   0.53638   0.60551   0.00000  Uiso   1.00
H31    H     0.16189   0.41810   0.68818   0.00000  Uiso   1.00
H32    H     0.12846   0.35735   0.56635   0.00000  Uiso   1.00
H33    H     0.08461   0.47744   0.76250   0.00000  Uiso   1.00
H34    H     0.25748   0.40785   0.75425   0.00000  Uiso   1.00
H35    H     0.11520   0.30842   0.40207   0.00000  Uiso   1.00
H36    H     0.02274   0.56165   0.81568   0.00000  Uiso   1.00
H37    H     0.38728   0.41490   0.79828   0.00000  Uiso   1.00
O38    O     0.17510   0.33176   0.22148   0.00000  Uiso   1.00
O39    O     0.05381   0.66399   0.76412   0.00000  Uiso   1.00
O40    O     0.53208   0.47146   0.74130   0.00000  Uiso   1.00
N41    N     0.24000   0.40964   0.27138   0.00000  Uiso   1.00
N42    N     0.15355   0.64639   0.65807   0.00000  Uiso   1.00
N43    N     0.49436   0.50921   0.64183   0.00000  Uiso   1.00
N44    N     0.15541   0.34427   0.37511   0.00000  Uiso   1.00
N45    N     0.06897   0.58102   0.76180   0.00000  Uiso   1.00
N46    N     0.40978   0.44384   0.74556   0.00000  Uiso   1.00
C47    C     0.73354   0.24236   0.58912   0.00000  Uiso   1.00
C48    C     0.75491   0.22953   0.49001   0.00000  Uiso   1.00
C49    C     0.70779   0.21493   0.44035   0.00000  Uiso   1.00
C50    C     0.73797   0.20484   0.35060   0.00000  Uiso   1.00
C51    C     0.75978   0.18423   0.20259   0.00000  Uiso   1.00
C52    C     0.75254   0.20444   0.64029   0.00000  Uiso   1.00
C53    C     0.70342   0.16875   0.71700   0.00000  Uiso   1.00
C54    C     0.73161   0.13754   0.75377   0.00000  Uiso   1.00
C55    C     0.74975   0.07801   0.83912   0.00000  Uiso   1.00
C56    C     0.78734   0.29860   0.58835   0.00000  Uiso   1.00
C57    C     0.76750   0.34209   0.62141   0.00000  Uiso   1.00
C58    C     0.82500   0.39016   0.61446   0.00000  Uiso   1.00
C59    C     0.89719   0.47683   0.61917   0.00000  Uiso   1.00
C60    C     0.87095   0.25039   0.51803   0.00000  Uiso   1.00
C61    C     0.82954   0.23389   0.45140   0.00000  Uiso   1.00
C62    C     0.85981   0.22382   0.36170   0.00000  Uiso   1.00
C63    C     0.81274   0.20921   0.31191   0.00000  Uiso   1.00
C64    C     0.82717   0.20880   0.60168   0.00000  Uiso   1.00
C65    C     0.85544   0.17764   0.63835   0.00000  Uiso   1.00
C66    C     0.80638   0.14191   0.71509   0.00000  Uiso   1.00
C67    C     0.86198   0.30297   0.54974   0.00000  Uiso   1.00
C68    C     0.91952   0.35098   0.54275   0.00000  Uiso   1.00
C69    C     0.89977   0.39453   0.57578   0.00000  Uiso   1.00
H70    H     0.67544   0.23896   0.61919   0.00000  Uiso   1.00
H71    H     0.65003   0.21155   0.47026   0.00000  Uiso   1.00
H72    H     0.64567   0.16539   0.74687   0.00000  Uiso   1.00
H73    H     0.70974   0.33870   0.65129   0.00000  Uiso   1.00
H74    H     0.65476   0.18308   0.28813   0.00000  Uiso   1.00
H75    H     0.64557   0.08574   0.87140   0.00000  Uiso   1.00
H76    H     0.78068   0.45120   0.66984   0.00000  Uiso   1.00
H77    H     0.92906   0.25379   0.48797   0.00000  Uiso   1.00
H78    H     0.91757   0.22720   0.33183   0.00000  Uiso   1.00
H79    H     0.91320   0.18103   0.60845   0.00000  Uiso   1.00
H80    H     0.97727   0.35434   0.51286   0.00000  Uiso   1.00
H81    H     0.87191   0.19578   0.17578   0.00000  Uiso   1.00
H82    H     0.86271   0.09844   0.75905   0.00000  Uiso   1.00
H83    H     0.99782   0.46390   0.55749   0.00000  Uiso   1.00
O84    O     0.75119   0.17165   0.13162   0.00000  Uiso   1.00
O85    O     0.73913   0.04396   0.89686   0.00000  Uiso   1.00
O86    O     0.91639   0.52343   0.63242   0.00000  Uiso   1.00
N87    N     0.70745   0.18973   0.28311   0.00000  Uiso   1.00
N88    N     0.69885   0.09872   0.82842   0.00000  Uiso   1.00
N89    N     0.82516   0.44038   0.64001   0.00000  Uiso   1.00
N90    N     0.82429   0.19656   0.22265   0.00000  Uiso   1.00
N91    N     0.81569   0.10555   0.76797   0.00000  Uiso   1.00
N92    N     0.94201   0.44722   0.57955   0.00000  Uiso   1.00
C93    C     0.59771   0.77834   0.27944   0.00000  Uiso   1.00
C94    C     0.53430   0.74083   0.25269   0.00000  Uiso   1.00
C95    C     0.51519   0.68560   0.25280   0.00000  Uiso   1.00
C96    C     0.45541   0.65846   0.22602   0.00000  Uiso   1.00
C97    C     0.36295   0.59609   0.18839   0.00000  Uiso   1.00
C98    C     0.64685   0.82040   0.19736   0.00000  Uiso   1.00
C99    C     0.72237   0.83207   0.15095   0.00000  Uiso   1.00
C100   C     0.75734   0.87193   0.07760   0.00000  Uiso   1.00
C101   C     0.83962   0.93312   0.95410   0.00000  Uiso   1.00
C102   C     0.56251   0.80806   0.35556   0.00000  Uiso   1.00
C103   C     0.56713   0.80938   0.44217   0.00000  Uiso   1.00
C104   C     0.53109   0.83886   0.50201   0.00000  Uiso   1.00
C105   C     0.48242   0.88090   0.62414   0.00000  Uiso   1.00
C106   C     0.52553   0.82836   0.23172   0.00000  Uiso   1.00
C107   C     0.49510   0.76800   0.22677   0.00000  Uiso   1.00
C108   C     0.43533   0.74094   0.20000   0.00000  Uiso   1.00
C109   C     0.41613   0.68568   0.20006   0.00000  Uiso   1.00
C110   C     0.60765   0.84757   0.17144   0.00000  Uiso   1.00
C111   C     0.64251   0.88741   0.09815   0.00000  Uiso   1.00
C112   C     0.71806   0.89915   0.05163   0.00000  Uiso   1.00
C113   C     0.52330   0.83523   0.32964   0.00000  Uiso   1.00
C114   C     0.48726   0.86472   0.38936   0.00000  Uiso   1.00
C115   C     0.49182   0.86608   0.47604   0.00000  Uiso   1.00
H116   H     0.62824   0.75719   0.29962   0.00000  Uiso   1.00
H117   H     0.54555   0.66459   0.27285   0.00000  Uiso   1.00
H118   H     0.75270   0.81105   0.17103   0.00000  Uiso   1.00
H119   H     0.59747   0.78836   0.46220   0.00000  Uiso   1.00
H120   H     0.43660   0.57391   0.23171   0.00000  Uiso   1.00
H121   H     0.87339   0.88273   0.01703   0.00000  Uiso   1.00
H122   H     0.54607   0.83489   0.63102   0.00000  Uiso   1.00
H123   H     0.49501   0.84951   0.21154   0.00000  Uiso   1.00
H124   H     0.40500   0.76198   0.17994   0.00000  Uiso   1.00
H125   H     0.61216   0.90843   0.07811   0.00000  Uiso   1.00
H126   H     0.45693   0.88574   0.36928   0.00000  Uiso   1.00
H127   H     0.32253   0.65295   0.15630   0.00000  Uiso   1.00
H128   H     0.75933   0.96178   0.94161   0.00000  Uiso   1.00
H129   H     0.43200   0.91393   0.55560   0.00000  Uiso   1.00
O130   O     0.32278   0.55419   0.17478   0.00000  Uiso   1.00
O131   O     0.89584   0.95936   0.89313   0.00000  Uiso   1.00
O132   O     0.46639   0.89658   0.69868   0.00000  Uiso   1.00
N133   N     0.42210   0.60452   0.21832   0.00000  Uiso   1.00
N134   N     0.83047   0.89325   0.01759   0.00000  Uiso   1.00
N135   N     0.52447   0.84853   0.59162   0.00000  Uiso   1.00
N136   N     0.36072   0.64706   0.17774   0.00000  Uiso   1.00
N137   N     0.76909   0.93578   0.97701   0.00000  Uiso   1.00
N138   N     0.46308   0.89106   0.55104   0.00000  Uiso   1.00
C139   C     0.65184   0.30243   0.20160   0.00000  Uiso   1.00
C140   C     0.61329   0.26743   0.14196   0.00000  Uiso   1.00
C141   C     0.61158   0.21579   0.12452   0.00000  Uiso   1.00
C142   C     0.57335   0.19048   0.06820   0.00000  Uiso   1.00
C143   C     0.51880   0.13225   0.98133   0.00000  Uiso   1.00
C144   C     0.59205   0.31768   0.27445   0.00000  Uiso   1.00
C145   C     0.57251   0.30830   0.36841   0.00000  Uiso   1.00
C146   C     0.51641   0.32530   0.42361   0.00000  Uiso   1.00
C147   C     0.42894   0.34511   0.54244   0.00000  Uiso   1.00
C148   C     0.70574   0.35430   0.14109   0.00000  Uiso   1.00
C149   C     0.78178   0.37573   0.12294   0.00000  Uiso   1.00
C150   C     0.82139   0.42357   0.06588   0.00000  Uiso   1.00
C151   C     0.91043   0.50025   0.97764   0.00000  Uiso   1.00
C152   C     0.58698   0.34930   0.13257   0.00000  Uiso   1.00
C153   C     0.57806   0.29288   0.10447   0.00000  Uiso   1.00
C154   C     0.53982   0.26765   0.04815   0.00000  Uiso   1.00
C155   C     0.53806   0.21598   0.03063   0.00000  Uiso   1.00
C156   C     0.55683   0.34313   0.23696   0.00000  Uiso   1.00
C157   C     0.50075   0.36015   0.29203   0.00000  Uiso   1.00
C158   C     0.48112   0.35080   0.38605   0.00000  Uiso   1.00
C159   C     0.67051   0.37976   0.10359   0.00000  Uiso   1.00
C160   C     0.71001   0.42758   0.04656   0.00000  Uiso   1.00
C161   C     0.78609   0.44907   0.02831   0.00000  Uiso   1.00
H162   H     0.67927   0.28261   0.23080   0.00000  Uiso   1.00
H163   H     0.63884   0.19611   0.15356   0.00000  Uiso   1.00
H164   H     0.59978   0.28860   0.39740   0.00000  Uiso   1.00
H165   H     0.80902   0.35602   0.15196   0.00000  Uiso   1.00
H166   H     0.57847   0.11142   0.05142   0.00000  Uiso   1.00
H167   H     0.49612   0.30647   0.56558   0.00000  Uiso   1.00
H168   H     0.93733   0.44863   0.04803   0.00000  Uiso   1.00
H169   H     0.55956   0.36912   0.10338   0.00000  Uiso   1.00
H170   H     0.51256   0.28735   0.01914   0.00000  Uiso   1.00
H171   H     0.47350   0.37985   0.26299   0.00000  Uiso   1.00
H172   H     0.68273   0.44726   0.01755   0.00000  Uiso   1.00
H173   H     0.47597   0.18548   0.94233   0.00000  Uiso   1.00
H174   H     0.39363   0.38053   0.45649   0.00000  Uiso   1.00
H175   H     0.83483   0.52269   0.93893   0.00000  Uiso   1.00
O176   O     0.49844   0.09309   0.94379   0.00000  Uiso   1.00
O177   O     0.39042   0.34900   0.61834   0.00000  Uiso   1.00
O178   O     0.96928   0.53551   0.93932   0.00000  Uiso   1.00
N179   N     0.56081   0.14007   0.03729   0.00000  Uiso   1.00
N180   N     0.48381   0.32243   0.51800   0.00000  Uiso   1.00
N181   N     0.89630   0.45534   0.03415   0.00000  Uiso   1.00
N182   N     0.50565   0.17992   0.97859   0.00000  Uiso   1.00
N183   N     0.42866   0.36228   0.45930   0.00000  Uiso   1.00
N184   N     0.84115   0.49519   0.97545   0.00000  Uiso   1.00
C185   C     0.13738   0.99353   0.76109   0.00000  Uiso   1.00
C186   C     0.10095   0.94792   0.71297   0.00000  Uiso   1.00
C187   C     0.02629   0.91554   0.74412   0.00000  Uiso   1.00
C188   C     0.00386   0.87603   0.69017   0.00000  Uiso   1.00
C189   C     0.93961   0.80627   0.62791   0.00000  Uiso   1.00
C190   C     0.17437   0.04344   0.69197   0.00000  Uiso   1.00
C191   C     0.16146   0.09138   0.70550   0.00000  Uiso   1.00
C192   C     0.20086   0.13228   0.63387   0.00000  Uiso   1.00
C193   C     0.25065   0.21083   0.53906   0.00000  Uiso   1.00
C194   C     0.20051   0.98060   0.77470   0.00000  Uiso   1.00
C195   C     0.20958   0.97571   0.85777   0.00000  Uiso   1.00
C196   C     0.27099   0.96372   0.85579   0.00000  Uiso   1.00
C197   C     0.36135   0.94470   0.88941   0.00000  Uiso   1.00
C198   C     0.23032   0.98094   0.60986   0.00000  Uiso   1.00
C199   C     0.15143   0.94108   0.63082   0.00000  Uiso   1.00
C200   C     0.12912   0.90161   0.57681   0.00000  Uiso   1.00
C201   C     0.05444   0.86918   0.60788   0.00000  Uiso   1.00
C202   C     0.22486   0.03660   0.60983   0.00000  Uiso   1.00
C203   C     0.26429   0.07745   0.53818   0.00000  Uiso   1.00
C204   C     0.25144   0.12543   0.55158   0.00000  Uiso   1.00
C205   C     0.25099   0.97376   0.69256   0.00000  Uiso   1.00
C206   C     0.31241   0.96177   0.69045   0.00000  Uiso   1.00
C207   C     0.32157   0.95687   0.77350   0.00000  Uiso   1.00
H208   H     0.09808   0.99886   0.82504   0.00000  Uiso   1.00
H209   H     0.98723   0.92085   0.80769   0.00000  Uiso   1.00
H210   H     0.12239   0.09666   0.76907   0.00000  Uiso   1.00
H211   H     0.17050   0.98101   0.92132   0.00000  Uiso   1.00
H212   H     0.88660   0.83137   0.75222   0.00000  Uiso   1.00
H213   H     0.17161   0.20208   0.67080   0.00000  Uiso   1.00
H214   H     0.27306   0.95820   0.99184   0.00000  Uiso   1.00
H215   H     0.26963   0.97561   0.54591   0.00000  Uiso   1.00
H216   H     0.16820   0.89633   0.51325   0.00000  Uiso   1.00
H217   H     0.30336   0.07214   0.47462   0.00000  Uiso   1.00
H218   H     0.35147   0.95648   0.62687   0.00000  Uiso   1.00
H219   H     0.03348   0.81146   0.51323   0.00000  Uiso   1.00
H220   H     0.31849   0.18217   0.43181   0.00000  Uiso   1.00
H221   H     0.41994   0.93829   0.75285   0.00000  Uiso   1.00
O222   O     0.89022   0.76969   0.61626   0.00000  Uiso   1.00
O223   O     0.26415   0.25605   0.50945   0.00000  Uiso   1.00
O224   O     0.39724   0.93609   0.93065   0.00000  Uiso   1.00
N225   N     0.93509   0.83756   0.70047   0.00000  Uiso   1.00
N226   N     0.20155   0.18415   0.62433   0.00000  Uiso   1.00
N227   N     0.29641   0.95615   0.92448   0.00000  Uiso   1.00
N228   N     0.01413   0.82684   0.57187   0.00000  Uiso   1.00
N229   N     0.28059   0.17343   0.49574   0.00000  Uiso   1.00
N230   N     0.37544   0.94544   0.79589   0.00000  Uiso   1.00
C231   C     0.02053   0.81874   0.13193   0.00000  Uiso   1.00
C232   C     0.94071   0.78108   0.15101   0.00000  Uiso   1.00
C233   C     0.90323   0.77305   0.08991   0.00000  Uiso   1.00
C234   C     0.83049   0.73690   0.12042   0.00000  Uiso   1.00
C235   C     0.71174   0.68252   0.13658   0.00000  Uiso   1.00
C236   C     0.06135   0.78415   0.15014   0.00000  Uiso   1.00
C237   C     0.12530   0.77871   0.08830   0.00000  Uiso   1.00
C238   C     0.15411   0.74515   0.11809   0.00000  Uiso   1.00
C239   C     0.22268   0.69558   0.13291   0.00000  Uiso   1.00
C240   C     0.01667   0.85678   0.20625   0.00000  Uiso   1.00
C241   C     0.04308   0.91242   0.19160   0.00000  Uiso   1.00
C242   C     0.03429   0.94001   0.26863   0.00000  Uiso   1.00
C243   C     0.03349   0.00320   0.37057   0.00000  Uiso   1.00
C244   C     0.95799   0.76881   0.29479   0.00000  Uiso   1.00
C245   C     0.90675   0.75396   0.23947   0.00000  Uiso   1.00
C246   C     0.83404   0.71781   0.27009   0.00000  Uiso   1.00
C247   C     0.79646   0.70973   0.20904   0.00000  Uiso   1.00
C248   C     0.02738   0.75703   0.23859   0.00000  Uiso   1.00
C249   C     0.05611   0.72347   0.26848   0.00000  Uiso   1.00
C250   C     0.12008   0.71799   0.20671   0.00000  Uiso   1.00
C251   C     0.98270   0.82966   0.29471   0.00000  Uiso   1.00
C252   C     0.97388   0.85717   0.37178   0.00000  Uiso   1.00
C253   C     0.00026   0.91284   0.35725   0.00000  Uiso   1.00
H254   H     0.04698   0.83985   0.06306   0.00000  Uiso   1.00
H255   H     0.92954   0.79404   0.02145   0.00000  Uiso   1.00
H256   H     0.15158   0.79971   0.01985   0.00000  Uiso   1.00
H257   H     0.06936   0.93339   0.12313   0.00000  Uiso   1.00
H258   H     0.78437   0.73128   0.01432   0.00000  Uiso   1.00
H259   H     0.25256   0.74324   0.01095   0.00000  Uiso   1.00
H260   H     0.07919   0.02513   0.22874   0.00000  Uiso   1.00
H261   H     0.93155   0.74770   0.36366   0.00000  Uiso   1.00
H262   H     0.80777   0.69683   0.33855   0.00000  Uiso   1.00
H263   H     0.02981   0.70250   0.33694   0.00000  Uiso   1.00
H264   H     0.94759   0.83618   0.44023   0.00000  Uiso   1.00
H265   H     0.68554   0.65237   0.27169   0.00000  Uiso   1.00
H266   H     0.15373   0.66434   0.26832   0.00000  Uiso   1.00
H267   H     0.98036   0.94623   0.48611   0.00000  Uiso   1.00
O268   O     0.65562   0.66001   0.12105   0.00000  Uiso   1.00
O269   O     0.26988   0.67572   0.11663   0.00000  Uiso   1.00
O270   O     0.04242   0.04555   0.40237   0.00000  Uiso   1.00
N271   N     0.77809   0.71970   0.07834   0.00000  Uiso   1.00
N272   N     0.21581   0.73087   0.07519   0.00000  Uiso   1.00
N273   N     0.05375   0.99442   0.27880   0.00000  Uiso   1.00
N274   N     0.72491   0.67724   0.21683   0.00000  Uiso   1.00
N275   N     0.16263   0.68842   0.21368   0.00000  Uiso   1.00
N276   N     0.00057   0.95196   0.41729   0.00000  Uiso   1.00
C277   C     0.69657   0.47252   0.48539   0.00000  Uiso   1.00
C278   C     0.73471   0.52097   0.52708   0.00000  Uiso   1.00
C279   C     0.71967   0.52530   0.61990   0.00000  Uiso   1.00
C280   C     0.76063   0.57291   0.64416   0.00000  Uiso   1.00
C281   C     0.81166   0.64179   0.71896   0.00000  Uiso   1.00
C282   C     0.75855   0.45573   0.42051   0.00000  Uiso   1.00
C283   C     0.76354   0.40519   0.42373   0.00000  Uiso   1.00
C284   C     0.82455   0.39788   0.35827   0.00000  Uiso   1.00
C285   C     0.91256   0.36544   0.26758   0.00000  Uiso   1.00
C286   C     0.66462   0.49354   0.42500   0.00000  Uiso   1.00
C287   C     0.59064   0.47478   0.43198   0.00000  Uiso   1.00
C288   C     0.57257   0.49930   0.37028   0.00000  Uiso   1.00
C289   C     0.51475   0.52557   0.28656   0.00000  Uiso   1.00
C290   C     0.79604   0.54939   0.36341   0.00000  Uiso   1.00
C291   C     0.78874   0.56273   0.46082   0.00000  Uiso   1.00
C292   C     0.82973   0.61035   0.48494   0.00000  Uiso   1.00
C293   C     0.81475   0.61474   0.57779   0.00000  Uiso   1.00
C294   C     0.81258   0.49748   0.35425   0.00000  Uiso   1.00
C295   C     0.87360   0.49024   0.28877   0.00000  Uiso   1.00
C296   C     0.87868   0.43970   0.29189   0.00000  Uiso   1.00
C297   C     0.71865   0.53529   0.35874   0.00000  Uiso   1.00
C298   C     0.70070   0.55984   0.29702   0.00000  Uiso   1.00
C299   C     0.62670   0.54113   0.30390   0.00000  Uiso   1.00
H300   H     0.65451   0.44001   0.53698   0.00000  Uiso   1.00
H301   H     0.67786   0.49297   0.67116   0.00000  Uiso   1.00
H302   H     0.72172   0.37288   0.47501   0.00000  Uiso   1.00
H303   H     0.54884   0.44247   0.48326   0.00000  Uiso   1.00
H304   H     0.72760   0.57010   0.79070   0.00000  Uiso   1.00
H305   H     0.82006   0.31687   0.37710   0.00000  Uiso   1.00
H306   H     0.45552   0.46362   0.39449   0.00000  Uiso   1.00
H307   H     0.83811   0.58190   0.31182   0.00000  Uiso   1.00
H308   H     0.87154   0.64265   0.43365   0.00000  Uiso   1.00
H309   H     0.91539   0.52256   0.23750   0.00000  Uiso   1.00
H310   H     0.74252   0.59215   0.24575   0.00000  Uiso   1.00
H311   H     0.88480   0.69158   0.59793   0.00000  Uiso   1.00
H312   H     0.97726   0.43835   0.18432   0.00000  Uiso   1.00
H313   H     0.61272   0.58510   0.20172   0.00000  Uiso   1.00
O314   O     0.82490   0.66824   0.77852   0.00000  Uiso   1.00
O315   O     0.94619   0.33601   0.23588   0.00000  Uiso   1.00
O316   O     0.46792   0.52854   0.25870   0.00000  Uiso   1.00
N317   N     0.76000   0.59036   0.72862   0.00000  Uiso   1.00
N318   N     0.84645   0.35361   0.34193   0.00000  Uiso   1.00
N319   N     0.50564   0.49079   0.35817   0.00000  Uiso   1.00
N320   N     0.84459   0.65573   0.62489   0.00000  Uiso   1.00
N321   N     0.93103   0.41898   0.23820   0.00000  Uiso   1.00
N322   N     0.59022   0.55616   0.25444   0.00000  Uiso   1.00
C323   C     0.26646   0.75764   0.41088   0.00000  Uiso   1.00
C324   C     0.24509   0.77047   0.50999   0.00000  Uiso   1.00
C325   C     0.29221   0.78507   0.55965   0.00000  Uiso   1.00
C326   C     0.26203   0.79516   0.64940   0.00000  Uiso   1.00
C327   C     0.24022   0.81577   0.79741   0.00000  Uiso   1.00
C328   C     0.24746   0.79556   0.35971   0.00000  Uiso   1.00
C329   C     0.29658   0.83125   0.28300   0.00000  Uiso   1.00
C330   C     0.26839   0.86246   0.24623   0.00000  Uiso   1.00
C331   C     0.25025   0.92199   0.16088   0.00000  Uiso   1.00
C332   C     0.21266   0.70140   0.41165   0.00000  Uiso   1.00
C333   C     0.23250   0.65791   0.37859   0.00000  Uiso   1.00
C334   C     0.17500   0.60984   0.38554   0.00000  Uiso   1.00
C335   C     0.10281   0.52317   0.38083   0.00000  Uiso   1.00
C336   C     0.12905   0.74961   0.48197   0.00000  Uiso   1.00
C337   C     0.17046   0.76611   0.54860   0.00000  Uiso   1.00
C338   C     0.14019   0.77618   0.63830   0.00000  Uiso   1.00
C339   C     0.18726   0.79079   0.68809   0.00000  Uiso   1.00
C340   C     0.17283   0.79120   0.39832   0.00000  Uiso   1.00
C341   C     0.14456   0.82236   0.36165   0.00000  Uiso   1.00
C342   C     0.19362   0.85809   0.28491   0.00000  Uiso   1.00
C343   C     0.13802   0.69703   0.45026   0.00000  Uiso   1.00
C344   C     0.08048   0.64902   0.45725   0.00000  Uiso   1.00
C345   C     0.10023   0.60547   0.42422   0.00000  Uiso   1.00
H346   H     0.32456   0.76104   0.38081   0.00000  Uiso   1.00
H347   H     0.34997   0.78845   0.52974   0.00000  Uiso   1.00
H348   H     0.35433   0.83461   0.25313   0.00000  Uiso   1.00
H349   H     0.29026   0.66130   0.34871   0.00000  Uiso   1.00
H350   H     0.34524   0.81692   0.71187   0.00000  Uiso   1.00
H351   H     0.35443   0.91426   0.12860   0.00000  Uiso   1.00
H352   H     0.21932   0.54880   0.33016   0.00000  Uiso   1.00
H353   H     0.07094   0.74621   0.51203   0.00000  Uiso   1.00
H354   H     0.08243   0.77280   0.66817   0.00000  Uiso   1.00
H355   H     0.08680   0.81897   0.39155   0.00000  Uiso   1.00
H356   H     0.02273   0.64566   0.48714   0.00000  Uiso   1.00
H357   H     0.12809   0.80422   0.82422   0.00000  Uiso   1.00
H358   H     0.13729   0.90156   0.24095   0.00000  Uiso   1.00
H359   H     0.00218   0.53610   0.44251   0.00000  Uiso   1.00
O360   O     0.24881   0.82835   0.86838   0.00000  Uiso   1.00
O361   O     0.26087   0.95604   0.10314   0.00000  Uiso   1.00
O362   O     0.08361   0.47657   0.36758   0.00000  Uiso   1.00
N363   N     0.29255   0.81027   0.71689   0.00000  Uiso   1.00
N364   N     0.30115   0.90128   0.17158   0.00000  Uiso   1.00
N365   N     0.17484   0.55962   0.35999   0.00000  Uiso   1.00
N366   N     0.17571   0.80344   0.77735   0.00000  Uiso   1.00
N367   N     0.18431   0.89445   0.23203   0.00000  Uiso   1.00
N368   N     0.05799   0.55278   0.42045   0.00000  Uiso   1.00
C369   C     0.40229   0.22166   0.72056   0.00000  Uiso   1.00
C370   C     0.46570   0.25917   0.74731   0.00000  Uiso   1.00
C371   C     0.48481   0.31440   0.74720   0.00000  Uiso   1.00
C372   C     0.54459   0.34154   0.77398   0.00000  Uiso   1.00
C373   C     0.63705   0.40391   0.81161   0.00000  Uiso   1.00
C374   C     0.35315   0.17960   0.80264   0.00000  Uiso   1.00
C375   C     0.27763   0.16793   0.84905   0.00000  Uiso   1.00
C376   C     0.24266   0.12807   0.92240   0.00000  Uiso   1.00
C377   C     0.16038   0.06688   0.04590   0.00000  Uiso   1.00
C378   C     0.43749   0.19194   0.64444   0.00000  Uiso   1.00
C379   C     0.43287   0.19062   0.55783   0.00000  Uiso   1.00
C380   C     0.46891   0.16114   0.49799   0.00000  Uiso   1.00
C381   C     0.51758   0.11910   0.37586   0.00000  Uiso   1.00
C382   C     0.47447   0.17164   0.76828   0.00000  Uiso   1.00
C383   C     0.50490   0.23200   0.77323   0.00000  Uiso   1.00
C384   C     0.56467   0.25906   0.80000   0.00000  Uiso   1.00
C385   C     0.58387   0.31432   0.79994   0.00000  Uiso   1.00
C386   C     0.39235   0.15243   0.82856   0.00000  Uiso   1.00
C387   C     0.35749   0.11259   0.90185   0.00000  Uiso   1.00
C388   C     0.28194   0.10085   0.94837   0.00000  Uiso   1.00
C389   C     0.47670   0.16477   0.67036   0.00000  Uiso   1.00
C390   C     0.51274   0.13528   0.61064   0.00000  Uiso   1.00
C391   C     0.50818   0.13392   0.52396   0.00000  Uiso   1.00
H392   H     0.37176   0.24281   0.70038   0.00000  Uiso   1.00
H393   H     0.45445   0.33541   0.72715   0.00000  Uiso   1.00
H394   H     0.24730   0.18895   0.82897   0.00000  Uiso   1.00
H395   H     0.40253   0.21164   0.53780   0.00000  Uiso   1.00
H396   H     0.56340   0.42609   0.76829   0.00000  Uiso   1.00
H397   H     0.12661   0.11727   0.98297   0.00000  Uiso   1.00
H398   H     0.45393   0.16511   0.36898   0.00000  Uiso   1.00
H399   H     0.50499   0.15049   0.78846   0.00000  Uiso   1.00
H400   H     0.59500   0.23802   0.82006   0.00000  Uiso   1.00
H401   H     0.38784   0.09157   0.92189   0.00000  Uiso   1.00
H402   H     0.54307   0.11426   0.63072   0.00000  Uiso   1.00
H403   H     0.67747   0.34705   0.84370   0.00000  Uiso   1.00
H404   H     0.24067   0.03822   0.05839   0.00000  Uiso   1.00
H405   H     0.56800   0.08607   0.44440   0.00000  Uiso   1.00
O406   O     0.67722   0.44581   0.82522   0.00000  Uiso   1.00
O407   O     0.10416   0.04064   0.10687   0.00000  Uiso   1.00
O408   O     0.53361   0.10342   0.30132   0.00000  Uiso   1.00
N409   N     0.57790   0.39548   0.78168   0.00000  Uiso   1.00
N410   N     0.16953   0.10675   0.98241   0.00000  Uiso   1.00
N411   N     0.47553   0.15147   0.40838   0.00000  Uiso   1.00
N412   N     0.63928   0.35294   0.82226   0.00000  Uiso   1.00
N413   N     0.23091   0.06422   0.02299   0.00000  Uiso   1.00
N414   N     0.53692   0.10894   0.44896   0.00000  Uiso   1.00
C415   C     0.34816   0.69757   0.79840   0.00000  Uiso   1.00
C416   C     0.38671   0.73257   0.85804   0.00000  Uiso   1.00
C417   C     0.38842   0.78421   0.87548   0.00000  Uiso   1.00
C418   C     0.42665   0.80952   0.93180   0.00000  Uiso   1.00
C419   C     0.48120   0.86775   0.01867   0.00000  Uiso   1.00
C420   C     0.40795   0.68232   0.72555   0.00000  Uiso   1.00
C421   C     0.42749   0.69170   0.63159   0.00000  Uiso   1.00
C422   C     0.48359   0.67470   0.57639   0.00000  Uiso   1.00
C423   C     0.57106   0.65489   0.45756   0.00000  Uiso   1.00
C424   C     0.29426   0.64570   0.85891   0.00000  Uiso   1.00
C425   C     0.21822   0.62427   0.87706   0.00000  Uiso   1.00
C426   C     0.17861   0.57643   0.93412   0.00000  Uiso   1.00
C427   C     0.08957   0.49975   0.02236   0.00000  Uiso   1.00
C428   C     0.41302   0.65070   0.86743   0.00000  Uiso   1.00
C429   C     0.42194   0.70712   0.89553   0.00000  Uiso   1.00
C430   C     0.46018   0.73235   0.95185   0.00000  Uiso   1.00
C431   C     0.46194   0.78402   0.96937   0.00000  Uiso   1.00
C432   C     0.44317   0.65687   0.76304   0.00000  Uiso   1.00
C433   C     0.49925   0.63985   0.70797   0.00000  Uiso   1.00
C434   C     0.51888   0.64920   0.61395   0.00000  Uiso   1.00
C435   C     0.32949   0.62024   0.89641   0.00000  Uiso   1.00
C436   C     0.28999   0.57242   0.95344   0.00000  Uiso   1.00
C437   C     0.21391   0.55093   0.97169   0.00000  Uiso   1.00
H438   H     0.32073   0.71739   0.76920   0.00000  Uiso   1.00
H439   H     0.36116   0.80389   0.84644   0.00000  Uiso   1.00
H440   H     0.40022   0.71140   0.60260   0.00000  Uiso   1.00
H441   H     0.19098   0.64398   0.84804   0.00000  Uiso   1.00
H442   H     0.42153   0.88858   0.94858   0.00000  Uiso   1.00
H443   H     0.50388   0.69353   0.43442   0.00000  Uiso   1.00
H444   H     0.06267   0.55137   0.95197   0.00000  Uiso   1.00
H445   H     0.44044   0.63088   0.89662   0.00000  Uiso   1.00
H446   H     0.48744   0.71265   0.98086   0.00000  Uiso   1.00
H447   H     0.52650   0.62015   0.73701   0.00000  Uiso   1.00
H448   H     0.31727   0.55274   0.98245   0.00000  Uiso   1.00
H449   H     0.52403   0.81452   0.05767   0.00000  Uiso   1.00
H450   H     0.60637   0.61947   0.54351   0.00000  Uiso   1.00
H451   H     0.16517   0.47731   0.06107   0.00000  Uiso   1.00
O452   O     0.50156   0.90691   0.05621   0.00000  Uiso   1.00
O453   O     0.60958   0.65100   0.38166   0.00000  Uiso   1.00
O454   O     0.03072   0.46449   0.06068   0.00000  Uiso   1.00
N455   N     0.43919   0.85993   0.96271   0.00000  Uiso   1.00
N456   N     0.51619   0.67757   0.48200   0.00000  Uiso   1.00
N457   N     0.10370   0.54466   0.96585   0.00000  Uiso   1.00
N458   N     0.49435   0.82008   0.02141   0.00000  Uiso   1.00
N459   N     0.57134   0.63772   0.54070   0.00000  Uiso   1.00
N460   N     0.15885   0.50481   0.02455   0.00000  Uiso   1.00
C461   C     0.86262   0.00647   0.23891   0.00000  Uiso   1.00
C462   C     0.89905   0.05208   0.28703   0.00000  Uiso   1.00
C463   C     0.97371   0.08446   0.25588   0.00000  Uiso   1.00
C464   C     0.99614   0.12397   0.30983   0.00000  Uiso   1.00
C465   C     0.06039   0.19373   0.37209   0.00000  Uiso   1.00
C466   C     0.82563   0.95656   0.30803   0.00000  Uiso   1.00
C467   C     0.83854   0.90862   0.29450   0.00000  Uiso   1.00
C468   C     0.79914   0.86772   0.36613   0.00000  Uiso   1.00
C469   C     0.74935   0.78917   0.46094   0.00000  Uiso   1.00
C470   C     0.79949   0.01940   0.22530   0.00000  Uiso   1.00
C471   C     0.79042   0.02429   0.14223   0.00000  Uiso   1.00
C472   C     0.72901   0.03628   0.14421   0.00000  Uiso   1.00
C473   C     0.63865   0.05530   0.11059   0.00000  Uiso   1.00
C474   C     0.76968   0.01906   0.39014   0.00000  Uiso   1.00
C475   C     0.84857   0.05892   0.36918   0.00000  Uiso   1.00
C476   C     0.87088   0.09839   0.42319   0.00000  Uiso   1.00
C477   C     0.94556   0.13082   0.39212   0.00000  Uiso   1.00
C478   C     0.77514   0.96340   0.39017   0.00000  Uiso   1.00
C479   C     0.73571   0.92255   0.46182   0.00000  Uiso   1.00
C480   C     0.74856   0.87457   0.44842   0.00000  Uiso   1.00
C481   C     0.74901   0.02624   0.30744   0.00000  Uiso   1.00
C482   C     0.68759   0.03823   0.30955   0.00000  Uiso   1.00
C483   C     0.67843   0.04313   0.22650   0.00000  Uiso   1.00
H484   H     0.90192   0.00114   0.17496   0.00000  Uiso   1.00
H485   H     0.01277   0.07915   0.19231   0.00000  Uiso   1.00
H486   H     0.87761   0.90334   0.23093   0.00000  Uiso   1.00
H487   H     0.82950   0.01899   0.07868   0.00000  Uiso   1.00
H488   H     0.11340   0.16863   0.24778   0.00000  Uiso   1.00
H489   H     0.82839   0.79792   0.32920   0.00000  Uiso   1.00
H490   H     0.72694   0.04180   0.00816   0.00000  Uiso   1.00
H491   H     0.73037   0.02439   0.45409   0.00000  Uiso   1.00
H492   H     0.83180   0.10367   0.48675   0.00000  Uiso   1.00
H493   H     0.69664   0.92786   0.52538   0.00000  Uiso   1.00
H494   H     0.64853   0.04352   0.37313   0.00000  Uiso   1.00
H495   H     0.96652   0.18854   0.48677   0.00000  Uiso   1.00
H496   H     0.68151   0.81783   0.56819   0.00000  Uiso   1.00
H497   H     0.58006   0.06171   0.24715   0.00000  Uiso   1.00
O498   O     0.10978   0.23031   0.38374   0.00000  Uiso   1.00
O499   O     0.73585   0.74395   0.49055   0.00000  Uiso   1.00
O500   O     0.60276   0.06391   0.06935   0.00000  Uiso   1.00
N501   N     0.06491   0.16244   0.29953   0.00000  Uiso   1.00
N502   N     0.79845   0.81585   0.37567   0.00000  Uiso   1.00
N503   N     0.70359   0.04385   0.07552   0.00000  Uiso   1.00
N504   N     0.98587   0.17316   0.42813   0.00000  Uiso   1.00
N505   N     0.71941   0.82657   0.50426   0.00000  Uiso   1.00
N506   N     0.62456   0.05456   0.20411   0.00000  Uiso   1.00
C507   C     0.97947   0.18126   0.86807   0.00000  Uiso   1.00
C508   C     0.05929   0.21892   0.84899   0.00000  Uiso   1.00
C509   C     0.09677   0.22695   0.91009   0.00000  Uiso   1.00
C510   C     0.16951   0.26310   0.87958   0.00000  Uiso   1.00
C511   C     0.28826   0.31748   0.86342   0.00000  Uiso   1.00
C512   C     0.93865   0.21585   0.84986   0.00000  Uiso   1.00
C513   C     0.87470   0.22129   0.91170   0.00000  Uiso   1.00
C514   C     0.84589   0.25485   0.88191   0.00000  Uiso   1.00
C515   C     0.77732   0.30442   0.86709   0.00000  Uiso   1.00
C516   C     0.98333   0.14322   0.79375   0.00000  Uiso   1.00
C517   C     0.95692   0.08758   0.80840   0.00000  Uiso   1.00
C518   C     0.96571   0.05999   0.73137   0.00000  Uiso   1.00
C519   C     0.96651   0.99680   0.62943   0.00000  Uiso   1.00
C520   C     0.04201   0.23119   0.70521   0.00000  Uiso   1.00
C521   C     0.09325   0.24604   0.76053   0.00000  Uiso   1.00
C522   C     0.16596   0.28219   0.72991   0.00000  Uiso   1.00
C523   C     0.20354   0.29027   0.79096   0.00000  Uiso   1.00
C524   C     0.97262   0.24297   0.76141   0.00000  Uiso   1.00
C525   C     0.94389   0.27653   0.73152   0.00000  Uiso   1.00
C526   C     0.87992   0.28201   0.79329   0.00000  Uiso   1.00
C527   C     0.01730   0.17034   0.70529   0.00000  Uiso   1.00
C528   C     0.02612   0.14283   0.62822   0.00000  Uiso   1.00
C529   C     0.99974   0.08716   0.64275   0.00000  Uiso   1.00
H530   H     0.95302   0.16015   0.93694   0.00000  Uiso   1.00
H531   H     0.07046   0.20596   0.97855   0.00000  Uiso   1.00
H532   H     0.84842   0.20029   0.98015   0.00000  Uiso   1.00
H533   H     0.93064   0.06661   0.87687   0.00000  Uiso   1.00
H534   H     0.21563   0.26872   0.98568   0.00000  Uiso   1.00
H535   H     0.74744   0.25676   0.98905   0.00000  Uiso   1.00
H536   H     0.92081   0.97487   0.77126   0.00000  Uiso   1.00
H537   H     0.06845   0.25230   0.63634   0.00000  Uiso   1.00
H538   H     0.19223   0.30317   0.66145   0.00000  Uiso   1.00
H539   H     0.97019   0.29750   0.66306   0.00000  Uiso   1.00
H540   H     0.05241   0.16382   0.55977   0.00000  Uiso   1.00
H541   H     0.31446   0.34763   0.72831   0.00000  Uiso   1.00
H542   H     0.84627   0.33566   0.73168   0.00000  Uiso   1.00
H543   H     0.01964   0.05377   0.51389   0.00000  Uiso   1.00
O544   O     0.34438   0.33999   0.87895   0.00000  Uiso   1.00
O545   O     0.73012   0.32428   0.88337   0.00000  Uiso   1.00
O546   O     0.95758   0.95445   0.59763   0.00000  Uiso   1.00
N547   N     0.22191   0.28030   0.92166   0.00000  Uiso   1.00
N548   N     0.78419   0.26913   0.92481   0.00000  Uiso   1.00
N549   N     0.94625   0.00558   0.72120   0.00000  Uiso   1.00
N550   N     0.27509   0.32276   0.78317   0.00000  Uiso   1.00
N551   N     0.83737   0.31158   0.78632   0.00000  Uiso   1.00
N552   N     0.99943   0.04804   0.58271   0.00000  Uiso   1.00
