data_job_06125
_audit_creation_date              2018-12-19
_audit_creation_method            'Materials Studio'
_symmetry_space_group_name_H-M    'P1'
_symmetry_Int_Tables_number       1
_symmetry_cell_setting            triclinic
loop_
_symmetry_equiv_pos_as_xyz
  x,y,z
_cell_length_a                    12.0992
_cell_length_b                    24.3986
_cell_length_c                    24.4574
_cell_angle_alpha                 62.1730
_cell_angle_beta                  82.1161
_cell_angle_gamma                 97.8564
loop_
_atom_site_label
_atom_site_type_symbol
_atom_site_fract_x
_atom_site_fract_y
_atom_site_fract_z
_atom_site_U_iso_or_equiv
_atom_site_adp_type
_atom_site_occupancy
C1     C     0.95335   0.40930   0.41427   0.00000  Uiso   1.00
C2     C     0.94927   0.35488   0.39962   0.00000  Uiso   1.00
C3     C     0.00334   0.35981   0.34314   0.00000  Uiso   1.00
C4     C     0.98911   0.30449   0.33907   0.00000  Uiso   1.00
C5     C     0.99276   0.22883   0.30860   0.00000  Uiso   1.00
C6     C     0.82897   0.41140   0.43258   0.00000  Uiso   1.00
C7     C     0.78190   0.46386   0.40382   0.00000  Uiso   1.00
C8     C     0.66640   0.45613   0.42751   0.00000  Uiso   1.00
C9     C     0.48331   0.46824   0.44824   0.00000  Uiso   1.00
C10    C     0.99859   0.38829   0.47450   0.00000  Uiso   1.00
C11    C     0.09412   0.42132   0.48100   0.00000  Uiso   1.00
C12    C     0.12142   0.39413   0.53999   0.00000  Uiso   1.00
C13    C     0.20169   0.37036   0.62581   0.00000  Uiso   1.00
C14    C     0.83194   0.30229   0.50749   0.00000  Uiso   1.00
C15    C     0.88333   0.29675   0.45025   0.00000  Uiso   1.00
C16    C     0.86902   0.24141   0.44627   0.00000  Uiso   1.00
C17    C     0.92305   0.24626   0.38979   0.00000  Uiso   1.00
C18    C     0.76303   0.35328   0.48321   0.00000  Uiso   1.00
C19    C     0.64758   0.34547   0.50695   0.00000  Uiso   1.00
C20    C     0.60034   0.39790   0.47823   0.00000  Uiso   1.00
C21    C     0.93265   0.33016   0.52513   0.00000  Uiso   1.00
C22    C     0.95980   0.30292   0.58413   0.00000  Uiso   1.00
C23    C     0.05535   0.33591   0.59071   0.00000  Uiso   1.00
H24    H     0.00468   0.45455   0.37486   0.00000  Uiso   1.00
H25    H     0.05435   0.40480   0.30396   0.00000  Uiso   1.00
H26    H     0.83295   0.50884   0.36464   0.00000  Uiso   1.00
H27    H     0.14513   0.46630   0.44181   0.00000  Uiso   1.00
H28    H     0.08031   0.32401   0.24769   0.00000  Uiso   1.00
H29    H     0.61348   0.54339   0.37564   0.00000  Uiso   1.00
H30    H     0.27177   0.45369   0.53836   0.00000  Uiso   1.00
H31    H     0.78060   0.25703   0.54691   0.00000  Uiso   1.00
H32    H     0.81798   0.19644   0.48545   0.00000  Uiso   1.00
H33    H     0.59657   0.30048   0.54613   0.00000  Uiso   1.00
H34    H     0.90875   0.25794   0.62330   0.00000  Uiso   1.00
H35    H     0.88845   0.15490   0.39499   0.00000  Uiso   1.00
H36    H     0.42163   0.37428   0.52294   0.00000  Uiso   1.00
H37    H     0.07991   0.28458   0.68567   0.00000  Uiso   1.00
O38    O     0.01298   0.20316   0.27780   0.00000  Uiso   1.00
O39    O     0.40053   0.49098   0.44568   0.00000  Uiso   1.00
O40    O     0.26419   0.37330   0.65916   0.00000  Uiso   1.00
N41    N     0.03005   0.29252   0.29079   0.00000  Uiso   1.00
N42    N     0.59359   0.49762   0.41042   0.00000  Uiso   1.00
N43    N     0.20901   0.41377   0.56255   0.00000  Uiso   1.00
N44    N     0.92681   0.20152   0.37005   0.00000  Uiso   1.00
N45    N     0.49035   0.40663   0.48968   0.00000  Uiso   1.00
N46    N     0.10577   0.32278   0.64182   0.00000  Uiso   1.00
C47    C     0.54677   0.17527   0.41211   0.00000  Uiso   1.00
C48    C     0.59100   0.24386   0.35828   0.00000  Uiso   1.00
C49    C     0.64013   0.29499   0.36435   0.00000  Uiso   1.00
C50    C     0.67511   0.35397   0.30940   0.00000  Uiso   1.00
C51    C     0.74581   0.45934   0.23477   0.00000  Uiso   1.00
C52    C     0.42174   0.15619   0.41151   0.00000  Uiso   1.00
C53    C     0.32856   0.13360   0.46234   0.00000  Uiso   1.00
C54    C     0.22105   0.11877   0.45221   0.00000  Uiso   1.00
C55    C     0.02899   0.08799   0.46025   0.00000  Uiso   1.00
C56    C     0.61026   0.13523   0.39229   0.00000  Uiso   1.00
C57    C     0.67557   0.09499   0.42696   0.00000  Uiso   1.00
C58    C     0.72676   0.06249   0.40064   0.00000  Uiso   1.00
C59    C     0.82740   0.99915   0.37882   0.00000  Uiso   1.00
C60    C     0.52152   0.18909   0.30375   0.00000  Uiso   1.00
C61    C     0.57728   0.25137   0.29942   0.00000  Uiso   1.00
C62    C     0.61219   0.31028   0.24445   0.00000  Uiso   1.00
C63    C     0.66137   0.36149   0.25044   0.00000  Uiso   1.00
C64    C     0.40802   0.16370   0.35266   0.00000  Uiso   1.00
C65    C     0.30062   0.14889   0.34245   0.00000  Uiso   1.00
C66    C     0.20731   0.12629   0.39325   0.00000  Uiso   1.00
C67    C     0.59654   0.14273   0.33342   0.00000  Uiso   1.00
C68    C     0.64763   0.11028   0.30706   0.00000  Uiso   1.00
C69    C     0.71302   0.07001   0.34168   0.00000  Uiso   1.00
H70    H     0.55744   0.16943   0.45794   0.00000  Uiso   1.00
H71    H     0.65072   0.28917   0.40991   0.00000  Uiso   1.00
H72    H     0.33921   0.12780   0.50789   0.00000  Uiso   1.00
H73    H     0.68617   0.08919   0.47250   0.00000  Uiso   1.00
H74    H     0.74805   0.42523   0.33070   0.00000  Uiso   1.00
H75    H     0.09121   0.08496   0.53731   0.00000  Uiso   1.00
H76    H     0.82284   0.00355   0.46269   0.00000  Uiso   1.00
H77    H     0.51083   0.19493   0.25792   0.00000  Uiso   1.00
H78    H     0.60156   0.31607   0.19891   0.00000  Uiso   1.00
H79    H     0.29004   0.15470   0.29690   0.00000  Uiso   1.00
H80    H     0.63700   0.11610   0.26151   0.00000  Uiso   1.00
H81    H     0.70815   0.44707   0.15945   0.00000  Uiso   1.00
H82    H     0.05130   0.10679   0.36606   0.00000  Uiso   1.00
H83    H     0.78293   0.02539   0.29144   0.00000  Uiso   1.00
O84    O     0.78859   0.51539   0.20987   0.00000  Uiso   1.00
O85    O     0.92684   0.06895   0.48094   0.00000  Uiso   1.00
O86    O     0.88672   0.96214   0.38304   0.00000  Uiso   1.00
N87    N     0.72623   0.41375   0.29849   0.00000  Uiso   1.00
N88    N     0.11212   0.09562   0.49166   0.00000  Uiso   1.00
N89    N     0.79610   0.01949   0.42190   0.00000  Uiso   1.00
N90    N     0.70476   0.42550   0.20634   0.00000  Uiso   1.00
N91    N     0.09065   0.10737   0.39951   0.00000  Uiso   1.00
N92    N     0.77463   0.03125   0.32976   0.00000  Uiso   1.00
C93    C     0.37191   0.41144   0.17756   0.00000  Uiso   1.00
C94    C     0.35484   0.39702   0.24630   0.00000  Uiso   1.00
C95    C     0.35815   0.33980   0.29785   0.00000  Uiso   1.00
C96    C     0.34043   0.33611   0.35689   0.00000  Uiso   1.00
C97    C     0.31695   0.30585   0.46254   0.00000  Uiso   1.00
C98    C     0.26500   0.43227   0.15604   0.00000  Uiso   1.00
C99    C     0.19280   0.40470   0.13169   0.00000  Uiso   1.00
C100   C     0.09947   0.43070   0.11475   0.00000  Uiso   1.00
C101   C     0.93657   0.45519   0.08023   0.00000  Uiso   1.00
C102   C     0.47030   0.47025   0.13938   0.00000  Uiso   1.00
C103   C     0.57070   0.47463   0.10101   0.00000  Uiso   1.00
C104   C     0.65021   0.53260   0.07002   0.00000  Uiso   1.00
C105   C     0.80606   0.61607   0.00962   0.00000  Uiso   1.00
C106   C     0.33457   0.50662   0.19074   0.00000  Uiso   1.00
C107   C     0.33455   0.44872   0.25346   0.00000  Uiso   1.00
C108   C     0.31683   0.44512   0.31244   0.00000  Uiso   1.00
C109   C     0.32012   0.38791   0.36407   0.00000  Uiso   1.00
C110   C     0.24472   0.48397   0.16320   0.00000  Uiso   1.00
C111   C     0.15148   0.51001   0.14628   0.00000  Uiso   1.00
C112   C     0.07915   0.48249   0.12192   0.00000  Uiso   1.00
C113   C     0.45002   0.52195   0.14654   0.00000  Uiso   1.00
C114   C     0.52939   0.57994   0.11560   0.00000  Uiso   1.00
C115   C     0.62989   0.58440   0.07719   0.00000  Uiso   1.00
H116   H     0.38770   0.37119   0.17198   0.00000  Uiso   1.00
H117   H     0.37384   0.29980   0.29229   0.00000  Uiso   1.00
H118   H     0.20852   0.36470   0.12615   0.00000  Uiso   1.00
H119   H     0.58637   0.43461   0.09548   0.00000  Uiso   1.00
H120   H     0.34948   0.24345   0.42883   0.00000  Uiso   1.00
H121   H     0.00093   0.38030   0.07851   0.00000  Uiso   1.00
H122   H     0.79768   0.52772   0.01381   0.00000  Uiso   1.00
H123   H     0.31878   0.54688   0.19632   0.00000  Uiso   1.00
H124   H     0.30114   0.48513   0.31796   0.00000  Uiso   1.00
H125   H     0.13582   0.55003   0.15183   0.00000  Uiso   1.00
H126   H     0.51366   0.61994   0.12115   0.00000  Uiso   1.00
H127   H     0.29047   0.39387   0.44967   0.00000  Uiso   1.00
H128   H     0.94192   0.53072   0.09934   0.00000  Uiso   1.00
H129   H     0.73867   0.67814   0.03465   0.00000  Uiso   1.00
O130   O     0.30958   0.27487   0.51884   0.00000  Uiso   1.00
O131   O     0.85230   0.45441   0.05921   0.00000  Uiso   1.00
O132   O     0.89763   0.64782   0.97434   0.00000  Uiso   1.00
N133   N     0.33804   0.28733   0.41704   0.00000  Uiso   1.00
N134   N     0.01215   0.41527   0.08952   0.00000  Uiso   1.00
N135   N     0.75704   0.55310   0.02902   0.00000  Uiso   1.00
N136   N     0.30629   0.36827   0.42826   0.00000  Uiso   1.00
N137   N     0.98040   0.49621   0.10073   0.00000  Uiso   1.00
N138   N     0.72529   0.63404   0.04023   0.00000  Uiso   1.00
C139   C     0.04665   0.59070   0.58573   0.00000  Uiso   1.00
C140   C     0.05073   0.64512   0.60038   0.00000  Uiso   1.00
C141   C     0.99666   0.64019   0.65686   0.00000  Uiso   1.00
C142   C     0.01089   0.69551   0.66093   0.00000  Uiso   1.00
C143   C     0.00724   0.77117   0.69140   0.00000  Uiso   1.00
C144   C     0.17103   0.58860   0.56742   0.00000  Uiso   1.00
C145   C     0.21810   0.53614   0.59618   0.00000  Uiso   1.00
C146   C     0.33360   0.54387   0.57249   0.00000  Uiso   1.00
C147   C     0.51669   0.53176   0.55176   0.00000  Uiso   1.00
C148   C     0.00141   0.61171   0.52550   0.00000  Uiso   1.00
C149   C     0.90588   0.57868   0.51900   0.00000  Uiso   1.00
C150   C     0.87858   0.60587   0.46001   0.00000  Uiso   1.00
C151   C     0.79831   0.62964   0.37419   0.00000  Uiso   1.00
C152   C     0.16806   0.69771   0.49251   0.00000  Uiso   1.00
C153   C     0.11667   0.70325   0.54975   0.00000  Uiso   1.00
C154   C     0.13098   0.75859   0.55373   0.00000  Uiso   1.00
C155   C     0.07695   0.75374   0.61021   0.00000  Uiso   1.00
C156   C     0.23697   0.64672   0.51679   0.00000  Uiso   1.00
C157   C     0.35242   0.65453   0.49305   0.00000  Uiso   1.00
C158   C     0.39966   0.60210   0.52177   0.00000  Uiso   1.00
C159   C     0.06735   0.66984   0.47487   0.00000  Uiso   1.00
C160   C     0.04020   0.69708   0.41587   0.00000  Uiso   1.00
C161   C     0.94465   0.66409   0.40929   0.00000  Uiso   1.00
H162   H     0.99532   0.54545   0.62514   0.00000  Uiso   1.00
H163   H     0.94565   0.59520   0.69604   0.00000  Uiso   1.00
H164   H     0.16705   0.49116   0.63536   0.00000  Uiso   1.00
H165   H     0.85487   0.53370   0.55819   0.00000  Uiso   1.00
H166   H     0.91969   0.67599   0.75231   0.00000  Uiso   1.00
H167   H     0.38652   0.45661   0.62436   0.00000  Uiso   1.00
H168   H     0.72823   0.54631   0.46164   0.00000  Uiso   1.00
H169   H     0.21940   0.74297   0.45309   0.00000  Uiso   1.00
H170   H     0.18202   0.80356   0.51455   0.00000  Uiso   1.00
H171   H     0.40343   0.69952   0.45387   0.00000  Uiso   1.00
H172   H     0.09125   0.74206   0.37670   0.00000  Uiso   1.00
H173   H     0.11155   0.84510   0.60501   0.00000  Uiso   1.00
H174   H     0.57837   0.62572   0.47705   0.00000  Uiso   1.00
H175   H     0.92009   0.71542   0.31433   0.00000  Uiso   1.00
O176   O     0.98702   0.79684   0.72220   0.00000  Uiso   1.00
O177   O     0.59947   0.50902   0.55432   0.00000  Uiso   1.00
O178   O     0.73581   0.62670   0.34084   0.00000  Uiso   1.00
N179   N     0.96995   0.70748   0.70921   0.00000  Uiso   1.00
N180   N     0.40641   0.50238   0.58958   0.00000  Uiso   1.00
N181   N     0.79099   0.58623   0.43745   0.00000  Uiso   1.00
N182   N     0.07319   0.79848   0.62995   0.00000  Uiso   1.00
N183   N     0.50965   0.59337   0.51032   0.00000  Uiso   1.00
N184   N     0.89423   0.67722   0.35818   0.00000  Uiso   1.00
C185   C     0.45323   0.82473   0.58789   0.00000  Uiso   1.00
C186   C     0.40900   0.75614   0.64172   0.00000  Uiso   1.00
C187   C     0.35987   0.70501   0.63565   0.00000  Uiso   1.00
C188   C     0.32489   0.64603   0.69060   0.00000  Uiso   1.00
C189   C     0.25419   0.54066   0.76523   0.00000  Uiso   1.00
C190   C     0.57826   0.84381   0.58849   0.00000  Uiso   1.00
C191   C     0.67144   0.86640   0.53766   0.00000  Uiso   1.00
C192   C     0.77895   0.88123   0.54778   0.00000  Uiso   1.00
C193   C     0.97101   0.91201   0.53975   0.00000  Uiso   1.00
C194   C     0.38974   0.86477   0.60771   0.00000  Uiso   1.00
C195   C     0.32443   0.90501   0.57304   0.00000  Uiso   1.00
C196   C     0.27324   0.93751   0.59936   0.00000  Uiso   1.00
C197   C     0.17260   0.00085   0.62118   0.00000  Uiso   1.00
C198   C     0.47848   0.81091   0.69625   0.00000  Uiso   1.00
C199   C     0.42272   0.74863   0.70058   0.00000  Uiso   1.00
C200   C     0.38781   0.68972   0.75555   0.00000  Uiso   1.00
C201   C     0.33863   0.63851   0.74956   0.00000  Uiso   1.00
C202   C     0.59198   0.83630   0.64734   0.00000  Uiso   1.00
C203   C     0.69938   0.85111   0.65755   0.00000  Uiso   1.00
C204   C     0.79269   0.87371   0.60675   0.00000  Uiso   1.00
C205   C     0.40346   0.85727   0.66658   0.00000  Uiso   1.00
C206   C     0.35237   0.88972   0.69294   0.00000  Uiso   1.00
C207   C     0.28698   0.92999   0.65832   0.00000  Uiso   1.00
H208   H     0.44256   0.83057   0.54206   0.00000  Uiso   1.00
H209   H     0.34928   0.71083   0.59009   0.00000  Uiso   1.00
H210   H     0.66079   0.87220   0.49211   0.00000  Uiso   1.00
H211   H     0.31383   0.91081   0.52750   0.00000  Uiso   1.00
H212   H     0.25195   0.57477   0.66930   0.00000  Uiso   1.00
H213   H     0.90879   0.91504   0.46269   0.00000  Uiso   1.00
H214   H     0.17716   0.99645   0.53731   0.00000  Uiso   1.00
H215   H     0.48917   0.80507   0.74208   0.00000  Uiso   1.00
H216   H     0.39844   0.68393   0.80109   0.00000  Uiso   1.00
H217   H     0.70996   0.84530   0.70310   0.00000  Uiso   1.00
H218   H     0.36300   0.88390   0.73849   0.00000  Uiso   1.00
H219   H     0.29185   0.55293   0.84055   0.00000  Uiso   1.00
H220   H     0.94870   0.89321   0.63394   0.00000  Uiso   1.00
H221   H     0.21707   0.97461   0.70856   0.00000  Uiso   1.00
O222   O     0.21141   0.48461   0.79013   0.00000  Uiso   1.00
O223   O     0.07316   0.93105   0.51906   0.00000  Uiso   1.00
O224   O     0.11328   0.03786   0.61696   0.00000  Uiso   1.00
N225   N     0.27377   0.58625   0.70151   0.00000  Uiso   1.00
N226   N     0.88788   0.90438   0.50834   0.00000  Uiso   1.00
N227   N     0.20390   0.98051   0.57810   0.00000  Uiso   1.00
N228   N     0.29524   0.57450   0.79366   0.00000  Uiso   1.00
N229   N     0.90935   0.89263   0.60049   0.00000  Uiso   1.00
N230   N     0.22537   0.96875   0.67024   0.00000  Uiso   1.00
C231   C     0.62809   0.58856   0.82244   0.00000  Uiso   1.00
C232   C     0.64516   0.60298   0.75370   0.00000  Uiso   1.00
C233   C     0.64185   0.66020   0.70215   0.00000  Uiso   1.00
C234   C     0.65957   0.66389   0.64311   0.00000  Uiso   1.00
C235   C     0.68305   0.69415   0.53746   0.00000  Uiso   1.00
C236   C     0.73500   0.56773   0.84396   0.00000  Uiso   1.00
C237   C     0.80720   0.59530   0.86830   0.00000  Uiso   1.00
C238   C     0.90053   0.56930   0.88525   0.00000  Uiso   1.00
C239   C     0.06343   0.54481   0.91977   0.00000  Uiso   1.00
C240   C     0.52970   0.52975   0.86062   0.00000  Uiso   1.00
C241   C     0.42930   0.52537   0.89899   0.00000  Uiso   1.00
C242   C     0.34979   0.46740   0.92998   0.00000  Uiso   1.00
C243   C     0.19394   0.38393   0.99038   0.00000  Uiso   1.00
C244   C     0.66543   0.49338   0.80926   0.00000  Uiso   1.00
C245   C     0.66545   0.55128   0.74654   0.00000  Uiso   1.00
C246   C     0.68317   0.55488   0.68756   0.00000  Uiso   1.00
C247   C     0.67988   0.61209   0.63593   0.00000  Uiso   1.00
C248   C     0.75528   0.51603   0.83680   0.00000  Uiso   1.00
C249   C     0.84852   0.48999   0.85372   0.00000  Uiso   1.00
C250   C     0.92085   0.51751   0.87808   0.00000  Uiso   1.00
C251   C     0.54998   0.47805   0.85346   0.00000  Uiso   1.00
C252   C     0.47061   0.42006   0.88440   0.00000  Uiso   1.00
C253   C     0.37011   0.41560   0.92281   0.00000  Uiso   1.00
H254   H     0.61230   0.62881   0.82802   0.00000  Uiso   1.00
H255   H     0.62616   0.70020   0.70771   0.00000  Uiso   1.00
H256   H     0.79148   0.63530   0.87385   0.00000  Uiso   1.00
H257   H     0.41363   0.56539   0.90452   0.00000  Uiso   1.00
H258   H     0.65052   0.75655   0.57117   0.00000  Uiso   1.00
H259   H     0.99907   0.61970   0.92149   0.00000  Uiso   1.00
H260   H     0.20232   0.47228   0.98619   0.00000  Uiso   1.00
H261   H     0.68122   0.45312   0.80368   0.00000  Uiso   1.00
H262   H     0.69886   0.51487   0.68204   0.00000  Uiso   1.00
H263   H     0.86418   0.44997   0.84817   0.00000  Uiso   1.00
H264   H     0.48634   0.38006   0.87885   0.00000  Uiso   1.00
H265   H     0.70953   0.60613   0.55033   0.00000  Uiso   1.00
H266   H     0.05808   0.46928   0.90066   0.00000  Uiso   1.00
H267   H     0.26133   0.32186   0.96535   0.00000  Uiso   1.00
O268   O     0.69042   0.72513   0.48116   0.00000  Uiso   1.00
O269   O     0.14770   0.54559   0.94079   0.00000  Uiso   1.00
O270   O     0.10237   0.35218   0.02566   0.00000  Uiso   1.00
N271   N     0.66196   0.71267   0.58296   0.00000  Uiso   1.00
N272   N     0.98785   0.58473   0.91048   0.00000  Uiso   1.00
N273   N     0.24296   0.44690   0.97098   0.00000  Uiso   1.00
N274   N     0.69371   0.63173   0.57174   0.00000  Uiso   1.00
N275   N     0.01960   0.50379   0.89927   0.00000  Uiso   1.00
N276   N     0.27471   0.36596   0.95977   0.00000  Uiso   1.00
