data_job_06993
_audit_creation_date              2018-12-19
_audit_creation_method            'Materials Studio'
_symmetry_space_group_name_H-M    'P1'
_symmetry_Int_Tables_number       1
_symmetry_cell_setting            triclinic
loop_
_symmetry_equiv_pos_as_xyz
  x,y,z
_cell_length_a                    21.6231
_cell_length_b                    22.4526
_cell_length_c                    23.7945
_cell_angle_alpha                 67.0313
_cell_angle_beta                  63.8496
_cell_angle_gamma                 62.9706
loop_
_atom_site_label
_atom_site_type_symbol
_atom_site_fract_x
_atom_site_fract_y
_atom_site_fract_z
_atom_site_U_iso_or_equiv
_atom_site_adp_type
_atom_site_occupancy
C1     C     0.10307   0.84628   0.38884   0.00000  Uiso   1.00
C2     C     0.02688   0.84609   0.43486   0.00000  Uiso   1.00
C3     C     0.98281   0.82125   0.42830   0.00000  Uiso   1.00
C4     C     0.91492   0.82573   0.47552   0.00000  Uiso   1.00
C5     C     0.80010   0.82117   0.53907   0.00000  Uiso   1.00
C6     C     0.09947   0.92094   0.36739   0.00000  Uiso   1.00
C7     C     0.11644   0.95901   0.30411   0.00000  Uiso   1.00
C8     C     0.10966   0.02650   0.29454   0.00000  Uiso   1.00
C9     C     0.10759   0.13812   0.25335   0.00000  Uiso   1.00
C10    C     0.15392   0.80755   0.42972   0.00000  Uiso   1.00
C11    C     0.21669   0.75029   0.41883   0.00000  Uiso   1.00
C12    C     0.25577   0.72232   0.46172   0.00000  Uiso   1.00
C13    C     0.33824   0.65788   0.51730   0.00000  Uiso   1.00
C14    C     0.06086   0.89843   0.48436   0.00000  Uiso   1.00
C15    C     0.00396   0.87442   0.48674   0.00000  Uiso   1.00
C16    C     0.93612   0.87895   0.53398   0.00000  Uiso   1.00
C17    C     0.89196   0.85411   0.52750   0.00000  Uiso   1.00
C18    C     0.07655   0.94927   0.41927   0.00000  Uiso   1.00
C19    C     0.06975   0.01671   0.40980   0.00000  Uiso   1.00
C20    C     0.08670   0.05488   0.34652   0.00000  Uiso   1.00
C21    C     0.13100   0.83587   0.48160   0.00000  Uiso   1.00
C22    C     0.17000   0.80799   0.52452   0.00000  Uiso   1.00
C23    C     0.23281   0.75070   0.51370   0.00000  Uiso   1.00
H24    H     0.12091   0.82423   0.34844   0.00000  Uiso   1.00
H25    H     0.00057   0.79933   0.38814   0.00000  Uiso   1.00
H26    H     0.13418   0.93707   0.26397   0.00000  Uiso   1.00
H27    H     0.23441   0.72838   0.37868   0.00000  Uiso   1.00
H28    H     0.85702   0.78425   0.45502   0.00000  Uiso   1.00
H29    H     0.13879   0.07468   0.19321   0.00000  Uiso   1.00
H30    H     0.35014   0.63461   0.43508   0.00000  Uiso   1.00
H31    H     0.04302   0.92049   0.52475   0.00000  Uiso   1.00
H32    H     0.91840   0.90087   0.57413   0.00000  Uiso   1.00
H33    H     0.05201   0.03862   0.44996   0.00000  Uiso   1.00
H34    H     0.15224   0.82993   0.56466   0.00000  Uiso   1.00
H35    H     0.79033   0.86666   0.60597   0.00000  Uiso   1.00
H36    H     0.07210   0.15709   0.34416   0.00000  Uiso   1.00
H37    H     0.28345   0.71703   0.58603   0.00000  Uiso   1.00
O38    O     0.74309   0.81084   0.55978   0.00000  Uiso   1.00
O39    O     0.11277   0.19186   0.21629   0.00000  Uiso   1.00
O40    O     0.39006   0.61451   0.53362   0.00000  Uiso   1.00
N41    N     0.85844   0.80632   0.48377   0.00000  Uiso   1.00
N42    N     0.12186   0.07786   0.23900   0.00000  Uiso   1.00
N43    N     0.31947   0.66645   0.46512   0.00000  Uiso   1.00
N44    N     0.82255   0.85067   0.56500   0.00000  Uiso   1.00
N45    N     0.08597   0.12221   0.32022   0.00000  Uiso   1.00
N46    N     0.28358   0.71080   0.54634   0.00000  Uiso   1.00
C47    C     0.47990   0.72891   0.54251   0.00000  Uiso   1.00
C48    C     0.48841   0.78937   0.54925   0.00000  Uiso   1.00
C49    C     0.55230   0.79071   0.54850   0.00000  Uiso   1.00
C50    C     0.54883   0.85088   0.55539   0.00000  Uiso   1.00
C51    C     0.57193   0.93612   0.56478   0.00000  Uiso   1.00
C52    C     0.41753   0.71233   0.60206   0.00000  Uiso   1.00
C53    C     0.42184   0.64889   0.64571   0.00000  Uiso   1.00
C54    C     0.35869   0.64421   0.69706   0.00000  Uiso   1.00
C55    C     0.27175   0.60982   0.78841   0.00000  Uiso   1.00
C56    C     0.45165   0.75662   0.48551   0.00000  Uiso   1.00
C57    C     0.48463   0.73043   0.43117   0.00000  Uiso   1.00
C58    C     0.45021   0.76303   0.38440   0.00000  Uiso   1.00
C59    C     0.41624   0.79742   0.29478   0.00000  Uiso   1.00
C60    C     0.36010   0.83338   0.55608   0.00000  Uiso   1.00
C61    C     0.42334   0.84611   0.55662   0.00000  Uiso   1.00
C62    C     0.41976   0.90630   0.56352   0.00000  Uiso   1.00
C63    C     0.48365   0.90773   0.56278   0.00000  Uiso   1.00
C64    C     0.35247   0.76907   0.60944   0.00000  Uiso   1.00
C65    C     0.28930   0.76448   0.66073   0.00000  Uiso   1.00
C66    C     0.29351   0.70105   0.70444   0.00000  Uiso   1.00
C67    C     0.38658   0.81337   0.49288   0.00000  Uiso   1.00
C68    C     0.35210   0.84602   0.44619   0.00000  Uiso   1.00
C69    C     0.38502   0.81988   0.39178   0.00000  Uiso   1.00
H70    H     0.53055   0.68473   0.53677   0.00000  Uiso   1.00
H71    H     0.60265   0.74678   0.54280   0.00000  Uiso   1.00
H72    H     0.47220   0.60498   0.63999   0.00000  Uiso   1.00
H73    H     0.53498   0.68651   0.42548   0.00000  Uiso   1.00
H74    H     0.65387   0.84060   0.55276   0.00000  Uiso   1.00
H75    H     0.37881   0.54160   0.75768   0.00000  Uiso   1.00
H76    H     0.51121   0.71352   0.30535   0.00000  Uiso   1.00
H77    H     0.30944   0.87756   0.56182   0.00000  Uiso   1.00
H78    H     0.36940   0.95020   0.56922   0.00000  Uiso   1.00
H79    H     0.23895   0.80840   0.66641   0.00000  Uiso   1.00
H80    H     0.30174   0.88993   0.45191   0.00000  Uiso   1.00
H81    H     0.46457   0.00570   0.57421   0.00000  Uiso   1.00
H82    H     0.18950   0.70670   0.77913   0.00000  Uiso   1.00
H83    H     0.32190   0.87862   0.32680   0.00000  Uiso   1.00
O84    O     0.60265   0.96745   0.56793   0.00000  Uiso   1.00
O85    O     0.24177   0.57517   0.83676   0.00000  Uiso   1.00
O86    O     0.41548   0.80072   0.24332   0.00000  Uiso   1.00
N87    N     0.60109   0.86949   0.55678   0.00000  Uiso   1.00
N88    N     0.34393   0.58995   0.74837   0.00000  Uiso   1.00
N89    N     0.46770   0.75066   0.32549   0.00000  Uiso   1.00
N90    N     0.49923   0.95833   0.56832   0.00000  Uiso   1.00
N91    N     0.24206   0.67879   0.75991   0.00000  Uiso   1.00
N92    N     0.36584   0.83950   0.33703   0.00000  Uiso   1.00
C93    C     0.57633   0.91305   0.10341   0.00000  Uiso   1.00
C94    C     0.62219   0.95094   0.04312   0.00000  Uiso   1.00
C95    C     0.67696   0.92332   0.99182   0.00000  Uiso   1.00
C96    C     0.71255   0.96636   0.94119   0.00000  Uiso   1.00
C97    C     0.78662   0.01481   0.84749   0.00000  Uiso   1.00
C98    C     0.58683   0.91843   0.16034   0.00000  Uiso   1.00
C99    C     0.61185   0.86348   0.20760   0.00000  Uiso   1.00
C100   C     0.61765   0.87917   0.25565   0.00000  Uiso   1.00
C101   C     0.63677   0.87715   0.34397   0.00000  Uiso   1.00
C102   C     0.49654   0.95581   0.10765   0.00000  Uiso   1.00
C103   C     0.44563   0.93229   0.11063   0.00000  Uiso   1.00
C104   C     0.37541   0.97944   0.11434   0.00000  Uiso   1.00
C105   C     0.25433   0.03546   0.12084   0.00000  Uiso   1.00
C106   C     0.54214   0.03860   0.10471   0.00000  Uiso   1.00
C107   C     0.60363   0.01913   0.04383   0.00000  Uiso   1.00
C108   C     0.63914   0.06223   0.99327   0.00000  Uiso   1.00
C109   C     0.69394   0.03468   0.94190   0.00000  Uiso   1.00
C110   C     0.56826   0.98662   0.16105   0.00000  Uiso   1.00
C111   C     0.57403   0.00239   0.20905   0.00000  Uiso   1.00
C112   C     0.59905   0.94748   0.25636   0.00000  Uiso   1.00
C113   C     0.47797   0.02400   0.10836   0.00000  Uiso   1.00
C114   C     0.40781   0.07120   0.11207   0.00000  Uiso   1.00
C115   C     0.35680   0.04776   0.11505   0.00000  Uiso   1.00
H116   H     0.59078   0.85996   0.10286   0.00000  Uiso   1.00
H117   H     0.69132   0.87054   0.99130   0.00000  Uiso   1.00
H118   H     0.62621   0.81072   0.20705   0.00000  Uiso   1.00
H119   H     0.46002   0.87952   0.11008   0.00000  Uiso   1.00
H120   H     0.79461   0.91235   0.86793   0.00000  Uiso   1.00
H121   H     0.65730   0.78620   0.32286   0.00000  Uiso   1.00
H122   H     0.30685   0.93127   0.11840   0.00000  Uiso   1.00
H123   H     0.52768   0.09169   0.10527   0.00000  Uiso   1.00
H124   H     0.62476   0.11500   0.99383   0.00000  Uiso   1.00
H125   H     0.55965   0.05517   0.20958   0.00000  Uiso   1.00
H126   H     0.39346   0.12396   0.11262   0.00000  Uiso   1.00
H127   H     0.74059   0.11075   0.86999   0.00000  Uiso   1.00
H128   H     0.60327   0.98461   0.32492   0.00000  Uiso   1.00
H129   H     0.25283   0.12968   0.12046   0.00000  Uiso   1.00
O130   O     0.83261   0.02269   0.79562   0.00000  Uiso   1.00
O131   O     0.65245   0.85720   0.39248   0.00000  Uiso   1.00
O132   O     0.19267   0.04753   0.12422   0.00000  Uiso   1.00
N133   N     0.76856   0.95585   0.88370   0.00000  Uiso   1.00
N134   N     0.64020   0.83791   0.30903   0.00000  Uiso   1.00
N135   N     0.31255   0.97353   0.11789   0.00000  Uiso   1.00
N136   N     0.73949   0.06261   0.88481   0.00000  Uiso   1.00
N137   N     0.61113   0.94467   0.31014   0.00000  Uiso   1.00
N138   N     0.28348   0.08029   0.11900   0.00000  Uiso   1.00
C139   C     0.79770   0.46040   0.67652   0.00000  Uiso   1.00
C140   C     0.84810   0.47228   0.60701   0.00000  Uiso   1.00
C141   C     0.84070   0.46591   0.55477   0.00000  Uiso   1.00
C142   C     0.89245   0.47899   0.49508   0.00000  Uiso   1.00
C143   C     0.96199   0.49461   0.38823   0.00000  Uiso   1.00
C144   C     0.77012   0.52674   0.69728   0.00000  Uiso   1.00
C145   C     0.69716   0.56616   0.72094   0.00000  Uiso   1.00
C146   C     0.68326   0.62508   0.73725   0.00000  Uiso   1.00
C147   C     0.63174   0.72524   0.77058   0.00000  Uiso   1.00
C148   C     0.84688   0.40586   0.71630   0.00000  Uiso   1.00
C149   C     0.83846   0.34365   0.75597   0.00000  Uiso   1.00
C150   C     0.88919   0.30081   0.78831   0.00000  Uiso   1.00
C151   C     0.95686   0.21328   0.85117   0.00000  Uiso   1.00
C152   C     0.90276   0.49495   0.66342   0.00000  Uiso   1.00
C153   C     0.90516   0.49105   0.59990   0.00000  Uiso   1.00
C154   C     0.95693   0.50413   0.54027   0.00000  Uiso   1.00
C155   C     0.94961   0.49779   0.48795   0.00000  Uiso   1.00
C156   C     0.82717   0.54551   0.69016   0.00000  Uiso   1.00
C157   C     0.81339   0.60439   0.70645   0.00000  Uiso   1.00
C158   C     0.74042   0.64388   0.73012   0.00000  Uiso   1.00
C159   C     0.90395   0.42463   0.70918   0.00000  Uiso   1.00
C160   C     0.95469   0.38188   0.74147   0.00000  Uiso   1.00
C161   C     0.94635   0.31961   0.78118   0.00000  Uiso   1.00
H162   H     0.75328   0.44580   0.68207   0.00000  Uiso   1.00
H163   H     0.79653   0.45139   0.56030   0.00000  Uiso   1.00
H164   H     0.65301   0.55162   0.72645   0.00000  Uiso   1.00
H165   H     0.79429   0.32915   0.76147   0.00000  Uiso   1.00
H166   H     0.86963   0.46590   0.42215   0.00000  Uiso   1.00
H167   H     0.56701   0.67723   0.77251   0.00000  Uiso   1.00
H168   H     0.86494   0.20809   0.84636   0.00000  Uiso   1.00
H169   H     0.94718   0.50956   0.65788   0.00000  Uiso   1.00
H170   H     0.00108   0.51866   0.53478   0.00000  Uiso   1.00
H171   H     0.85756   0.61889   0.70094   0.00000  Uiso   1.00
H172   H     0.99884   0.39641   0.73595   0.00000  Uiso   1.00
H173   H     0.03565   0.52050   0.40144   0.00000  Uiso   1.00
H174   H     0.73303   0.73182   0.75181   0.00000  Uiso   1.00
H175   H     0.03096   0.26269   0.82565   0.00000  Uiso   1.00
O176   O     0.98458   0.49805   0.33125   0.00000  Uiso   1.00
O177   O     0.58756   0.77530   0.79092   0.00000  Uiso   1.00
O178   O     0.97843   0.15981   0.88781   0.00000  Uiso   1.00
N179   N     0.90132   0.47749   0.43417   0.00000  Uiso   1.00
N180   N     0.61839   0.67507   0.76173   0.00000  Uiso   1.00
N181   N     0.89691   0.23648   0.83079   0.00000  Uiso   1.00
N182   N     0.99065   0.50686   0.42303   0.00000  Uiso   1.00
N183   N     0.70772   0.70445   0.75059   0.00000  Uiso   1.00
N184   N     0.98624   0.26586   0.81964   0.00000  Uiso   1.00
C185   C     0.03001   0.24521   0.00231   0.00000  Uiso   1.00
C186   C     0.00959   0.28990   0.04661   0.00000  Uiso   1.00
C187   C     0.03747   0.27064   0.09605   0.00000  Uiso   1.00
C188   C     0.01185   0.31892   0.13105   0.00000  Uiso   1.00
C189   C     0.98803   0.37841   0.20195   0.00000  Uiso   1.00
C190   C     0.05703   0.28622   0.93378   0.00000  Uiso   1.00
C191   C     0.12480   0.26386   0.88835   0.00000  Uiso   1.00
C192   C     0.13911   0.30904   0.82837   0.00000  Uiso   1.00
C193   C     0.18893   0.36279   0.72408   0.00000  Uiso   1.00
C194   C     0.95824   0.24174   0.00887   0.00000  Uiso   1.00
C195   C     0.94295   0.18199   0.02657   0.00000  Uiso   1.00
C196   C     0.87408   0.18972   0.02980   0.00000  Uiso   1.00
C197   C     0.77051   0.17441   0.04211   0.00000  Uiso   1.00
C198   C     0.93492   0.36518   0.97654   0.00000  Uiso   1.00
C199   C     0.95794   0.35506   0.03261   0.00000  Uiso   1.00
C200   C     0.93227   0.40338   0.06755   0.00000  Uiso   1.00
C201   C     0.96011   0.38420   0.11704   0.00000  Uiso   1.00
C202   C     0.00539   0.35138   0.91978   0.00000  Uiso   1.00
C203   C     0.01960   0.39660   0.85985   0.00000  Uiso   1.00
C204   C     0.08737   0.37432   0.81435   0.00000  Uiso   1.00
C205   C     0.90659   0.30690   0.99488   0.00000  Uiso   1.00
C206   C     0.83774   0.31473   0.99808   0.00000  Uiso   1.00
C207   C     0.82234   0.25500   0.01579   0.00000  Uiso   1.00
H208   H     0.07022   0.19448   0.01319   0.00000  Uiso   1.00
H209   H     0.07745   0.22021   0.10686   0.00000  Uiso   1.00
H210   H     0.16475   0.21343   0.89919   0.00000  Uiso   1.00
H211   H     0.98293   0.13157   0.03740   0.00000  Uiso   1.00
H212   H     0.06270   0.27749   0.20452   0.00000  Uiso   1.00
H213   H     0.24679   0.26318   0.76664   0.00000  Uiso   1.00
H214   H     0.86337   0.09056   0.05807   0.00000  Uiso   1.00
H215   H     0.89471   0.41592   0.96565   0.00000  Uiso   1.00
H216   H     0.89230   0.45381   0.05671   0.00000  Uiso   1.00
H217   H     0.97962   0.44702   0.84904   0.00000  Uiso   1.00
H218   H     0.79779   0.36516   0.98725   0.00000  Uiso   1.00
H219   H     0.91244   0.46708   0.16381   0.00000  Uiso   1.00
H220   H     0.09652   0.45277   0.72593   0.00000  Uiso   1.00
H221   H     0.71311   0.28015   0.01736   0.00000  Uiso   1.00
O222   O     0.98917   0.39322   0.24491   0.00000  Uiso   1.00
O223   O     0.23068   0.37444   0.67043   0.00000  Uiso   1.00
O224   O     0.72765   0.14797   0.05278   0.00000  Uiso   1.00
N225   N     0.02766   0.31691   0.18245   0.00000  Uiso   1.00
N226   N     0.19977   0.30353   0.77306   0.00000  Uiso   1.00
N227   N     0.84132   0.14214   0.04551   0.00000  Uiso   1.00
N228   N     0.94680   0.41893   0.16055   0.00000  Uiso   1.00
N229   N     0.11891   0.40555   0.75116   0.00000  Uiso   1.00
N230   N     0.76046   0.24416   0.02360   0.00000  Uiso   1.00
C231   C     0.56792   0.33692   0.09982   0.00000  Uiso   1.00
C232   C     0.48625   0.36770   0.13429   0.00000  Uiso   1.00
C233   C     0.44115   0.33092   0.18085   0.00000  Uiso   1.00
C234   C     0.36798   0.36858   0.20658   0.00000  Uiso   1.00
C235   C     0.24528   0.40546   0.26319   0.00000  Uiso   1.00
C236   C     0.60584   0.37171   0.11180   0.00000  Uiso   1.00
C237   C     0.66130   0.33828   0.13944   0.00000  Uiso   1.00
C238   C     0.68881   0.37932   0.14623   0.00000  Uiso   1.00
C239   C     0.75182   0.42240   0.16787   0.00000  Uiso   1.00
C240   C     0.57756   0.36202   0.02796   0.00000  Uiso   1.00
C241   C     0.60928   0.32045   0.98510   0.00000  Uiso   1.00
C242   C     0.61299   0.35334   0.92130   0.00000  Uiso   1.00
C243   C     0.63210   0.38138   0.81277   0.00000  Uiso   1.00
C244   C     0.51815   0.46923   0.06273   0.00000  Uiso   1.00
C245   C     0.45922   0.43957   0.11414   0.00000  Uiso   1.00
C246   C     0.38609   0.47731   0.13981   0.00000  Uiso   1.00
C247   C     0.34090   0.44058   0.18639   0.00000  Uiso   1.00
C248   C     0.57881   0.44357   0.09165   0.00000  Uiso   1.00
C249   C     0.60624   0.48467   0.09840   0.00000  Uiso   1.00
C250   C     0.66173   0.45132   0.12604   0.00000  Uiso   1.00
C251   C     0.55053   0.43389   0.00781   0.00000  Uiso   1.00
C252   C     0.55421   0.46684   0.94406   0.00000  Uiso   1.00
C253   C     0.58591   0.42533   0.90111   0.00000  Uiso   1.00
H254   H     0.58897   0.28097   0.11551   0.00000  Uiso   1.00
H255   H     0.46210   0.27530   0.19643   0.00000  Uiso   1.00
H256   H     0.68222   0.28267   0.15502   0.00000  Uiso   1.00
H257   H     0.63019   0.26484   0.00071   0.00000  Uiso   1.00
H258   H     0.30952   0.30071   0.27728   0.00000  Uiso   1.00
H259   H     0.77367   0.31624   0.18994   0.00000  Uiso   1.00
H260   H     0.66397   0.27865   0.86455   0.00000  Uiso   1.00
H261   H     0.49710   0.52519   0.04704   0.00000  Uiso   1.00
H262   H     0.36519   0.53292   0.12420   0.00000  Uiso   1.00
H263   H     0.58531   0.54028   0.08280   0.00000  Uiso   1.00
H264   H     0.53328   0.52246   0.92849   0.00000  Uiso   1.00
H265   H     0.23087   0.50981   0.21866   0.00000  Uiso   1.00
H266   H     0.69502   0.52533   0.13132   0.00000  Uiso   1.00
H267   H     0.58531   0.48774   0.80593   0.00000  Uiso   1.00
O268   O     0.18508   0.40594   0.29998   0.00000  Uiso   1.00
O269   O     0.79404   0.42631   0.18539   0.00000  Uiso   1.00
O270   O     0.65010   0.37700   0.75848   0.00000  Uiso   1.00
N271   N     0.30911   0.34886   0.25288   0.00000  Uiso   1.00
N272   N     0.74306   0.36338   0.17124   0.00000  Uiso   1.00
N273   N     0.64051   0.32824   0.86702   0.00000  Uiso   1.00
N274   N     0.26679   0.46137   0.22134   0.00000  Uiso   1.00
N275   N     0.70073   0.47589   0.13970   0.00000  Uiso   1.00
N276   N     0.59819   0.44075   0.83548   0.00000  Uiso   1.00
C277   C     0.89121   0.29009   0.46704   0.00000  Uiso   1.00
C278   C     0.97476   0.26227   0.44562   0.00000  Uiso   1.00
C279   C     0.01991   0.30164   0.41677   0.00000  Uiso   1.00
C280   C     0.09497   0.26645   0.40079   0.00000  Uiso   1.00
C281   C     0.22033   0.23420   0.36567   0.00000  Uiso   1.00
C282   C     0.86566   0.25580   0.53849   0.00000  Uiso   1.00
C283   C     0.81907   0.28973   0.58772   0.00000  Uiso   1.00
C284   C     0.80227   0.24909   0.64990   0.00000  Uiso   1.00
C285   C     0.75820   0.20680   0.75896   0.00000  Uiso   1.00
C286   C     0.86951   0.26139   0.43272   0.00000  Uiso   1.00
C287   C     0.82614   0.30003   0.39302   0.00000  Uiso   1.00
C288   C     0.81257   0.26410   0.36616   0.00000  Uiso   1.00
C289   C     0.77449   0.23050   0.31098   0.00000  Uiso   1.00
C290   C     0.94420   0.15758   0.48995   0.00000  Uiso   1.00
C291   C     0.00355   0.19030   0.45807   0.00000  Uiso   1.00
C292   C     0.07855   0.15504   0.44212   0.00000  Uiso   1.00
C293   C     0.12381   0.19435   0.41325   0.00000  Uiso   1.00
C294   C     0.89444   0.18383   0.55094   0.00000  Uiso   1.00
C295   C     0.87770   0.14313   0.61307   0.00000  Uiso   1.00
C296   C     0.83111   0.17699   0.66237   0.00000  Uiso   1.00
C297   C     0.89830   0.18942   0.44516   0.00000  Uiso   1.00
C298   C     0.88479   0.15343   0.41836   0.00000  Uiso   1.00
C299   C     0.84141   0.19200   0.37863   0.00000  Uiso   1.00
H300   H     0.86879   0.34612   0.45736   0.00000  Uiso   1.00
H301   H     0.99761   0.35734   0.40716   0.00000  Uiso   1.00
H302   H     0.79679   0.34543   0.57807   0.00000  Uiso   1.00
H303   H     0.80388   0.35572   0.38340   0.00000  Uiso   1.00
H304   H     0.15313   0.33803   0.35701   0.00000  Uiso   1.00
H305   H     0.72967   0.31292   0.71739   0.00000  Uiso   1.00
H306   H     0.74460   0.33463   0.30689   0.00000  Uiso   1.00
H307   H     0.96662   0.10155   0.49964   0.00000  Uiso   1.00
H308   H     0.10081   0.09934   0.45176   0.00000  Uiso   1.00
H309   H     0.89999   0.08744   0.62268   0.00000  Uiso   1.00
H310   H     0.90707   0.09773   0.42801   0.00000  Uiso   1.00
H311   H     0.23689   0.12863   0.39322   0.00000  Uiso   1.00
H312   H     0.81343   0.10353   0.75360   0.00000  Uiso   1.00
H313   H     0.82836   0.12524   0.34309   0.00000  Uiso   1.00
O314   O     0.28153   0.23629   0.34287   0.00000  Uiso   1.00
O315   O     0.72595   0.20336   0.81567   0.00000  Uiso   1.00
O316   O     0.74554   0.23184   0.27710   0.00000  Uiso   1.00
N317   N     0.15443   0.28905   0.37209   0.00000  Uiso   1.00
N318   N     0.75853   0.26558   0.70903   0.00000  Uiso   1.00
N319   N     0.77247   0.28588   0.32526   0.00000  Uiso   1.00
N320   N     0.19950   0.17638   0.39157   0.00000  Uiso   1.00
N321   N     0.80360   0.15290   0.72851   0.00000  Uiso   1.00
N322   N     0.81754   0.17320   0.34474   0.00000  Uiso   1.00
C323   C     0.60854   0.17575   0.28871   0.00000  Uiso   1.00
C324   C     0.54946   0.14273   0.32056   0.00000  Uiso   1.00
C325   C     0.50807   0.14180   0.29012   0.00000  Uiso   1.00
C326   C     0.45678   0.10895   0.32766   0.00000  Uiso   1.00
C327   C     0.36651   0.06232   0.36712   0.00000  Uiso   1.00
C328   C     0.67808   0.11888   0.30088   0.00000  Uiso   1.00
C329   C     0.74484   0.09791   0.25389   0.00000  Uiso   1.00
C330   C     0.80183   0.04499   0.27486   0.00000  Uiso   1.00
C331   C     0.91127   0.96137   0.28377   0.00000  Uiso   1.00
C332   C     0.58610   0.22681   0.32747   0.00000  Uiso   1.00
C333   C     0.57555   0.29658   0.30284   0.00000  Uiso   1.00
C334   C     0.55512   0.33453   0.34620   0.00000  Uiso   1.00
C335   C     0.52175   0.41849   0.39640   0.00000  Uiso   1.00
C336   C     0.59105   0.11908   0.40950   0.00000  Uiso   1.00
C337   C     0.53996   0.11195   0.38617   0.00000  Uiso   1.00
C338   C     0.48872   0.07910   0.42376   0.00000  Uiso   1.00
C339   C     0.44726   0.07812   0.39338   0.00000  Uiso   1.00
C340   C     0.66858   0.08810   0.36648   0.00000  Uiso   1.00
C341   C     0.72549   0.03520   0.38753   0.00000  Uiso   1.00
C342   C     0.79232   0.01415   0.34059   0.00000  Uiso   1.00
C343   C     0.57660   0.19603   0.39308   0.00000  Uiso   1.00
C344   C     0.55619   0.23388   0.43648   0.00000  Uiso   1.00
C345   C     0.54560   0.30369   0.41193   0.00000  Uiso   1.00
H346   H     0.61594   0.19972   0.23763   0.00000  Uiso   1.00
H347   H     0.51545   0.16562   0.23935   0.00000  Uiso   1.00
H348   H     0.75218   0.12174   0.20312   0.00000  Uiso   1.00
H349   H     0.58291   0.32038   0.25207   0.00000  Uiso   1.00
H350   H     0.39986   0.11422   0.27017   0.00000  Uiso   1.00
H351   H     0.89903   0.02171   0.19380   0.00000  Uiso   1.00
H352   H     0.54209   0.44059   0.29701   0.00000  Uiso   1.00
H353   H     0.58365   0.09512   0.46058   0.00000  Uiso   1.00
H354   H     0.48138   0.05528   0.47453   0.00000  Uiso   1.00
H355   H     0.71811   0.01140   0.43831   0.00000  Uiso   1.00
H356   H     0.54884   0.21004   0.48725   0.00000  Uiso   1.00
H357   H     0.37221   0.02466   0.46106   0.00000  Uiso   1.00
H358   H     0.87138   0.93216   0.38468   0.00000  Uiso   1.00
H359   H     0.51444   0.35103   0.48789   0.00000  Uiso   1.00
O360   O     0.31935   0.04510   0.37076   0.00000  Uiso   1.00
O361   O     0.97425   0.92375   0.27056   0.00000  Uiso   1.00
O362   O     0.50596   0.47331   0.40597   0.00000  Uiso   1.00
N363   N     0.40737   0.09862   0.31319   0.00000  Uiso   1.00
N364   N     0.87407   0.01213   0.24178   0.00000  Uiso   1.00
N365   N     0.54038   0.40374   0.33827   0.00000  Uiso   1.00
N366   N     0.39249   0.05043   0.41590   0.00000  Uiso   1.00
N367   N     0.85919   0.96394   0.34449   0.00000  Uiso   1.00
N368   N     0.52550   0.35555   0.44098   0.00000  Uiso   1.00
C369   C     0.44711   0.33639   0.67300   0.00000  Uiso   1.00
C370   C     0.47655   0.30626   0.72953   0.00000  Uiso   1.00
C371   C     0.43764   0.31947   0.79036   0.00000  Uiso   1.00
C372   C     0.47436   0.28687   0.83546   0.00000  Uiso   1.00
C373   C     0.50896   0.24678   0.92557   0.00000  Uiso   1.00
C374   C     0.45781   0.27506   0.65244   0.00000  Uiso   1.00
C375   C     0.40314   0.26206   0.64845   0.00000  Uiso   1.00
C376   C     0.42409   0.20319   0.62864   0.00000  Uiso   1.00
C377   C     0.42960   0.11470   0.59902   0.00000  Uiso   1.00
C378   C     0.49907   0.37206   0.61779   0.00000  Uiso   1.00
C379   C     0.47910   0.44061   0.58465   0.00000  Uiso   1.00
C380   C     0.53478   0.46340   0.53567   0.00000  Uiso   1.00
C381   C     0.60436   0.52551   0.45225   0.00000  Uiso   1.00
C382   C     0.58152   0.25498   0.64492   0.00000  Uiso   1.00
C383   C     0.54956   0.26203   0.71428   0.00000  Uiso   1.00
C384   C     0.58635   0.22940   0.75930   0.00000  Uiso   1.00
C385   C     0.54750   0.24257   0.82019   0.00000  Uiso   1.00
C386   C     0.53082   0.23084   0.63719   0.00000  Uiso   1.00
C387   C     0.55185   0.17198   0.61738   0.00000  Uiso   1.00
C388   C     0.49723   0.15889   0.61337   0.00000  Uiso   1.00
C389   C     0.57208   0.32784   0.60254   0.00000  Uiso   1.00
C390   C     0.62781   0.35053   0.55359   0.00000  Uiso   1.00
C391   C     0.60792   0.41910   0.52039   0.00000  Uiso   1.00
H392   H     0.39027   0.37082   0.68487   0.00000  Uiso   1.00
H393   H     0.38114   0.35370   0.80214   0.00000  Uiso   1.00
H394   H     0.34665   0.29629   0.66025   0.00000  Uiso   1.00
H395   H     0.42260   0.47481   0.59647   0.00000  Uiso   1.00
H396   H     0.40320   0.31519   0.92545   0.00000  Uiso   1.00
H397   H     0.33048   0.19417   0.62622   0.00000  Uiso   1.00
H398   H     0.49063   0.57061   0.49173   0.00000  Uiso   1.00
H399   H     0.63836   0.22055   0.63305   0.00000  Uiso   1.00
H400   H     0.64285   0.19518   0.74748   0.00000  Uiso   1.00
H401   H     0.60835   0.13778   0.60558   0.00000  Uiso   1.00
H402   H     0.68430   0.31630   0.54181   0.00000  Uiso   1.00
H403   H     0.61561   0.18653   0.88108   0.00000  Uiso   1.00
H404   H     0.54289   0.06551   0.58186   0.00000  Uiso   1.00
H405   H     0.70304   0.44196   0.44736   0.00000  Uiso   1.00
O406   O     0.50787   0.23687   0.97948   0.00000  Uiso   1.00
O407   O     0.41247   0.07810   0.58690   0.00000  Uiso   1.00
O408   O     0.62257   0.57199   0.41045   0.00000  Uiso   1.00
N409   N     0.45258   0.28840   0.89930   0.00000  Uiso   1.00
N410   N     0.38459   0.17525   0.61955   0.00000  Uiso   1.00
N411   N     0.53431   0.52719   0.49380   0.00000  Uiso   1.00
N412   N     0.56688   0.21918   0.87543   0.00000  Uiso   1.00
N413   N     0.49889   0.10602   0.59568   0.00000  Uiso   1.00
N414   N     0.64861   0.45796   0.46993   0.00000  Uiso   1.00
C415   C     0.14960   0.68264   0.34505   0.00000  Uiso   1.00
C416   C     0.13870   0.63576   0.41275   0.00000  Uiso   1.00
C417   C     0.11002   0.65665   0.46959   0.00000  Uiso   1.00
C418   C     0.10451   0.60588   0.52659   0.00000  Uiso   1.00
C419   C     0.08421   0.54360   0.63169   0.00000  Uiso   1.00
C420   C     0.23058   0.65380   0.30752   0.00000  Uiso   1.00
C421   C     0.27915   0.68987   0.27589   0.00000  Uiso   1.00
C422   C     0.35099   0.65429   0.24431   0.00000  Uiso   1.00
C423   C     0.47333   0.62004   0.18600   0.00000  Uiso   1.00
C424   C     0.10777   0.67109   0.31499   0.00000  Uiso   1.00
C425   C     0.05309   0.72171   0.28962   0.00000  Uiso   1.00
C426   C     0.02154   0.70068   0.26431   0.00000  Uiso   1.00
C427   C     0.95320   0.69328   0.21760   0.00000  Uiso   1.00
C428   C     0.19081   0.55530   0.34519   0.00000  Uiso   1.00
C429   C     0.16109   0.56659   0.41282   0.00000  Uiso   1.00
C430   C     0.15562   0.51577   0.46974   0.00000  Uiso   1.00
C431   C     0.12693   0.53659   0.52667   0.00000  Uiso   1.00
C432   C     0.25297   0.58464   0.30759   0.00000  Uiso   1.00
C433   C     0.32475   0.54899   0.27604   0.00000  Uiso   1.00
C434   C     0.37342   0.58500   0.24438   0.00000  Uiso   1.00
C435   C     0.13015   0.60193   0.31506   0.00000  Uiso   1.00
C436   C     0.09869   0.58082   0.28978   0.00000  Uiso   1.00
C437   C     0.04397   0.63139   0.26438   0.00000  Uiso   1.00
H438   H     0.13218   0.73648   0.34499   0.00000  Uiso   1.00
H439   H     0.09271   0.71018   0.46952   0.00000  Uiso   1.00
H440   H     0.26181   0.74340   0.27584   0.00000  Uiso   1.00
H441   H     0.03579   0.77522   0.28957   0.00000  Uiso   1.00
H442   H     0.05885   0.65052   0.60760   0.00000  Uiso   1.00
H443   H     0.41541   0.72056   0.19921   0.00000  Uiso   1.00
H444   H     0.93879   0.78767   0.22816   0.00000  Uiso   1.00
H445   H     0.20824   0.50146   0.34525   0.00000  Uiso   1.00
H446   H     0.17294   0.46226   0.46979   0.00000  Uiso   1.00
H447   H     0.34205   0.49547   0.27611   0.00000  Uiso   1.00
H448   H     0.11602   0.52730   0.28984   0.00000  Uiso   1.00
H449   H     0.12397   0.44929   0.60782   0.00000  Uiso   1.00
H450   H     0.48053   0.51933   0.19942   0.00000  Uiso   1.00
H451   H     0.00391   0.58645   0.22838   0.00000  Uiso   1.00
O452   O     0.06684   0.52836   0.68963   0.00000  Uiso   1.00
O453   O     0.53463   0.62025   0.15382   0.00000  Uiso   1.00
O454   O     0.90931   0.70830   0.19182   0.00000  Uiso   1.00
N455   N     0.07901   0.60854   0.59056   0.00000  Uiso   1.00
N456   N     0.41237   0.67402   0.20874   0.00000  Uiso   1.00
N457   N     0.96678   0.73677   0.23580   0.00000  Uiso   1.00
N458   N     0.11405   0.50026   0.59068   0.00000  Uiso   1.00
N459   N     0.44741   0.56574   0.20886   0.00000  Uiso   1.00
N460   N     0.00182   0.62849   0.23592   0.00000  Uiso   1.00
C461   C     0.77358   0.72690   0.09937   0.00000  Uiso   1.00
C462   C     0.80189   0.69664   0.04175   0.00000  Uiso   1.00
C463   C     0.75961   0.70184   0.00884   0.00000  Uiso   1.00
C464   C     0.79583   0.67061   0.95742   0.00000  Uiso   1.00
C465   C     0.82826   0.62893   0.87068   0.00000  Uiso   1.00
C466   C     0.79700   0.66678   0.15332   0.00000  Uiso   1.00
C467   C     0.75059   0.64689   0.21420   0.00000  Uiso   1.00
C468   C     0.78270   0.59052   0.25671   0.00000  Uiso   1.00
C469   C     0.80753   0.50253   0.34319   0.00000  Uiso   1.00
C470   C     0.81747   0.77293   0.08060   0.00000  Uiso   1.00
C471   C     0.78828   0.84228   0.08036   0.00000  Uiso   1.00
C472   C     0.83762   0.87528   0.06165   0.00000  Uiso   1.00
C473   C     0.89424   0.95209   0.03522   0.00000  Uiso   1.00
C474   C     0.91311   0.66218   0.06660   0.00000  Uiso   1.00
C475   C     0.87768   0.66148   0.02396   0.00000  Uiso   1.00
C476   C     0.91398   0.63023   0.97258   0.00000  Uiso   1.00
C477   C     0.87175   0.63539   0.93959   0.00000  Uiso   1.00
C478   C     0.87278   0.63163   0.13552   0.00000  Uiso   1.00
C479   C     0.90496   0.57528   0.17794   0.00000  Uiso   1.00
C480   C     0.85862   0.55530   0.23888   0.00000  Uiso   1.00
C481   C     0.89325   0.73777   0.06280   0.00000  Uiso   1.00
C482   C     0.94265   0.77067   0.04409   0.00000  Uiso   1.00
C483   C     0.91354   0.84006   0.04382   0.00000  Uiso   1.00
H484   H     0.71458   0.75427   0.11324   0.00000  Uiso   1.00
H485   H     0.70096   0.72905   0.02263   0.00000  Uiso   1.00
H486   H     0.69195   0.67411   0.22797   0.00000  Uiso   1.00
H487   H     0.72963   0.86946   0.09413   0.00000  Uiso   1.00
H488   H     0.71928   0.68556   0.91434   0.00000  Uiso   1.00
H489   H     0.70028   0.56973   0.34731   0.00000  Uiso   1.00
H490   H     0.77974   0.98168   0.06510   0.00000  Uiso   1.00
H491   H     0.97211   0.63481   0.05274   0.00000  Uiso   1.00
H492   H     0.97262   0.60303   0.95881   0.00000  Uiso   1.00
H493   H     0.96361   0.54809   0.16415   0.00000  Uiso   1.00
H494   H     0.00129   0.74345   0.03032   0.00000  Uiso   1.00
H495   H     0.93977   0.58328   0.86255   0.00000  Uiso   1.00
H496   H     0.92077   0.46745   0.29552   0.00000  Uiso   1.00
H497   H     0.00023   0.87940   0.01331   0.00000  Uiso   1.00
O498   O     0.82521   0.61565   0.82776   0.00000  Uiso   1.00
O499   O     0.80028   0.46370   0.39580   0.00000  Uiso   1.00
O500   O     0.90453   0.00417   0.02555   0.00000  Uiso   1.00
N501   N     0.77110   0.66586   0.91503   0.00000  Uiso   1.00
N502   N     0.75334   0.55756   0.31983   0.00000  Uiso   1.00
N503   N     0.82763   0.94270   0.05601   0.00000  Uiso   1.00
N504   N     0.88974   0.61082   0.88716   0.00000  Uiso   1.00
N505   N     0.87198   0.50252   0.29196   0.00000  Uiso   1.00
N506   N     0.94627   0.88766   0.02814   0.00000  Uiso   1.00
C507   C     0.25955   0.76123   0.96577   0.00000  Uiso   1.00
C508   C     0.32994   0.74502   0.97767   0.00000  Uiso   1.00
C509   C     0.39231   0.75851   0.93135   0.00000  Uiso   1.00
C510   C     0.45098   0.73977   0.95193   0.00000  Uiso   1.00
C511   C     0.56085   0.71931   0.96058   0.00000  Uiso   1.00
C512   C     0.24592   0.69321   0.98977   0.00000  Uiso   1.00
C513   C     0.23764   0.66314   0.95363   0.00000  Uiso   1.00
C514   C     0.22557   0.60079   0.98439   0.00000  Uiso   1.00
C515   C     0.20494   0.49991   0.01184   0.00000  Uiso   1.00
C516   C     0.19818   0.80620   0.01136   0.00000  Uiso   1.00
C517   C     0.14974   0.87114   0.99337   0.00000  Uiso   1.00
C518   C     0.09747   0.90391   0.04231   0.00000  Uiso   1.00
C519   C     0.00272   0.97847   0.10327   0.00000  Uiso   1.00
C520   C     0.25283   0.70396   0.08468   0.00000  Uiso   1.00
C521   C     0.32629   0.71391   0.04226   0.00000  Uiso   1.00
C522   C     0.38488   0.69515   0.06291   0.00000  Uiso   1.00
C523   C     0.44733   0.70861   0.01663   0.00000  Uiso   1.00
C524   C     0.24227   0.66210   0.05436   0.00000  Uiso   1.00
C525   C     0.23020   0.59978   0.08518   0.00000  Uiso   1.00
C526   C     0.22191   0.56962   0.04910   0.00000  Uiso   1.00
C527   C     0.19453   0.77510   0.07594   0.00000  Uiso   1.00
C528   C     0.14231   0.80777   0.12492   0.00000  Uiso   1.00
C529   C     0.09381   0.87275   0.10701   0.00000  Uiso   1.00
H530   H     0.26239   0.78544   0.91549   0.00000  Uiso   1.00
H531   H     0.39512   0.78258   0.88138   0.00000  Uiso   1.00
H532   H     0.24046   0.68723   0.90365   0.00000  Uiso   1.00
H533   H     0.15259   0.89519   0.94338   0.00000  Uiso   1.00
H534   H     0.54067   0.76566   0.87203   0.00000  Uiso   1.00
H535   H     0.21455   0.56462   0.91900   0.00000  Uiso   1.00
H536   H     0.02924   0.00315   0.00279   0.00000  Uiso   1.00
H537   H     0.24998   0.67974   0.13496   0.00000  Uiso   1.00
H538   H     0.38204   0.67108   0.11289   0.00000  Uiso   1.00
H539   H     0.22738   0.57572   0.13517   0.00000  Uiso   1.00
H540   H     0.13951   0.78369   0.17490   0.00000  Uiso   1.00
H541   H     0.53006   0.67516   0.05994   0.00000  Uiso   1.00
H542   H     0.20393   0.47412   0.10691   0.00000  Uiso   1.00
H543   H     0.01862   0.91265   0.19069   0.00000  Uiso   1.00
O544   O     0.62247   0.71660   0.94750   0.00000  Uiso   1.00
O545   O     0.19458   0.45285   0.00913   0.00000  Uiso   1.00
O546   O     0.95147   0.02819   0.11905   0.00000  Uiso   1.00
N547   N     0.52005   0.74557   0.91929   0.00000  Uiso   1.00
N548   N     0.21515   0.55760   0.96320   0.00000  Uiso   1.00
N549   N     0.04189   0.96758   0.04153   0.00000  Uiso   1.00
N550   N     0.51433   0.69687   0.02040   0.00000  Uiso   1.00
N551   N     0.20944   0.50890   0.06431   0.00000  Uiso   1.00
N552   N     0.03618   0.91888   0.14264   0.00000  Uiso   1.00
