data_job_00442
_audit_creation_date              2018-12-19
_audit_creation_method            'Materials Studio'
_symmetry_space_group_name_H-M    'P1'
_symmetry_Int_Tables_number       1
_symmetry_cell_setting            triclinic
loop_
_symmetry_equiv_pos_as_xyz
  x,y,z
_cell_length_a                    13.0997
_cell_length_b                    12.0376
_cell_length_c                    22.5811
_cell_angle_alpha                 90.0000
_cell_angle_beta                  140.0504
_cell_angle_gamma                 90.0000
loop_
_atom_site_label
_atom_site_type_symbol
_atom_site_fract_x
_atom_site_fract_y
_atom_site_fract_z
_atom_site_U_iso_or_equiv
_atom_site_adp_type
_atom_site_occupancy
C1     C     0.49345   0.11967   0.43119   0.00000  Uiso   1.00
C2     C     0.64833   0.18225   0.48914   0.00000  Uiso   1.00
C3     C     0.79840   0.14824   0.57385   0.00000  Uiso   1.00
C4     C     0.92506   0.21718   0.61590   0.00000  Uiso   1.00
C5     C     0.16899   0.29927   0.71218   0.00000  Uiso   1.00
C6     C     0.38441   0.20052   0.41514   0.00000  Uiso   1.00
C7     C     0.31258   0.18186   0.43763   0.00000  Uiso   1.00
C8     C     0.21706   0.26618   0.41737   0.00000  Uiso   1.00
C9     C     0.05117   0.37660   0.39871   0.00000  Uiso   1.00
C10    C     0.41888   0.10159   0.33723   0.00000  Uiso   1.00
C11    C     0.37598   0.99974   0.29419   0.00000  Uiso   1.00
C12    C     0.30943   0.00076   0.20833   0.00000  Uiso   1.00
C13    C     0.19705   0.95757   0.06870   0.00000  Uiso   1.00
C14    C     0.45151   0.30259   0.35522   0.00000  Uiso   1.00
C15    C     0.62553   0.28161   0.44788   0.00000  Uiso   1.00
C16    C     0.75200   0.35062   0.48981   0.00000  Uiso   1.00
C17    C     0.90224   0.31671   0.57457   0.00000  Uiso   1.00
C18    C     0.36163   0.29988   0.37388   0.00000  Uiso   1.00
C19    C     0.26618   0.38424   0.35358   0.00000  Uiso   1.00
C20    C     0.19423   0.36571   0.37604   0.00000  Uiso   1.00
C21    C     0.39609   0.20094   0.29597   0.00000  Uiso   1.00
C22    C     0.32958   0.20212   0.21015   0.00000  Uiso   1.00
C23    C     0.28661   0.10030   0.16699   0.00000  Uiso   1.00
H24    H     0.51118   0.04232   0.46331   0.00000  Uiso   1.00
H25    H     0.81598   0.07135   0.60576   0.00000  Uiso   1.00
H26    H     0.33023   0.10496   0.46955   0.00000  Uiso   1.00
H27    H     0.39363   0.92287   0.32614   0.00000  Uiso   1.00
H28    H     0.14386   0.14737   0.74552   0.00000  Uiso   1.00
H29    H     0.11957   0.21822   0.45828   0.00000  Uiso   1.00
H30    H     0.25325   0.83425   0.15587   0.00000  Uiso   1.00
H31    H     0.43377   0.37995   0.32310   0.00000  Uiso   1.00
H32    H     0.73433   0.42750   0.45786   0.00000  Uiso   1.00
H33    H     0.24857   0.46111   0.32165   0.00000  Uiso   1.00
H34    H     0.31197   0.27903   0.17824   0.00000  Uiso   1.00
H35    H     0.07758   0.43644   0.62548   0.00000  Uiso   1.00
H36    H     0.05328   0.50729   0.33824   0.00000  Uiso   1.00
H37    H     0.18698   0.12333   0.03583   0.00000  Uiso   1.00
O38    O     0.30983   0.31711   0.77669   0.00000  Uiso   1.00
O39    O     0.96598   0.41006   0.39983   0.00000  Uiso   1.00
O40    O     0.14138   0.90631   0.00308   0.00000  Uiso   1.00
N41    N     0.08701   0.20886   0.69876   0.00000  Uiso   1.00
N42    N     0.12939   0.27512   0.43022   0.00000  Uiso   1.00
N43    N     0.25433   0.91614   0.14749   0.00000  Uiso   1.00
N44    N     0.05135   0.36441   0.63417   0.00000  Uiso   1.00
N45    N     0.09372   0.43066   0.36563   0.00000  Uiso   1.00
N46    N     0.21867   0.07169   0.08290   0.00000  Uiso   1.00
C47    C     0.50655   0.11967   0.06881   0.00000  Uiso   1.00
C48    C     0.35167   0.18225   0.01086   0.00000  Uiso   1.00
C49    C     0.20160   0.14824   0.92615   0.00000  Uiso   1.00
C50    C     0.07494   0.21718   0.88410   0.00000  Uiso   1.00
C51    C     0.83101   0.29927   0.78782   0.00000  Uiso   1.00
C52    C     0.61559   0.20052   0.08486   0.00000  Uiso   1.00
C53    C     0.68742   0.18186   0.06237   0.00000  Uiso   1.00
C54    C     0.78294   0.26618   0.08263   0.00000  Uiso   1.00
C55    C     0.94883   0.37660   0.10129   0.00000  Uiso   1.00
C56    C     0.58112   0.10159   0.16277   0.00000  Uiso   1.00
C57    C     0.62402   0.99974   0.20581   0.00000  Uiso   1.00
C58    C     0.69057   0.00076   0.29167   0.00000  Uiso   1.00
C59    C     0.80295   0.95757   0.43130   0.00000  Uiso   1.00
C60    C     0.54849   0.30259   0.14478   0.00000  Uiso   1.00
C61    C     0.37447   0.28161   0.05212   0.00000  Uiso   1.00
C62    C     0.24800   0.35062   0.01019   0.00000  Uiso   1.00
C63    C     0.09776   0.31671   0.92543   0.00000  Uiso   1.00
C64    C     0.63837   0.29988   0.12612   0.00000  Uiso   1.00
C65    C     0.73382   0.38424   0.14642   0.00000  Uiso   1.00
C66    C     0.80577   0.36571   0.12396   0.00000  Uiso   1.00
C67    C     0.60391   0.20094   0.20403   0.00000  Uiso   1.00
C68    C     0.67042   0.20212   0.28985   0.00000  Uiso   1.00
C69    C     0.71339   0.10030   0.33301   0.00000  Uiso   1.00
H70    H     0.48882   0.04232   0.03669   0.00000  Uiso   1.00
H71    H     0.18402   0.07135   0.89424   0.00000  Uiso   1.00
H72    H     0.66977   0.10496   0.03045   0.00000  Uiso   1.00
H73    H     0.60637   0.92287   0.17386   0.00000  Uiso   1.00
H74    H     0.85614   0.14737   0.75448   0.00000  Uiso   1.00
H75    H     0.88043   0.21822   0.04172   0.00000  Uiso   1.00
H76    H     0.74675   0.83425   0.34413   0.00000  Uiso   1.00
H77    H     0.56623   0.37995   0.17690   0.00000  Uiso   1.00
H78    H     0.26567   0.42750   0.04214   0.00000  Uiso   1.00
H79    H     0.75143   0.46111   0.17835   0.00000  Uiso   1.00
H80    H     0.68803   0.27903   0.32176   0.00000  Uiso   1.00
H81    H     0.92242   0.43644   0.87452   0.00000  Uiso   1.00
H82    H     0.94672   0.50729   0.16176   0.00000  Uiso   1.00
H83    H     0.81302   0.12333   0.46417   0.00000  Uiso   1.00
O84    O     0.69017   0.31711   0.72331   0.00000  Uiso   1.00
O85    O     0.03402   0.41006   0.10017   0.00000  Uiso   1.00
O86    O     0.85862   0.90631   0.49692   0.00000  Uiso   1.00
N87    N     0.91299   0.20886   0.80124   0.00000  Uiso   1.00
N88    N     0.87061   0.27512   0.06978   0.00000  Uiso   1.00
N89    N     0.74567   0.91614   0.35251   0.00000  Uiso   1.00
N90    N     0.94865   0.36441   0.86583   0.00000  Uiso   1.00
N91    N     0.90628   0.43066   0.13437   0.00000  Uiso   1.00
N92    N     0.78133   0.07169   0.41710   0.00000  Uiso   1.00
C93    C     0.50655   0.88033   0.56881   0.00000  Uiso   1.00
C94    C     0.35167   0.81775   0.51086   0.00000  Uiso   1.00
C95    C     0.20160   0.85176   0.42615   0.00000  Uiso   1.00
C96    C     0.07494   0.78282   0.38410   0.00000  Uiso   1.00
C97    C     0.83101   0.70073   0.28782   0.00000  Uiso   1.00
C98    C     0.61559   0.79948   0.58486   0.00000  Uiso   1.00
C99    C     0.68742   0.81814   0.56237   0.00000  Uiso   1.00
C100   C     0.78294   0.73382   0.58263   0.00000  Uiso   1.00
C101   C     0.94883   0.62340   0.60129   0.00000  Uiso   1.00
C102   C     0.58112   0.89841   0.66277   0.00000  Uiso   1.00
C103   C     0.62402   0.00026   0.70581   0.00000  Uiso   1.00
C104   C     0.69057   0.99924   0.79167   0.00000  Uiso   1.00
C105   C     0.80295   0.04243   0.93130   0.00000  Uiso   1.00
C106   C     0.54849   0.69741   0.64478   0.00000  Uiso   1.00
C107   C     0.37447   0.71839   0.55212   0.00000  Uiso   1.00
C108   C     0.24800   0.64938   0.51019   0.00000  Uiso   1.00
C109   C     0.09776   0.68329   0.42543   0.00000  Uiso   1.00
C110   C     0.63837   0.70012   0.62612   0.00000  Uiso   1.00
C111   C     0.73382   0.61576   0.64642   0.00000  Uiso   1.00
C112   C     0.80577   0.63429   0.62396   0.00000  Uiso   1.00
C113   C     0.60391   0.79906   0.70403   0.00000  Uiso   1.00
C114   C     0.67042   0.79788   0.78985   0.00000  Uiso   1.00
C115   C     0.71339   0.89970   0.83301   0.00000  Uiso   1.00
H116   H     0.48882   0.95768   0.53669   0.00000  Uiso   1.00
H117   H     0.18402   0.92865   0.39424   0.00000  Uiso   1.00
H118   H     0.66977   0.89504   0.53045   0.00000  Uiso   1.00
H119   H     0.60637   0.07713   0.67386   0.00000  Uiso   1.00
H120   H     0.85614   0.85263   0.25448   0.00000  Uiso   1.00
H121   H     0.88043   0.78178   0.54172   0.00000  Uiso   1.00
H122   H     0.74675   0.16575   0.84413   0.00000  Uiso   1.00
H123   H     0.56623   0.62005   0.67690   0.00000  Uiso   1.00
H124   H     0.26567   0.57250   0.54214   0.00000  Uiso   1.00
H125   H     0.75143   0.53889   0.67835   0.00000  Uiso   1.00
H126   H     0.68803   0.72097   0.82176   0.00000  Uiso   1.00
H127   H     0.92242   0.56356   0.37452   0.00000  Uiso   1.00
H128   H     0.94672   0.49271   0.66176   0.00000  Uiso   1.00
H129   H     0.81302   0.87667   0.96417   0.00000  Uiso   1.00
O130   O     0.69017   0.68289   0.22331   0.00000  Uiso   1.00
O131   O     0.03402   0.58994   0.60017   0.00000  Uiso   1.00
O132   O     0.85862   0.09369   0.99692   0.00000  Uiso   1.00
N133   N     0.91299   0.79114   0.30124   0.00000  Uiso   1.00
N134   N     0.87061   0.72488   0.56978   0.00000  Uiso   1.00
N135   N     0.74567   0.08386   0.85251   0.00000  Uiso   1.00
N136   N     0.94865   0.63559   0.36583   0.00000  Uiso   1.00
N137   N     0.90628   0.56934   0.63437   0.00000  Uiso   1.00
N138   N     0.78133   0.92831   0.91710   0.00000  Uiso   1.00
C139   C     0.49345   0.88033   0.93119   0.00000  Uiso   1.00
C140   C     0.64833   0.81775   0.98914   0.00000  Uiso   1.00
C141   C     0.79840   0.85176   0.07385   0.00000  Uiso   1.00
C142   C     0.92506   0.78282   0.11590   0.00000  Uiso   1.00
C143   C     0.16899   0.70073   0.21218   0.00000  Uiso   1.00
C144   C     0.38441   0.79948   0.91514   0.00000  Uiso   1.00
C145   C     0.31258   0.81814   0.93763   0.00000  Uiso   1.00
C146   C     0.21706   0.73382   0.91737   0.00000  Uiso   1.00
C147   C     0.05117   0.62340   0.89871   0.00000  Uiso   1.00
C148   C     0.41888   0.89841   0.83723   0.00000  Uiso   1.00
C149   C     0.37598   0.00026   0.79419   0.00000  Uiso   1.00
C150   C     0.30943   0.99924   0.70833   0.00000  Uiso   1.00
C151   C     0.19705   0.04243   0.56870   0.00000  Uiso   1.00
C152   C     0.45151   0.69741   0.85522   0.00000  Uiso   1.00
C153   C     0.62553   0.71839   0.94788   0.00000  Uiso   1.00
C154   C     0.75200   0.64938   0.98981   0.00000  Uiso   1.00
C155   C     0.90224   0.68329   0.07457   0.00000  Uiso   1.00
C156   C     0.36163   0.70012   0.87388   0.00000  Uiso   1.00
C157   C     0.26618   0.61576   0.85358   0.00000  Uiso   1.00
C158   C     0.19423   0.63429   0.87604   0.00000  Uiso   1.00
C159   C     0.39609   0.79906   0.79597   0.00000  Uiso   1.00
C160   C     0.32958   0.79788   0.71015   0.00000  Uiso   1.00
C161   C     0.28661   0.89970   0.66699   0.00000  Uiso   1.00
H162   H     0.51118   0.95768   0.96331   0.00000  Uiso   1.00
H163   H     0.81598   0.92865   0.10576   0.00000  Uiso   1.00
H164   H     0.33023   0.89504   0.96955   0.00000  Uiso   1.00
H165   H     0.39363   0.07713   0.82614   0.00000  Uiso   1.00
H166   H     0.14386   0.85263   0.24552   0.00000  Uiso   1.00
H167   H     0.11957   0.78178   0.95828   0.00000  Uiso   1.00
H168   H     0.25325   0.16575   0.65587   0.00000  Uiso   1.00
H169   H     0.43377   0.62005   0.82310   0.00000  Uiso   1.00
H170   H     0.73433   0.57250   0.95786   0.00000  Uiso   1.00
H171   H     0.24857   0.53889   0.82165   0.00000  Uiso   1.00
H172   H     0.31197   0.72097   0.67824   0.00000  Uiso   1.00
H173   H     0.07758   0.56356   0.12548   0.00000  Uiso   1.00
H174   H     0.05328   0.49271   0.83824   0.00000  Uiso   1.00
H175   H     0.18698   0.87667   0.53583   0.00000  Uiso   1.00
O176   O     0.30983   0.68289   0.27669   0.00000  Uiso   1.00
O177   O     0.96598   0.58994   0.89983   0.00000  Uiso   1.00
O178   O     0.14138   0.09369   0.50308   0.00000  Uiso   1.00
N179   N     0.08701   0.79114   0.19876   0.00000  Uiso   1.00
N180   N     0.12939   0.72488   0.93022   0.00000  Uiso   1.00
N181   N     0.25433   0.08386   0.64749   0.00000  Uiso   1.00
N182   N     0.05135   0.63559   0.13417   0.00000  Uiso   1.00
N183   N     0.09372   0.56934   0.86563   0.00000  Uiso   1.00
N184   N     0.21867   0.92831   0.58290   0.00000  Uiso   1.00
