data_job_01785
_audit_creation_date              2018-12-19
_audit_creation_method            'Materials Studio'
_symmetry_space_group_name_H-M    'P1'
_symmetry_Int_Tables_number       1
_symmetry_cell_setting            triclinic
loop_
_symmetry_equiv_pos_as_xyz
  x,y,z
_cell_length_a                    17.5324
_cell_length_b                    17.5324
_cell_length_c                    14.4998
_cell_angle_alpha                 90.0000
_cell_angle_beta                  90.0000
_cell_angle_gamma                 90.0000
loop_
_atom_site_label
_atom_site_type_symbol
_atom_site_fract_x
_atom_site_fract_y
_atom_site_fract_z
_atom_site_U_iso_or_equiv
_atom_site_adp_type
_atom_site_occupancy
C1     C     0.11474   0.75557   0.09824   0.00000  Uiso   1.00
C2     C     0.12099   0.68277   0.04118   0.00000  Uiso   1.00
C3     C     0.18689   0.64035   0.02783   0.00000  Uiso   1.00
C4     C     0.18078   0.57555   0.97329   0.00000  Uiso   1.00
C5     C     0.20106   0.46581   0.89069   0.00000  Uiso   1.00
C6     C     0.08265   0.81619   0.03357   0.00000  Uiso   1.00
C7     C     0.11633   0.88595   0.01384   0.00000  Uiso   1.00
C8     C     0.07794   0.93346   0.95290   0.00000  Uiso   1.00
C9     C     0.03869   0.03089   0.85855   0.00000  Uiso   1.00
C10    C     0.05283   0.74058   0.16985   0.00000  Uiso   1.00
C11    C     0.06143   0.74679   0.26470   0.00000  Uiso   1.00
C12    C     0.99792   0.73066   0.31850   0.00000  Uiso   1.00
C13    C     0.91237   0.71069   0.43574   0.00000  Uiso   1.00
C14    C     0.98669   0.71593   0.02512   0.00000  Uiso   1.00
C15    C     0.05143   0.66125   0.00146   0.00000  Uiso   1.00
C16    C     0.04522   0.59649   0.94693   0.00000  Uiso   1.00
C17    C     0.11110   0.55398   0.93350   0.00000  Uiso   1.00
C18    C     0.01310   0.79466   0.99385   0.00000  Uiso   1.00
C19    C     0.97465   0.84209   0.93294   0.00000  Uiso   1.00
C20    C     0.00826   0.91190   0.91311   0.00000  Uiso   1.00
C21    C     0.98328   0.71905   0.13013   0.00000  Uiso   1.00
C22    C     0.91975   0.70293   0.18379   0.00000  Uiso   1.00
C23    C     0.92825   0.70910   0.27871   0.00000  Uiso   1.00
H24    H     0.16889   0.77234   0.12916   0.00000  Uiso   1.00
H25    H     0.24071   0.65703   0.05857   0.00000  Uiso   1.00
H26    H     0.17015   0.90260   0.04459   0.00000  Uiso   1.00
H27    H     0.11526   0.76345   0.29541   0.00000  Uiso   1.00
H28    H     0.28967   0.51972   0.96277   0.00000  Uiso   1.00
H29    H     0.14088   0.03751   0.93332   0.00000  Uiso   1.00
H30    H     0.02512   0.74410   0.46222   0.00000  Uiso   1.00
H31    H     0.93253   0.69917   0.99419   0.00000  Uiso   1.00
H32    H     0.99138   0.57985   0.91620   0.00000  Uiso   1.00
H33    H     0.92083   0.82541   0.90222   0.00000  Uiso   1.00
H34    H     0.86593   0.68627   0.15304   0.00000  Uiso   1.00
H35    H     0.08731   0.45708   0.84721   0.00000  Uiso   1.00
H36    H     0.93852   0.97487   0.81776   0.00000  Uiso   1.00
H37    H     0.82276   0.68145   0.34666   0.00000  Uiso   1.00
O38    O     0.23147   0.41124   0.85609   0.00000  Uiso   1.00
O39    O     0.03626   0.09057   0.81747   0.00000  Uiso   1.00
O40    O     0.88440   0.70561   0.51137   0.00000  Uiso   1.00
N41    N     0.23396   0.52134   0.94629   0.00000  Uiso   1.00
N42    N     0.09486   0.00544   0.91874   0.00000  Uiso   1.00
N43    N     0.98663   0.73115   0.41322   0.00000  Uiso   1.00
N44    N     0.12507   0.48763   0.88411   0.00000  Uiso   1.00
N45    N     0.98597   0.97173   0.85656   0.00000  Uiso   1.00
N46    N     0.87775   0.69744   0.35104   0.00000  Uiso   1.00
C47    C     0.88526   0.24443   0.59824   0.00000  Uiso   1.00
C48    C     0.87901   0.31723   0.54118   0.00000  Uiso   1.00
C49    C     0.81311   0.35965   0.52783   0.00000  Uiso   1.00
C50    C     0.81922   0.42445   0.47329   0.00000  Uiso   1.00
C51    C     0.79894   0.53419   0.39069   0.00000  Uiso   1.00
C52    C     0.91735   0.18381   0.53357   0.00000  Uiso   1.00
C53    C     0.88367   0.11405   0.51384   0.00000  Uiso   1.00
C54    C     0.92206   0.06654   0.45290   0.00000  Uiso   1.00
C55    C     0.96131   0.96911   0.35855   0.00000  Uiso   1.00
C56    C     0.94717   0.25942   0.66985   0.00000  Uiso   1.00
C57    C     0.93857   0.25321   0.76470   0.00000  Uiso   1.00
C58    C     0.00208   0.26934   0.81850   0.00000  Uiso   1.00
C59    C     0.08763   0.28931   0.93574   0.00000  Uiso   1.00
C60    C     0.01331   0.28407   0.52512   0.00000  Uiso   1.00
C61    C     0.94857   0.33875   0.50146   0.00000  Uiso   1.00
C62    C     0.95478   0.40351   0.44693   0.00000  Uiso   1.00
C63    C     0.88890   0.44602   0.43350   0.00000  Uiso   1.00
C64    C     0.98690   0.20534   0.49385   0.00000  Uiso   1.00
C65    C     0.02535   0.15791   0.43294   0.00000  Uiso   1.00
C66    C     0.99174   0.08810   0.41311   0.00000  Uiso   1.00
C67    C     0.01672   0.28095   0.63013   0.00000  Uiso   1.00
C68    C     0.08025   0.29707   0.68379   0.00000  Uiso   1.00
C69    C     0.07175   0.29090   0.77871   0.00000  Uiso   1.00
H70    H     0.83111   0.22766   0.62916   0.00000  Uiso   1.00
H71    H     0.75929   0.34297   0.55857   0.00000  Uiso   1.00
H72    H     0.82985   0.09740   0.54459   0.00000  Uiso   1.00
H73    H     0.88474   0.23655   0.79541   0.00000  Uiso   1.00
H74    H     0.71033   0.48028   0.46277   0.00000  Uiso   1.00
H75    H     0.85912   0.96249   0.43332   0.00000  Uiso   1.00
H76    H     0.97488   0.25590   0.96222   0.00000  Uiso   1.00
H77    H     0.06747   0.30083   0.49419   0.00000  Uiso   1.00
H78    H     0.00862   0.42015   0.41620   0.00000  Uiso   1.00
H79    H     0.07917   0.17459   0.40222   0.00000  Uiso   1.00
H80    H     0.13407   0.31373   0.65304   0.00000  Uiso   1.00
H81    H     0.91269   0.54292   0.34721   0.00000  Uiso   1.00
H82    H     0.06148   0.02513   0.31776   0.00000  Uiso   1.00
H83    H     0.17724   0.31855   0.84666   0.00000  Uiso   1.00
O84    O     0.76853   0.58876   0.35609   0.00000  Uiso   1.00
O85    O     0.96374   0.90943   0.31747   0.00000  Uiso   1.00
O86    O     0.11560   0.29439   0.01137   0.00000  Uiso   1.00
N87    N     0.76604   0.47866   0.44629   0.00000  Uiso   1.00
N88    N     0.90514   0.99456   0.41874   0.00000  Uiso   1.00
N89    N     0.01337   0.26885   0.91322   0.00000  Uiso   1.00
N90    N     0.87493   0.51237   0.38411   0.00000  Uiso   1.00
N91    N     0.01403   0.02827   0.35656   0.00000  Uiso   1.00
N92    N     0.12225   0.30256   0.85104   0.00000  Uiso   1.00
C93    C     0.74443   0.61474   0.84824   0.00000  Uiso   1.00
C94    C     0.81723   0.62099   0.79118   0.00000  Uiso   1.00
C95    C     0.85965   0.68689   0.77783   0.00000  Uiso   1.00
C96    C     0.92445   0.68078   0.72329   0.00000  Uiso   1.00
C97    C     0.03419   0.70106   0.64069   0.00000  Uiso   1.00
C98    C     0.68381   0.58265   0.78357   0.00000  Uiso   1.00
C99    C     0.61405   0.61633   0.76384   0.00000  Uiso   1.00
C100   C     0.56654   0.57794   0.70290   0.00000  Uiso   1.00
C101   C     0.46911   0.53869   0.60855   0.00000  Uiso   1.00
C102   C     0.75942   0.55283   0.91985   0.00000  Uiso   1.00
C103   C     0.75321   0.56143   0.01470   0.00000  Uiso   1.00
C104   C     0.76934   0.49792   0.06850   0.00000  Uiso   1.00
C105   C     0.78931   0.41237   0.18574   0.00000  Uiso   1.00
C106   C     0.78407   0.48669   0.77512   0.00000  Uiso   1.00
C107   C     0.83875   0.55143   0.75146   0.00000  Uiso   1.00
C108   C     0.90351   0.54522   0.69693   0.00000  Uiso   1.00
C109   C     0.94602   0.61110   0.68350   0.00000  Uiso   1.00
C110   C     0.70534   0.51310   0.74385   0.00000  Uiso   1.00
C111   C     0.65791   0.47465   0.68294   0.00000  Uiso   1.00
C112   C     0.58810   0.50826   0.66311   0.00000  Uiso   1.00
C113   C     0.78095   0.48328   0.88013   0.00000  Uiso   1.00
C114   C     0.79707   0.41975   0.93379   0.00000  Uiso   1.00
C115   C     0.79090   0.42825   0.02871   0.00000  Uiso   1.00
H116   H     0.72766   0.66889   0.87916   0.00000  Uiso   1.00
H117   H     0.84297   0.74071   0.80857   0.00000  Uiso   1.00
H118   H     0.59740   0.67015   0.79459   0.00000  Uiso   1.00
H119   H     0.73655   0.61526   0.04541   0.00000  Uiso   1.00
H120   H     0.98028   0.78967   0.71277   0.00000  Uiso   1.00
H121   H     0.46249   0.64088   0.68332   0.00000  Uiso   1.00
H122   H     0.75590   0.52512   0.21222   0.00000  Uiso   1.00
H123   H     0.80083   0.43253   0.74419   0.00000  Uiso   1.00
H124   H     0.92015   0.49138   0.66620   0.00000  Uiso   1.00
H125   H     0.67459   0.42083   0.65222   0.00000  Uiso   1.00
H126   H     0.81373   0.36593   0.90304   0.00000  Uiso   1.00
H127   H     0.04292   0.58731   0.59721   0.00000  Uiso   1.00
H128   H     0.52513   0.43852   0.56776   0.00000  Uiso   1.00
H129   H     0.81855   0.32276   0.09666   0.00000  Uiso   1.00
O130   O     0.08876   0.73147   0.60609   0.00000  Uiso   1.00
O131   O     0.40943   0.53626   0.56747   0.00000  Uiso   1.00
O132   O     0.79439   0.38440   0.26137   0.00000  Uiso   1.00
N133   N     0.97866   0.73396   0.69629   0.00000  Uiso   1.00
N134   N     0.49456   0.59486   0.66874   0.00000  Uiso   1.00
N135   N     0.76885   0.48663   0.16322   0.00000  Uiso   1.00
N136   N     0.01237   0.62507   0.63411   0.00000  Uiso   1.00
N137   N     0.52827   0.48597   0.60656   0.00000  Uiso   1.00
N138   N     0.80256   0.37775   0.10104   0.00000  Uiso   1.00
C139   C     0.25557   0.38526   0.34824   0.00000  Uiso   1.00
C140   C     0.18277   0.37901   0.29118   0.00000  Uiso   1.00
C141   C     0.14035   0.31311   0.27783   0.00000  Uiso   1.00
C142   C     0.07555   0.31922   0.22329   0.00000  Uiso   1.00
C143   C     0.96581   0.29894   0.14069   0.00000  Uiso   1.00
C144   C     0.31619   0.41735   0.28357   0.00000  Uiso   1.00
C145   C     0.38595   0.38367   0.26384   0.00000  Uiso   1.00
C146   C     0.43346   0.42206   0.20290   0.00000  Uiso   1.00
C147   C     0.53089   0.46131   0.10855   0.00000  Uiso   1.00
C148   C     0.24058   0.44717   0.41985   0.00000  Uiso   1.00
C149   C     0.24679   0.43857   0.51470   0.00000  Uiso   1.00
C150   C     0.23066   0.50208   0.56850   0.00000  Uiso   1.00
C151   C     0.21069   0.58763   0.68574   0.00000  Uiso   1.00
C152   C     0.21593   0.51331   0.27512   0.00000  Uiso   1.00
C153   C     0.16125   0.44857   0.25146   0.00000  Uiso   1.00
C154   C     0.09649   0.45478   0.19693   0.00000  Uiso   1.00
C155   C     0.05398   0.38890   0.18350   0.00000  Uiso   1.00
C156   C     0.29466   0.48690   0.24385   0.00000  Uiso   1.00
C157   C     0.34209   0.52535   0.18294   0.00000  Uiso   1.00
C158   C     0.41190   0.49174   0.16311   0.00000  Uiso   1.00
C159   C     0.21905   0.51672   0.38013   0.00000  Uiso   1.00
C160   C     0.20293   0.58025   0.43379   0.00000  Uiso   1.00
C161   C     0.20910   0.57175   0.52871   0.00000  Uiso   1.00
H162   H     0.27234   0.33111   0.37916   0.00000  Uiso   1.00
H163   H     0.15703   0.25929   0.30857   0.00000  Uiso   1.00
H164   H     0.40260   0.32985   0.29459   0.00000  Uiso   1.00
H165   H     0.26345   0.38474   0.54541   0.00000  Uiso   1.00
H166   H     0.01972   0.21033   0.21277   0.00000  Uiso   1.00
H167   H     0.53751   0.35912   0.18332   0.00000  Uiso   1.00
H168   H     0.24410   0.47488   0.71222   0.00000  Uiso   1.00
H169   H     0.19917   0.56747   0.24419   0.00000  Uiso   1.00
H170   H     0.07985   0.50862   0.16620   0.00000  Uiso   1.00
H171   H     0.32541   0.57917   0.15222   0.00000  Uiso   1.00
H172   H     0.18627   0.63407   0.40304   0.00000  Uiso   1.00
H173   H     0.95708   0.41269   0.09721   0.00000  Uiso   1.00
H174   H     0.47487   0.56148   0.06776   0.00000  Uiso   1.00
H175   H     0.18145   0.67724   0.59666   0.00000  Uiso   1.00
O176   O     0.91124   0.26853   0.10609   0.00000  Uiso   1.00
O177   O     0.59057   0.46374   0.06747   0.00000  Uiso   1.00
O178   O     0.20561   0.61560   0.76137   0.00000  Uiso   1.00
N179   N     0.02134   0.26604   0.19629   0.00000  Uiso   1.00
N180   N     0.50544   0.40514   0.16874   0.00000  Uiso   1.00
N181   N     0.23115   0.51337   0.66322   0.00000  Uiso   1.00
N182   N     0.98763   0.37493   0.13411   0.00000  Uiso   1.00
N183   N     0.47173   0.51403   0.10656   0.00000  Uiso   1.00
N184   N     0.19744   0.62225   0.60104   0.00000  Uiso   1.00
C185   C     0.38526   0.25557   0.65176   0.00000  Uiso   1.00
C186   C     0.37901   0.18277   0.70882   0.00000  Uiso   1.00
C187   C     0.31311   0.14035   0.72217   0.00000  Uiso   1.00
C188   C     0.31922   0.07555   0.77671   0.00000  Uiso   1.00
C189   C     0.29894   0.96581   0.85931   0.00000  Uiso   1.00
C190   C     0.41735   0.31619   0.71643   0.00000  Uiso   1.00
C191   C     0.38367   0.38595   0.73616   0.00000  Uiso   1.00
C192   C     0.42206   0.43346   0.79710   0.00000  Uiso   1.00
C193   C     0.46131   0.53089   0.89145   0.00000  Uiso   1.00
C194   C     0.44717   0.24058   0.58015   0.00000  Uiso   1.00
C195   C     0.43857   0.24679   0.48530   0.00000  Uiso   1.00
C196   C     0.50208   0.23066   0.43150   0.00000  Uiso   1.00
C197   C     0.58763   0.21069   0.31426   0.00000  Uiso   1.00
C198   C     0.51331   0.21593   0.72488   0.00000  Uiso   1.00
C199   C     0.44857   0.16125   0.74854   0.00000  Uiso   1.00
C200   C     0.45478   0.09649   0.80307   0.00000  Uiso   1.00
C201   C     0.38890   0.05398   0.81650   0.00000  Uiso   1.00
C202   C     0.48690   0.29466   0.75615   0.00000  Uiso   1.00
C203   C     0.52535   0.34209   0.81706   0.00000  Uiso   1.00
C204   C     0.49174   0.41190   0.83689   0.00000  Uiso   1.00
C205   C     0.51672   0.21905   0.61987   0.00000  Uiso   1.00
C206   C     0.58025   0.20293   0.56621   0.00000  Uiso   1.00
C207   C     0.57175   0.20910   0.47129   0.00000  Uiso   1.00
H208   H     0.33111   0.27234   0.62084   0.00000  Uiso   1.00
H209   H     0.25929   0.15703   0.69143   0.00000  Uiso   1.00
H210   H     0.32985   0.40260   0.70541   0.00000  Uiso   1.00
H211   H     0.38474   0.26345   0.45459   0.00000  Uiso   1.00
H212   H     0.21033   0.01972   0.78723   0.00000  Uiso   1.00
H213   H     0.35912   0.53751   0.81668   0.00000  Uiso   1.00
H214   H     0.47488   0.24410   0.28778   0.00000  Uiso   1.00
H215   H     0.56747   0.19917   0.75581   0.00000  Uiso   1.00
H216   H     0.50862   0.07985   0.83380   0.00000  Uiso   1.00
H217   H     0.57917   0.32541   0.84778   0.00000  Uiso   1.00
H218   H     0.63407   0.18627   0.59696   0.00000  Uiso   1.00
H219   H     0.41269   0.95708   0.90279   0.00000  Uiso   1.00
H220   H     0.56148   0.47487   0.93224   0.00000  Uiso   1.00
H221   H     0.67724   0.18145   0.40334   0.00000  Uiso   1.00
O222   O     0.26853   0.91124   0.89391   0.00000  Uiso   1.00
O223   O     0.46374   0.59057   0.93253   0.00000  Uiso   1.00
O224   O     0.61560   0.20561   0.23863   0.00000  Uiso   1.00
N225   N     0.26604   0.02134   0.80371   0.00000  Uiso   1.00
N226   N     0.40514   0.50544   0.83126   0.00000  Uiso   1.00
N227   N     0.51337   0.23115   0.33678   0.00000  Uiso   1.00
N228   N     0.37493   0.98763   0.86589   0.00000  Uiso   1.00
N229   N     0.51403   0.47173   0.89344   0.00000  Uiso   1.00
N230   N     0.62225   0.19744   0.39896   0.00000  Uiso   1.00
C231   C     0.61474   0.74443   0.15176   0.00000  Uiso   1.00
C232   C     0.62099   0.81723   0.20882   0.00000  Uiso   1.00
C233   C     0.68689   0.85965   0.22217   0.00000  Uiso   1.00
C234   C     0.68078   0.92445   0.27671   0.00000  Uiso   1.00
C235   C     0.70106   0.03419   0.35931   0.00000  Uiso   1.00
C236   C     0.58265   0.68381   0.21643   0.00000  Uiso   1.00
C237   C     0.61633   0.61405   0.23616   0.00000  Uiso   1.00
C238   C     0.57794   0.56654   0.29710   0.00000  Uiso   1.00
C239   C     0.53869   0.46911   0.39145   0.00000  Uiso   1.00
C240   C     0.55283   0.75942   0.08015   0.00000  Uiso   1.00
C241   C     0.56143   0.75321   0.98530   0.00000  Uiso   1.00
C242   C     0.49792   0.76934   0.93150   0.00000  Uiso   1.00
C243   C     0.41237   0.78931   0.81426   0.00000  Uiso   1.00
C244   C     0.48669   0.78407   0.22488   0.00000  Uiso   1.00
C245   C     0.55143   0.83875   0.24854   0.00000  Uiso   1.00
C246   C     0.54522   0.90351   0.30307   0.00000  Uiso   1.00
C247   C     0.61110   0.94602   0.31650   0.00000  Uiso   1.00
C248   C     0.51310   0.70534   0.25615   0.00000  Uiso   1.00
C249   C     0.47465   0.65791   0.31706   0.00000  Uiso   1.00
C250   C     0.50826   0.58810   0.33689   0.00000  Uiso   1.00
C251   C     0.48328   0.78095   0.11987   0.00000  Uiso   1.00
C252   C     0.41975   0.79707   0.06621   0.00000  Uiso   1.00
C253   C     0.42825   0.79090   0.97129   0.00000  Uiso   1.00
H254   H     0.66889   0.72766   0.12084   0.00000  Uiso   1.00
H255   H     0.74071   0.84297   0.19143   0.00000  Uiso   1.00
H256   H     0.67015   0.59740   0.20541   0.00000  Uiso   1.00
H257   H     0.61526   0.73655   0.95459   0.00000  Uiso   1.00
H258   H     0.78967   0.98028   0.28723   0.00000  Uiso   1.00
H259   H     0.64088   0.46249   0.31668   0.00000  Uiso   1.00
H260   H     0.52512   0.75590   0.78778   0.00000  Uiso   1.00
H261   H     0.43253   0.80083   0.25581   0.00000  Uiso   1.00
H262   H     0.49138   0.92015   0.33380   0.00000  Uiso   1.00
H263   H     0.42083   0.67459   0.34778   0.00000  Uiso   1.00
H264   H     0.36593   0.81373   0.09696   0.00000  Uiso   1.00
H265   H     0.58731   0.04292   0.40279   0.00000  Uiso   1.00
H266   H     0.43852   0.52513   0.43224   0.00000  Uiso   1.00
H267   H     0.32276   0.81855   0.90334   0.00000  Uiso   1.00
O268   O     0.73147   0.08876   0.39391   0.00000  Uiso   1.00
O269   O     0.53626   0.40943   0.43253   0.00000  Uiso   1.00
O270   O     0.38440   0.79439   0.73863   0.00000  Uiso   1.00
N271   N     0.73396   0.97866   0.30371   0.00000  Uiso   1.00
N272   N     0.59486   0.49456   0.33126   0.00000  Uiso   1.00
N273   N     0.48663   0.76885   0.83678   0.00000  Uiso   1.00
N274   N     0.62507   0.01237   0.36589   0.00000  Uiso   1.00
N275   N     0.48597   0.52827   0.39344   0.00000  Uiso   1.00
N276   N     0.37775   0.80256   0.89896   0.00000  Uiso   1.00
C277   C     0.75557   0.11474   0.90176   0.00000  Uiso   1.00
C278   C     0.68277   0.12099   0.95882   0.00000  Uiso   1.00
C279   C     0.64035   0.18689   0.97217   0.00000  Uiso   1.00
C280   C     0.57555   0.18078   0.02671   0.00000  Uiso   1.00
C281   C     0.46581   0.20106   0.10931   0.00000  Uiso   1.00
C282   C     0.81619   0.08265   0.96643   0.00000  Uiso   1.00
C283   C     0.88595   0.11633   0.98616   0.00000  Uiso   1.00
C284   C     0.93346   0.07794   0.04710   0.00000  Uiso   1.00
C285   C     0.03089   0.03869   0.14145   0.00000  Uiso   1.00
C286   C     0.74058   0.05283   0.83015   0.00000  Uiso   1.00
C287   C     0.74679   0.06143   0.73530   0.00000  Uiso   1.00
C288   C     0.73066   0.99792   0.68150   0.00000  Uiso   1.00
C289   C     0.71069   0.91237   0.56426   0.00000  Uiso   1.00
C290   C     0.71593   0.98669   0.97488   0.00000  Uiso   1.00
C291   C     0.66125   0.05143   0.99854   0.00000  Uiso   1.00
C292   C     0.59649   0.04522   0.05307   0.00000  Uiso   1.00
C293   C     0.55398   0.11110   0.06650   0.00000  Uiso   1.00
C294   C     0.79466   0.01310   0.00615   0.00000  Uiso   1.00
C295   C     0.84209   0.97465   0.06706   0.00000  Uiso   1.00
C296   C     0.91190   0.00826   0.08689   0.00000  Uiso   1.00
C297   C     0.71905   0.98328   0.86987   0.00000  Uiso   1.00
C298   C     0.70293   0.91975   0.81621   0.00000  Uiso   1.00
C299   C     0.70910   0.92825   0.72129   0.00000  Uiso   1.00
H300   H     0.77234   0.16889   0.87084   0.00000  Uiso   1.00
H301   H     0.65703   0.24071   0.94143   0.00000  Uiso   1.00
H302   H     0.90260   0.17015   0.95541   0.00000  Uiso   1.00
H303   H     0.76345   0.11526   0.70459   0.00000  Uiso   1.00
H304   H     0.51972   0.28967   0.03723   0.00000  Uiso   1.00
H305   H     0.03751   0.14088   0.06668   0.00000  Uiso   1.00
H306   H     0.74410   0.02512   0.53778   0.00000  Uiso   1.00
H307   H     0.69917   0.93253   0.00581   0.00000  Uiso   1.00
H308   H     0.57985   0.99138   0.08380   0.00000  Uiso   1.00
H309   H     0.82541   0.92083   0.09778   0.00000  Uiso   1.00
H310   H     0.68627   0.86593   0.84696   0.00000  Uiso   1.00
H311   H     0.45708   0.08731   0.15279   0.00000  Uiso   1.00
H312   H     0.97487   0.93852   0.18224   0.00000  Uiso   1.00
H313   H     0.68145   0.82276   0.65334   0.00000  Uiso   1.00
O314   O     0.41124   0.23147   0.14391   0.00000  Uiso   1.00
O315   O     0.09057   0.03626   0.18253   0.00000  Uiso   1.00
O316   O     0.70561   0.88440   0.48863   0.00000  Uiso   1.00
N317   N     0.52134   0.23396   0.05371   0.00000  Uiso   1.00
N318   N     0.00544   0.09486   0.08126   0.00000  Uiso   1.00
N319   N     0.73115   0.98663   0.58678   0.00000  Uiso   1.00
N320   N     0.48763   0.12507   0.11589   0.00000  Uiso   1.00
N321   N     0.97173   0.98597   0.14344   0.00000  Uiso   1.00
N322   N     0.69744   0.87775   0.64896   0.00000  Uiso   1.00
C323   C     0.24443   0.88526   0.40176   0.00000  Uiso   1.00
C324   C     0.31723   0.87901   0.45882   0.00000  Uiso   1.00
C325   C     0.35965   0.81311   0.47217   0.00000  Uiso   1.00
C326   C     0.42445   0.81922   0.52671   0.00000  Uiso   1.00
C327   C     0.53419   0.79894   0.60931   0.00000  Uiso   1.00
C328   C     0.18381   0.91735   0.46643   0.00000  Uiso   1.00
C329   C     0.11405   0.88367   0.48616   0.00000  Uiso   1.00
C330   C     0.06654   0.92206   0.54710   0.00000  Uiso   1.00
C331   C     0.96911   0.96131   0.64145   0.00000  Uiso   1.00
C332   C     0.25942   0.94717   0.33015   0.00000  Uiso   1.00
C333   C     0.25321   0.93857   0.23530   0.00000  Uiso   1.00
C334   C     0.26934   0.00208   0.18150   0.00000  Uiso   1.00
C335   C     0.28931   0.08763   0.06426   0.00000  Uiso   1.00
C336   C     0.28407   0.01331   0.47488   0.00000  Uiso   1.00
C337   C     0.33875   0.94857   0.49854   0.00000  Uiso   1.00
C338   C     0.40351   0.95478   0.55307   0.00000  Uiso   1.00
C339   C     0.44602   0.88890   0.56650   0.00000  Uiso   1.00
C340   C     0.20534   0.98690   0.50615   0.00000  Uiso   1.00
C341   C     0.15791   0.02535   0.56706   0.00000  Uiso   1.00
C342   C     0.08810   0.99174   0.58689   0.00000  Uiso   1.00
C343   C     0.28095   0.01672   0.36987   0.00000  Uiso   1.00
C344   C     0.29707   0.08025   0.31621   0.00000  Uiso   1.00
C345   C     0.29090   0.07175   0.22129   0.00000  Uiso   1.00
H346   H     0.22766   0.83111   0.37084   0.00000  Uiso   1.00
H347   H     0.34297   0.75929   0.44143   0.00000  Uiso   1.00
H348   H     0.09740   0.82985   0.45541   0.00000  Uiso   1.00
H349   H     0.23655   0.88474   0.20459   0.00000  Uiso   1.00
H350   H     0.48028   0.71033   0.53723   0.00000  Uiso   1.00
H351   H     0.96249   0.85912   0.56668   0.00000  Uiso   1.00
H352   H     0.25590   0.97488   0.03778   0.00000  Uiso   1.00
H353   H     0.30083   0.06747   0.50581   0.00000  Uiso   1.00
H354   H     0.42015   0.00862   0.58380   0.00000  Uiso   1.00
H355   H     0.17459   0.07917   0.59778   0.00000  Uiso   1.00
H356   H     0.31373   0.13407   0.34696   0.00000  Uiso   1.00
H357   H     0.54292   0.91269   0.65279   0.00000  Uiso   1.00
H358   H     0.02513   0.06148   0.68224   0.00000  Uiso   1.00
H359   H     0.31855   0.17724   0.15334   0.00000  Uiso   1.00
O360   O     0.58876   0.76853   0.64391   0.00000  Uiso   1.00
O361   O     0.90943   0.96374   0.68253   0.00000  Uiso   1.00
O362   O     0.29439   0.11560   0.98863   0.00000  Uiso   1.00
N363   N     0.47866   0.76604   0.55371   0.00000  Uiso   1.00
N364   N     0.99456   0.90514   0.58126   0.00000  Uiso   1.00
N365   N     0.26885   0.01337   0.08678   0.00000  Uiso   1.00
N366   N     0.51237   0.87493   0.61589   0.00000  Uiso   1.00
N367   N     0.02827   0.01403   0.64344   0.00000  Uiso   1.00
N368   N     0.30256   0.12225   0.14896   0.00000  Uiso   1.00
