data_job_04917
_audit_creation_date              2018-12-19
_audit_creation_method            'Materials Studio'
_symmetry_space_group_name_H-M    'P1'
_symmetry_Int_Tables_number       1
_symmetry_cell_setting            triclinic
loop_
_symmetry_equiv_pos_as_xyz
  x,y,z
_cell_length_a                    12.5488
_cell_length_b                    14.9391
_cell_length_c                    25.3161
_cell_angle_alpha                 90.0000
_cell_angle_beta                  90.3724
_cell_angle_gamma                 90.0000
loop_
_atom_site_label
_atom_site_type_symbol
_atom_site_fract_x
_atom_site_fract_y
_atom_site_fract_z
_atom_site_U_iso_or_equiv
_atom_site_adp_type
_atom_site_occupancy
C1     C     0.67646   0.76249   0.61093   0.00000  Uiso   1.00
C2     C     0.66349   0.69637   0.56545   0.00000  Uiso   1.00
C3     C     0.67789   0.71553   0.51234   0.00000  Uiso   1.00
C4     C     0.66220   0.64586   0.47684   0.00000  Uiso   1.00
C5     C     0.64642   0.55624   0.40362   0.00000  Uiso   1.00
C6     C     0.57089   0.76175   0.64043   0.00000  Uiso   1.00
C7     C     0.50746   0.83589   0.65036   0.00000  Uiso   1.00
C8     C     0.41383   0.82125   0.67798   0.00000  Uiso   1.00
C9     C     0.25434   0.83316   0.72119   0.00000  Uiso   1.00
C10    C     0.75834   0.72120   0.64844   0.00000  Uiso   1.00
C11    C     0.85251   0.76124   0.66512   0.00000  Uiso   1.00
C12    C     0.91669   0.71247   0.69950   0.00000  Uiso   1.00
C13    C     0.04824   0.66141   0.75515   0.00000  Uiso   1.00
C14    C     0.62298   0.60467   0.64234   0.00000  Uiso   1.00
C15    C     0.63444   0.61065   0.58251   0.00000  Uiso   1.00
C16    C     0.61873   0.54093   0.54708   0.00000  Uiso   1.00
C17    C     0.63311   0.55998   0.49393   0.00000  Uiso   1.00
C18    C     0.54185   0.67604   0.65749   0.00000  Uiso   1.00
C19    C     0.44830   0.66129   0.68510   0.00000  Uiso   1.00
C20    C     0.38473   0.73538   0.69507   0.00000  Uiso   1.00
C21    C     0.72930   0.63548   0.66550   0.00000  Uiso   1.00
C22    C     0.79334   0.58664   0.69986   0.00000  Uiso   1.00
C23    C     0.88759   0.62660   0.71658   0.00000  Uiso   1.00
H24    H     0.69907   0.82922   0.59766   0.00000  Uiso   1.00
H25    H     0.70036   0.78188   0.49915   0.00000  Uiso   1.00
H26    H     0.52996   0.90222   0.63716   0.00000  Uiso   1.00
H27    H     0.87496   0.82758   0.65191   0.00000  Uiso   1.00
H28    H     0.68894   0.69159   0.39747   0.00000  Uiso   1.00
H29    H     0.32967   0.94534   0.68847   0.00000  Uiso   1.00
H30    H     0.05716   0.78795   0.71958   0.00000  Uiso   1.00
H31    H     0.60037   0.53794   0.65562   0.00000  Uiso   1.00
H32    H     0.59625   0.47460   0.56030   0.00000  Uiso   1.00
H33    H     0.42585   0.59494   0.69830   0.00000  Uiso   1.00
H34    H     0.77084   0.52031   0.71305   0.00000  Uiso   1.00
H35    H     0.60444   0.44220   0.44709   0.00000  Uiso   1.00
H36    H     0.24517   0.69595   0.73809   0.00000  Uiso   1.00
H37    H     0.97266   0.53856   0.76921   0.00000  Uiso   1.00
O38    O     0.64573   0.53050   0.35852   0.00000  Uiso   1.00
O39    O     0.17439   0.86341   0.74031   0.00000  Uiso   1.00
O40    O     0.12884   0.65692   0.78113   0.00000  Uiso   1.00
N41    N     0.66964   0.64158   0.42223   0.00000  Uiso   1.00
N42    N     0.33374   0.87882   0.69429   0.00000  Uiso   1.00
N43    N     0.01386   0.73169   0.72339   0.00000  Uiso   1.00
N44    N     0.62417   0.50739   0.44893   0.00000  Uiso   1.00
N45    N     0.28827   0.74462   0.72099   0.00000  Uiso   1.00
N46    N     0.96839   0.59749   0.75009   0.00000  Uiso   1.00
C47    C     0.81994   0.20034   0.54210   0.00000  Uiso   1.00
C48    C     0.83771   0.27953   0.50518   0.00000  Uiso   1.00
C49    C     0.82712   0.27798   0.45059   0.00000  Uiso   1.00
C50    C     0.84688   0.35741   0.42392   0.00000  Uiso   1.00
C51    C     0.87007   0.46847   0.36248   0.00000  Uiso   1.00
C52    C     0.92309   0.18950   0.57363   0.00000  Uiso   1.00
C53    C     0.98428   0.11225   0.57659   0.00000  Uiso   1.00
C54    C     0.07591   0.11590   0.60755   0.00000  Uiso   1.00
C55    C     0.23161   0.08718   0.65242   0.00000  Uiso   1.00
C56    C     0.73599   0.23055   0.58156   0.00000  Uiso   1.00
C57    C     0.63987   0.18781   0.59121   0.00000  Uiso   1.00
C58    C     0.57399   0.22601   0.62886   0.00000  Uiso   1.00
C59    C     0.43918   0.26102   0.68603   0.00000  Uiso   1.00
C60    C     0.87387   0.34416   0.59182   0.00000  Uiso   1.00
C61    C     0.86700   0.35764   0.53219   0.00000  Uiso   1.00
C62    C     0.88678   0.43710   0.50560   0.00000  Uiso   1.00
C63    C     0.87622   0.43567   0.45097   0.00000  Uiso   1.00
C64    C     0.95238   0.26762   0.60063   0.00000  Uiso   1.00
C65    C     0.04394   0.27138   0.63160   0.00000  Uiso   1.00
C66    C     0.10526   0.19416   0.63461   0.00000  Uiso   1.00
C67    C     0.76528   0.30867   0.60857   0.00000  Uiso   1.00
C68    C     0.69953   0.34694   0.64621   0.00000  Uiso   1.00
C69    C     0.60333   0.30426   0.65591   0.00000  Uiso   1.00
H70    H     0.79714   0.13952   0.52108   0.00000  Uiso   1.00
H71    H     0.80446   0.21750   0.42970   0.00000  Uiso   1.00
H72    H     0.96159   0.05181   0.55569   0.00000  Uiso   1.00
H73    H     0.61723   0.12736   0.57030   0.00000  Uiso   1.00
H74    H     0.82553   0.33841   0.34031   0.00000  Uiso   1.00
H75    H     0.15682   0.98902   0.60598   0.00000  Uiso   1.00
H76    H     0.43068   0.14832   0.63678   0.00000  Uiso   1.00
H77    H     0.89667   0.40498   0.61285   0.00000  Uiso   1.00
H78    H     0.90945   0.49754   0.52651   0.00000  Uiso   1.00
H79    H     0.06658   0.33184   0.65250   0.00000  Uiso   1.00
H80    H     0.72223   0.40739   0.66710   0.00000  Uiso   1.00
H81    H     0.91075   0.56570   0.41887   0.00000  Uiso   1.00
H82    H     0.24204   0.21630   0.68455   0.00000  Uiso   1.00
H83    H     0.51590   0.37561   0.71535   0.00000  Uiso   1.00
O84    O     0.87478   0.50815   0.32114   0.00000  Uiso   1.00
O85    O     0.30941   0.04975   0.66969   0.00000  Uiso   1.00
O86    O     0.35673   0.25876   0.71011   0.00000  Uiso   1.00
N87    N     0.84381   0.37921   0.37065   0.00000  Uiso   1.00
N88    N     0.15356   0.05255   0.61903   0.00000  Uiso   1.00
N89    N     0.47469   0.20147   0.64784   0.00000  Uiso   1.00
N90    N     0.88966   0.50151   0.41292   0.00000  Uiso   1.00
N91    N     0.19941   0.17485   0.66130   0.00000  Uiso   1.00
N92    N     0.52054   0.32377   0.69012   0.00000  Uiso   1.00
C93    C     0.32354   0.26249   0.88907   0.00000  Uiso   1.00
C94    C     0.33651   0.19637   0.93455   0.00000  Uiso   1.00
C95    C     0.32211   0.21553   0.98766   0.00000  Uiso   1.00
C96    C     0.33780   0.14586   0.02316   0.00000  Uiso   1.00
C97    C     0.35358   0.05624   0.09638   0.00000  Uiso   1.00
C98    C     0.42911   0.26175   0.85957   0.00000  Uiso   1.00
C99    C     0.49254   0.33589   0.84964   0.00000  Uiso   1.00
C100   C     0.58617   0.32125   0.82202   0.00000  Uiso   1.00
C101   C     0.74566   0.33316   0.77881   0.00000  Uiso   1.00
C102   C     0.24166   0.22120   0.85156   0.00000  Uiso   1.00
C103   C     0.14749   0.26124   0.83488   0.00000  Uiso   1.00
C104   C     0.08331   0.21247   0.80050   0.00000  Uiso   1.00
C105   C     0.95176   0.16141   0.74485   0.00000  Uiso   1.00
C106   C     0.37702   0.10467   0.85766   0.00000  Uiso   1.00
C107   C     0.36556   0.11065   0.91749   0.00000  Uiso   1.00
C108   C     0.38127   0.04093   0.95292   0.00000  Uiso   1.00
C109   C     0.36689   0.05998   0.00607   0.00000  Uiso   1.00
C110   C     0.45815   0.17604   0.84251   0.00000  Uiso   1.00
C111   C     0.55170   0.16129   0.81490   0.00000  Uiso   1.00
C112   C     0.61527   0.23538   0.80493   0.00000  Uiso   1.00
C113   C     0.27070   0.13548   0.83450   0.00000  Uiso   1.00
C114   C     0.20666   0.08664   0.80014   0.00000  Uiso   1.00
C115   C     0.11241   0.12660   0.78342   0.00000  Uiso   1.00
H116   H     0.30093   0.32922   0.90234   0.00000  Uiso   1.00
H117   H     0.29964   0.28188   0.00085   0.00000  Uiso   1.00
H118   H     0.47004   0.40222   0.86284   0.00000  Uiso   1.00
H119   H     0.12504   0.32758   0.84809   0.00000  Uiso   1.00
H120   H     0.31106   0.19159   0.10253   0.00000  Uiso   1.00
H121   H     0.67033   0.44534   0.81153   0.00000  Uiso   1.00
H122   H     0.94284   0.28795   0.78042   0.00000  Uiso   1.00
H123   H     0.39963   0.03794   0.84438   0.00000  Uiso   1.00
H124   H     0.40375   0.97460   0.93970   0.00000  Uiso   1.00
H125   H     0.57415   0.09494   0.80170   0.00000  Uiso   1.00
H126   H     0.22916   0.02031   0.78695   0.00000  Uiso   1.00
H127   H     0.39556   0.94220   0.05291   0.00000  Uiso   1.00
H128   H     0.75483   0.19595   0.76191   0.00000  Uiso   1.00
H129   H     0.02734   0.03856   0.73079   0.00000  Uiso   1.00
O130   O     0.35427   0.03050   0.14148   0.00000  Uiso   1.00
O131   O     0.82561   0.36341   0.75969   0.00000  Uiso   1.00
O132   O     0.87116   0.15692   0.71887   0.00000  Uiso   1.00
N133   N     0.33036   0.14158   0.07777   0.00000  Uiso   1.00
N134   N     0.66626   0.37882   0.80571   0.00000  Uiso   1.00
N135   N     0.98614   0.23169   0.77661   0.00000  Uiso   1.00
N136   N     0.37583   0.00739   0.05107   0.00000  Uiso   1.00
N137   N     0.71173   0.24462   0.77901   0.00000  Uiso   1.00
N138   N     0.03161   0.09749   0.74991   0.00000  Uiso   1.00
C139   C     0.18006   0.70034   0.95790   0.00000  Uiso   1.00
C140   C     0.16229   0.77953   0.99482   0.00000  Uiso   1.00
C141   C     0.17288   0.77798   0.04941   0.00000  Uiso   1.00
C142   C     0.15312   0.85741   0.07608   0.00000  Uiso   1.00
C143   C     0.12993   0.96847   0.13752   0.00000  Uiso   1.00
C144   C     0.07691   0.68950   0.92637   0.00000  Uiso   1.00
C145   C     0.01572   0.61225   0.92341   0.00000  Uiso   1.00
C146   C     0.92409   0.61590   0.89245   0.00000  Uiso   1.00
C147   C     0.76839   0.58718   0.84758   0.00000  Uiso   1.00
C148   C     0.26401   0.73055   0.91844   0.00000  Uiso   1.00
C149   C     0.36013   0.68781   0.90879   0.00000  Uiso   1.00
C150   C     0.42601   0.72601   0.87114   0.00000  Uiso   1.00
C151   C     0.56082   0.76102   0.81397   0.00000  Uiso   1.00
C152   C     0.12613   0.84416   0.90818   0.00000  Uiso   1.00
C153   C     0.13300   0.85764   0.96781   0.00000  Uiso   1.00
C154   C     0.11322   0.93710   0.99440   0.00000  Uiso   1.00
C155   C     0.12378   0.93567   0.04903   0.00000  Uiso   1.00
C156   C     0.04762   0.76762   0.89937   0.00000  Uiso   1.00
C157   C     0.95606   0.77138   0.86840   0.00000  Uiso   1.00
C158   C     0.89474   0.69416   0.86539   0.00000  Uiso   1.00
C159   C     0.23472   0.80867   0.89143   0.00000  Uiso   1.00
C160   C     0.30047   0.84694   0.85379   0.00000  Uiso   1.00
C161   C     0.39667   0.80426   0.84409   0.00000  Uiso   1.00
H162   H     0.20286   0.63952   0.97892   0.00000  Uiso   1.00
H163   H     0.19554   0.71750   0.07030   0.00000  Uiso   1.00
H164   H     0.03841   0.55181   0.94431   0.00000  Uiso   1.00
H165   H     0.38277   0.62736   0.92970   0.00000  Uiso   1.00
H166   H     0.17447   0.83841   0.15969   0.00000  Uiso   1.00
H167   H     0.84318   0.48902   0.89402   0.00000  Uiso   1.00
H168   H     0.56932   0.64832   0.86322   0.00000  Uiso   1.00
H169   H     0.10333   0.90498   0.88715   0.00000  Uiso   1.00
H170   H     0.09055   0.99754   0.97349   0.00000  Uiso   1.00
H171   H     0.93342   0.83184   0.84750   0.00000  Uiso   1.00
H172   H     0.27777   0.90739   0.83290   0.00000  Uiso   1.00
H173   H     0.08925   0.06570   0.08113   0.00000  Uiso   1.00
H174   H     0.75796   0.71630   0.81545   0.00000  Uiso   1.00
H175   H     0.48410   0.87561   0.78465   0.00000  Uiso   1.00
O176   O     0.12522   0.00815   0.17886   0.00000  Uiso   1.00
O177   O     0.69059   0.54975   0.83031   0.00000  Uiso   1.00
O178   O     0.64327   0.75876   0.78989   0.00000  Uiso   1.00
N179   N     0.15619   0.87921   0.12935   0.00000  Uiso   1.00
N180   N     0.84644   0.55255   0.88097   0.00000  Uiso   1.00
N181   N     0.52531   0.70147   0.85216   0.00000  Uiso   1.00
N182   N     0.11034   0.00151   0.08708   0.00000  Uiso   1.00
N183   N     0.80059   0.67485   0.83870   0.00000  Uiso   1.00
N184   N     0.47946   0.82377   0.80988   0.00000  Uiso   1.00
C185   C     0.32354   0.23751   0.38907   0.00000  Uiso   1.00
C186   C     0.33651   0.30363   0.43455   0.00000  Uiso   1.00
C187   C     0.32211   0.28447   0.48766   0.00000  Uiso   1.00
C188   C     0.33780   0.35414   0.52316   0.00000  Uiso   1.00
C189   C     0.35358   0.44376   0.59638   0.00000  Uiso   1.00
C190   C     0.42911   0.23825   0.35957   0.00000  Uiso   1.00
C191   C     0.49254   0.16411   0.34964   0.00000  Uiso   1.00
C192   C     0.58617   0.17875   0.32202   0.00000  Uiso   1.00
C193   C     0.74566   0.16684   0.27881   0.00000  Uiso   1.00
C194   C     0.24166   0.27880   0.35156   0.00000  Uiso   1.00
C195   C     0.14749   0.23876   0.33488   0.00000  Uiso   1.00
C196   C     0.08331   0.28753   0.30050   0.00000  Uiso   1.00
C197   C     0.95176   0.33859   0.24485   0.00000  Uiso   1.00
C198   C     0.37702   0.39533   0.35766   0.00000  Uiso   1.00
C199   C     0.36556   0.38935   0.41749   0.00000  Uiso   1.00
C200   C     0.38127   0.45907   0.45292   0.00000  Uiso   1.00
C201   C     0.36689   0.44002   0.50607   0.00000  Uiso   1.00
C202   C     0.45815   0.32396   0.34251   0.00000  Uiso   1.00
C203   C     0.55170   0.33871   0.31490   0.00000  Uiso   1.00
C204   C     0.61527   0.26462   0.30493   0.00000  Uiso   1.00
C205   C     0.27070   0.36452   0.33450   0.00000  Uiso   1.00
C206   C     0.20666   0.41336   0.30014   0.00000  Uiso   1.00
C207   C     0.11241   0.37340   0.28342   0.00000  Uiso   1.00
H208   H     0.30093   0.17078   0.40234   0.00000  Uiso   1.00
H209   H     0.29964   0.21812   0.50085   0.00000  Uiso   1.00
H210   H     0.47004   0.09778   0.36284   0.00000  Uiso   1.00
H211   H     0.12504   0.17242   0.34809   0.00000  Uiso   1.00
H212   H     0.31106   0.30841   0.60253   0.00000  Uiso   1.00
H213   H     0.67033   0.05466   0.31153   0.00000  Uiso   1.00
H214   H     0.94284   0.21205   0.28042   0.00000  Uiso   1.00
H215   H     0.39963   0.46206   0.34438   0.00000  Uiso   1.00
H216   H     0.40375   0.52540   0.43970   0.00000  Uiso   1.00
H217   H     0.57415   0.40506   0.30170   0.00000  Uiso   1.00
H218   H     0.22916   0.47969   0.28695   0.00000  Uiso   1.00
H219   H     0.39556   0.55780   0.55291   0.00000  Uiso   1.00
H220   H     0.75483   0.30405   0.26191   0.00000  Uiso   1.00
H221   H     0.02734   0.46144   0.23079   0.00000  Uiso   1.00
O222   O     0.35427   0.46950   0.64148   0.00000  Uiso   1.00
O223   O     0.82561   0.13659   0.25969   0.00000  Uiso   1.00
O224   O     0.87116   0.34308   0.21887   0.00000  Uiso   1.00
N225   N     0.33036   0.35842   0.57777   0.00000  Uiso   1.00
N226   N     0.66626   0.12118   0.30571   0.00000  Uiso   1.00
N227   N     0.98614   0.26831   0.27661   0.00000  Uiso   1.00
N228   N     0.37583   0.49261   0.55107   0.00000  Uiso   1.00
N229   N     0.71173   0.25538   0.27901   0.00000  Uiso   1.00
N230   N     0.03161   0.40251   0.24991   0.00000  Uiso   1.00
C231   C     0.18006   0.79966   0.45790   0.00000  Uiso   1.00
C232   C     0.16229   0.72047   0.49482   0.00000  Uiso   1.00
C233   C     0.17288   0.72202   0.54941   0.00000  Uiso   1.00
C234   C     0.15312   0.64259   0.57608   0.00000  Uiso   1.00
C235   C     0.12993   0.53153   0.63752   0.00000  Uiso   1.00
C236   C     0.07691   0.81050   0.42637   0.00000  Uiso   1.00
C237   C     0.01572   0.88775   0.42341   0.00000  Uiso   1.00
C238   C     0.92409   0.88410   0.39245   0.00000  Uiso   1.00
C239   C     0.76839   0.91282   0.34758   0.00000  Uiso   1.00
C240   C     0.26401   0.76945   0.41844   0.00000  Uiso   1.00
C241   C     0.36013   0.81219   0.40879   0.00000  Uiso   1.00
C242   C     0.42601   0.77399   0.37114   0.00000  Uiso   1.00
C243   C     0.56082   0.73898   0.31397   0.00000  Uiso   1.00
C244   C     0.12613   0.65584   0.40818   0.00000  Uiso   1.00
C245   C     0.13300   0.64236   0.46781   0.00000  Uiso   1.00
C246   C     0.11322   0.56290   0.49440   0.00000  Uiso   1.00
C247   C     0.12378   0.56433   0.54903   0.00000  Uiso   1.00
C248   C     0.04762   0.73238   0.39937   0.00000  Uiso   1.00
C249   C     0.95606   0.72862   0.36840   0.00000  Uiso   1.00
C250   C     0.89474   0.80584   0.36539   0.00000  Uiso   1.00
C251   C     0.23472   0.69133   0.39143   0.00000  Uiso   1.00
C252   C     0.30047   0.65306   0.35379   0.00000  Uiso   1.00
C253   C     0.39667   0.69574   0.34409   0.00000  Uiso   1.00
H254   H     0.20286   0.86048   0.47892   0.00000  Uiso   1.00
H255   H     0.19554   0.78250   0.57030   0.00000  Uiso   1.00
H256   H     0.03841   0.94819   0.44431   0.00000  Uiso   1.00
H257   H     0.38277   0.87264   0.42970   0.00000  Uiso   1.00
H258   H     0.17447   0.66159   0.65969   0.00000  Uiso   1.00
H259   H     0.84318   0.01098   0.39402   0.00000  Uiso   1.00
H260   H     0.56932   0.85168   0.36322   0.00000  Uiso   1.00
H261   H     0.10333   0.59502   0.38715   0.00000  Uiso   1.00
H262   H     0.09055   0.50246   0.47349   0.00000  Uiso   1.00
H263   H     0.93342   0.66816   0.34750   0.00000  Uiso   1.00
H264   H     0.27777   0.59261   0.33290   0.00000  Uiso   1.00
H265   H     0.08925   0.43430   0.58113   0.00000  Uiso   1.00
H266   H     0.75796   0.78370   0.31545   0.00000  Uiso   1.00
H267   H     0.48410   0.62439   0.28465   0.00000  Uiso   1.00
O268   O     0.12522   0.49185   0.67886   0.00000  Uiso   1.00
O269   O     0.69059   0.95025   0.33031   0.00000  Uiso   1.00
O270   O     0.64327   0.74124   0.28989   0.00000  Uiso   1.00
N271   N     0.15619   0.62079   0.62935   0.00000  Uiso   1.00
N272   N     0.84644   0.94745   0.38097   0.00000  Uiso   1.00
N273   N     0.52531   0.79853   0.35216   0.00000  Uiso   1.00
N274   N     0.11034   0.49849   0.58708   0.00000  Uiso   1.00
N275   N     0.80059   0.82515   0.33870   0.00000  Uiso   1.00
N276   N     0.47946   0.67623   0.30988   0.00000  Uiso   1.00
C277   C     0.67646   0.73751   0.11093   0.00000  Uiso   1.00
C278   C     0.66349   0.80363   0.06545   0.00000  Uiso   1.00
C279   C     0.67789   0.78447   0.01234   0.00000  Uiso   1.00
C280   C     0.66220   0.85414   0.97684   0.00000  Uiso   1.00
C281   C     0.64642   0.94376   0.90362   0.00000  Uiso   1.00
C282   C     0.57089   0.73825   0.14043   0.00000  Uiso   1.00
C283   C     0.50746   0.66411   0.15036   0.00000  Uiso   1.00
C284   C     0.41383   0.67875   0.17798   0.00000  Uiso   1.00
C285   C     0.25434   0.66684   0.22119   0.00000  Uiso   1.00
C286   C     0.75834   0.77880   0.14844   0.00000  Uiso   1.00
C287   C     0.85251   0.73876   0.16512   0.00000  Uiso   1.00
C288   C     0.91669   0.78753   0.19950   0.00000  Uiso   1.00
C289   C     0.04824   0.83859   0.25515   0.00000  Uiso   1.00
C290   C     0.62298   0.89533   0.14234   0.00000  Uiso   1.00
C291   C     0.63444   0.88935   0.08251   0.00000  Uiso   1.00
C292   C     0.61873   0.95907   0.04708   0.00000  Uiso   1.00
C293   C     0.63311   0.94002   0.99393   0.00000  Uiso   1.00
C294   C     0.54185   0.82396   0.15749   0.00000  Uiso   1.00
C295   C     0.44830   0.83871   0.18510   0.00000  Uiso   1.00
C296   C     0.38473   0.76462   0.19507   0.00000  Uiso   1.00
C297   C     0.72930   0.86452   0.16550   0.00000  Uiso   1.00
C298   C     0.79334   0.91336   0.19986   0.00000  Uiso   1.00
C299   C     0.88759   0.87340   0.21658   0.00000  Uiso   1.00
H300   H     0.69907   0.67078   0.09766   0.00000  Uiso   1.00
H301   H     0.70036   0.71812   0.99915   0.00000  Uiso   1.00
H302   H     0.52996   0.59778   0.13716   0.00000  Uiso   1.00
H303   H     0.87496   0.67242   0.15191   0.00000  Uiso   1.00
H304   H     0.68894   0.80841   0.89747   0.00000  Uiso   1.00
H305   H     0.32967   0.55466   0.18847   0.00000  Uiso   1.00
H306   H     0.05716   0.71205   0.21958   0.00000  Uiso   1.00
H307   H     0.60037   0.96206   0.15562   0.00000  Uiso   1.00
H308   H     0.59625   0.02540   0.06030   0.00000  Uiso   1.00
H309   H     0.42585   0.90506   0.19830   0.00000  Uiso   1.00
H310   H     0.77084   0.97969   0.21305   0.00000  Uiso   1.00
H311   H     0.60444   0.05780   0.94709   0.00000  Uiso   1.00
H312   H     0.24517   0.80405   0.23809   0.00000  Uiso   1.00
H313   H     0.97266   0.96144   0.26921   0.00000  Uiso   1.00
O314   O     0.64573   0.96950   0.85852   0.00000  Uiso   1.00
O315   O     0.17439   0.63659   0.24031   0.00000  Uiso   1.00
O316   O     0.12884   0.84308   0.28113   0.00000  Uiso   1.00
N317   N     0.66964   0.85842   0.92223   0.00000  Uiso   1.00
N318   N     0.33374   0.62118   0.19429   0.00000  Uiso   1.00
N319   N     0.01386   0.76831   0.22339   0.00000  Uiso   1.00
N320   N     0.62417   0.99261   0.94893   0.00000  Uiso   1.00
N321   N     0.28827   0.75538   0.22099   0.00000  Uiso   1.00
N322   N     0.96839   0.90251   0.25009   0.00000  Uiso   1.00
C323   C     0.81994   0.29966   0.04210   0.00000  Uiso   1.00
C324   C     0.83771   0.22047   0.00518   0.00000  Uiso   1.00
C325   C     0.82712   0.22202   0.95059   0.00000  Uiso   1.00
C326   C     0.84688   0.14259   0.92392   0.00000  Uiso   1.00
C327   C     0.87007   0.03153   0.86248   0.00000  Uiso   1.00
C328   C     0.92309   0.31050   0.07363   0.00000  Uiso   1.00
C329   C     0.98428   0.38775   0.07659   0.00000  Uiso   1.00
C330   C     0.07591   0.38410   0.10755   0.00000  Uiso   1.00
C331   C     0.23161   0.41282   0.15242   0.00000  Uiso   1.00
C332   C     0.73599   0.26945   0.08156   0.00000  Uiso   1.00
C333   C     0.63987   0.31219   0.09121   0.00000  Uiso   1.00
C334   C     0.57399   0.27399   0.12886   0.00000  Uiso   1.00
C335   C     0.43918   0.23898   0.18603   0.00000  Uiso   1.00
C336   C     0.87387   0.15584   0.09182   0.00000  Uiso   1.00
C337   C     0.86700   0.14236   0.03219   0.00000  Uiso   1.00
C338   C     0.88678   0.06290   0.00560   0.00000  Uiso   1.00
C339   C     0.87622   0.06433   0.95097   0.00000  Uiso   1.00
C340   C     0.95238   0.23238   0.10063   0.00000  Uiso   1.00
C341   C     0.04394   0.22862   0.13160   0.00000  Uiso   1.00
C342   C     0.10526   0.30584   0.13461   0.00000  Uiso   1.00
C343   C     0.76528   0.19133   0.10857   0.00000  Uiso   1.00
C344   C     0.69953   0.15306   0.14621   0.00000  Uiso   1.00
C345   C     0.60333   0.19574   0.15591   0.00000  Uiso   1.00
H346   H     0.79714   0.36048   0.02108   0.00000  Uiso   1.00
H347   H     0.80446   0.28250   0.92970   0.00000  Uiso   1.00
H348   H     0.96159   0.44819   0.05569   0.00000  Uiso   1.00
H349   H     0.61723   0.37264   0.07030   0.00000  Uiso   1.00
H350   H     0.82553   0.16159   0.84031   0.00000  Uiso   1.00
H351   H     0.15682   0.51098   0.10598   0.00000  Uiso   1.00
H352   H     0.43068   0.35168   0.13678   0.00000  Uiso   1.00
H353   H     0.89667   0.09502   0.11285   0.00000  Uiso   1.00
H354   H     0.90945   0.00246   0.02651   0.00000  Uiso   1.00
H355   H     0.06658   0.16816   0.15250   0.00000  Uiso   1.00
H356   H     0.72223   0.09261   0.16710   0.00000  Uiso   1.00
H357   H     0.91075   0.93430   0.91887   0.00000  Uiso   1.00
H358   H     0.24204   0.28370   0.18455   0.00000  Uiso   1.00
H359   H     0.51590   0.12439   0.21535   0.00000  Uiso   1.00
O360   O     0.87478   0.99185   0.82114   0.00000  Uiso   1.00
O361   O     0.30941   0.45025   0.16969   0.00000  Uiso   1.00
O362   O     0.35673   0.24124   0.21011   0.00000  Uiso   1.00
N363   N     0.84381   0.12079   0.87065   0.00000  Uiso   1.00
N364   N     0.15356   0.44745   0.11903   0.00000  Uiso   1.00
N365   N     0.47469   0.29853   0.14784   0.00000  Uiso   1.00
N366   N     0.88966   0.99849   0.91292   0.00000  Uiso   1.00
N367   N     0.19941   0.32515   0.16130   0.00000  Uiso   1.00
N368   N     0.52054   0.17623   0.19012   0.00000  Uiso   1.00
