data_job_05185
_audit_creation_date              2018-12-19
_audit_creation_method            'Materials Studio'
_symmetry_space_group_name_H-M    'P1'
_symmetry_Int_Tables_number       1
_symmetry_cell_setting            triclinic
loop_
_symmetry_equiv_pos_as_xyz
  x,y,z
_cell_length_a                    24.4697
_cell_length_b                    21.8659
_cell_length_c                    10.8924
_cell_angle_alpha                 90.0000
_cell_angle_beta                  67.2693
_cell_angle_gamma                 90.0000
loop_
_atom_site_label
_atom_site_type_symbol
_atom_site_fract_x
_atom_site_fract_y
_atom_site_fract_z
_atom_site_U_iso_or_equiv
_atom_site_adp_type
_atom_site_occupancy
C1     C     0.80410   0.90108   0.56454   0.00000  Uiso   1.00
C2     C     0.74096   0.91888   0.65410   0.00000  Uiso   1.00
C3     C     0.71065   0.89932   0.78407   0.00000  Uiso   1.00
C4     C     0.65322   0.92076   0.84921   0.00000  Uiso   1.00
C5     C     0.55914   0.94235   0.99779   0.00000  Uiso   1.00
C6     C     0.80030   0.87337   0.43961   0.00000  Uiso   1.00
C7     C     0.81989   0.81554   0.38923   0.00000  Uiso   1.00
C8     C     0.81242   0.79868   0.27380   0.00000  Uiso   1.00
C9     C     0.81051   0.74963   0.08933   0.00000  Uiso   1.00
C10    C     0.83809   0.96093   0.52080   0.00000  Uiso   1.00
C11    C     0.88946   0.97673   0.53865   0.00000  Uiso   1.00
C12    C     0.91382   0.03359   0.49154   0.00000  Uiso   1.00
C13    C     0.97058   0.12050   0.43313   0.00000  Uiso   1.00
C14    C     0.75602   0.97396   0.44910   0.00000  Uiso   1.00
C15    C     0.71485   0.95846   0.59139   0.00000  Uiso   1.00
C16    C     0.65745   0.97995   0.65635   0.00000  Uiso   1.00
C17    C     0.62706   0.96042   0.78640   0.00000  Uiso   1.00
C18    C     0.77419   0.91295   0.37691   0.00000  Uiso   1.00
C19    C     0.76669   0.89617   0.26152   0.00000  Uiso   1.00
C20    C     0.78626   0.83834   0.21099   0.00000  Uiso   1.00
C21    C     0.81198   0.00052   0.45810   0.00000  Uiso   1.00
C22    C     0.83626   0.05736   0.41094   0.00000  Uiso   1.00
C23    C     0.88766   0.07324   0.42873   0.00000  Uiso   1.00
H24    H     0.82444   0.87026   0.61334   0.00000  Uiso   1.00
H25    H     0.73087   0.86868   0.83255   0.00000  Uiso   1.00
H26    H     0.84010   0.78492   0.43777   0.00000  Uiso   1.00
H27    H     0.90966   0.94609   0.58717   0.00000  Uiso   1.00
H28    H     0.61561   0.88436   0.04792   0.00000  Uiso   1.00
H29    H     0.84595   0.70777   0.21547   0.00000  Uiso   1.00
H30    H     0.99263   0.04761   0.53051   0.00000  Uiso   1.00
H31    H     0.73569   0.00477   0.40028   0.00000  Uiso   1.00
H32    H     0.63725   0.01058   0.60781   0.00000  Uiso   1.00
H33    H     0.74648   0.92682   0.21302   0.00000  Uiso   1.00
H34    H     0.81604   0.08798   0.36242   0.00000  Uiso   1.00
H35    H     0.53963   0.99953   0.86551   0.00000  Uiso   1.00
H36    H     0.76997   0.82293   0.03305   0.00000  Uiso   1.00
H37    H     0.91664   0.16278   0.34810   0.00000  Uiso   1.00
O38    O     0.51446   0.94332   0.09706   0.00000  Uiso   1.00
O39    O     0.81666   0.71164   0.00491   0.00000  Uiso   1.00
O40    O     0.00910   0.15750   0.41824   0.00000  Uiso   1.00
N41    N     0.61124   0.91068   0.97652   0.00000  Uiso   1.00
N42    N     0.82658   0.74557   0.19824   0.00000  Uiso   1.00
N43    N     0.96373   0.06329   0.49275   0.00000  Uiso   1.00
N44    N     0.57036   0.97265   0.87836   0.00000  Uiso   1.00
N45    N     0.78570   0.80754   0.10009   0.00000  Uiso   1.00
N46    N     0.92284   0.12526   0.39459   0.00000  Uiso   1.00
C47    C     0.30410   0.40108   0.56454   0.00000  Uiso   1.00
C48    C     0.24096   0.41888   0.65410   0.00000  Uiso   1.00
C49    C     0.21065   0.39932   0.78407   0.00000  Uiso   1.00
C50    C     0.15322   0.42076   0.84921   0.00000  Uiso   1.00
C51    C     0.05914   0.44235   0.99779   0.00000  Uiso   1.00
C52    C     0.30030   0.37337   0.43961   0.00000  Uiso   1.00
C53    C     0.31989   0.31554   0.38923   0.00000  Uiso   1.00
C54    C     0.31242   0.29868   0.27380   0.00000  Uiso   1.00
C55    C     0.31051   0.24963   0.08933   0.00000  Uiso   1.00
C56    C     0.33809   0.46093   0.52080   0.00000  Uiso   1.00
C57    C     0.38946   0.47673   0.53865   0.00000  Uiso   1.00
C58    C     0.41382   0.53359   0.49154   0.00000  Uiso   1.00
C59    C     0.47058   0.62050   0.43313   0.00000  Uiso   1.00
C60    C     0.25602   0.47396   0.44910   0.00000  Uiso   1.00
C61    C     0.21485   0.45846   0.59139   0.00000  Uiso   1.00
C62    C     0.15745   0.47995   0.65635   0.00000  Uiso   1.00
C63    C     0.12706   0.46042   0.78640   0.00000  Uiso   1.00
C64    C     0.27419   0.41295   0.37691   0.00000  Uiso   1.00
C65    C     0.26669   0.39617   0.26152   0.00000  Uiso   1.00
C66    C     0.28626   0.33834   0.21099   0.00000  Uiso   1.00
C67    C     0.31198   0.50052   0.45810   0.00000  Uiso   1.00
C68    C     0.33626   0.55736   0.41094   0.00000  Uiso   1.00
C69    C     0.38766   0.57324   0.42873   0.00000  Uiso   1.00
H70    H     0.32444   0.37026   0.61334   0.00000  Uiso   1.00
H71    H     0.23087   0.36868   0.83255   0.00000  Uiso   1.00
H72    H     0.34010   0.28492   0.43777   0.00000  Uiso   1.00
H73    H     0.40966   0.44609   0.58717   0.00000  Uiso   1.00
H74    H     0.11561   0.38436   0.04792   0.00000  Uiso   1.00
H75    H     0.34595   0.20777   0.21547   0.00000  Uiso   1.00
H76    H     0.49263   0.54761   0.53051   0.00000  Uiso   1.00
H77    H     0.23569   0.50477   0.40028   0.00000  Uiso   1.00
H78    H     0.13725   0.51058   0.60781   0.00000  Uiso   1.00
H79    H     0.24648   0.42682   0.21302   0.00000  Uiso   1.00
H80    H     0.31604   0.58798   0.36242   0.00000  Uiso   1.00
H81    H     0.03963   0.49953   0.86551   0.00000  Uiso   1.00
H82    H     0.26997   0.32293   0.03305   0.00000  Uiso   1.00
H83    H     0.41664   0.66278   0.34810   0.00000  Uiso   1.00
O84    O     0.01446   0.44332   0.09706   0.00000  Uiso   1.00
O85    O     0.31666   0.21164   0.00491   0.00000  Uiso   1.00
O86    O     0.50910   0.65750   0.41824   0.00000  Uiso   1.00
N87    N     0.11124   0.41068   0.97652   0.00000  Uiso   1.00
N88    N     0.32658   0.24557   0.19824   0.00000  Uiso   1.00
N89    N     0.46373   0.56329   0.49275   0.00000  Uiso   1.00
N90    N     0.07036   0.47265   0.87836   0.00000  Uiso   1.00
N91    N     0.28570   0.30754   0.10009   0.00000  Uiso   1.00
N92    N     0.42284   0.62526   0.39459   0.00000  Uiso   1.00
C93    C     0.19590   0.90108   0.93546   0.00000  Uiso   1.00
C94    C     0.25904   0.91888   0.84590   0.00000  Uiso   1.00
C95    C     0.28935   0.89932   0.71593   0.00000  Uiso   1.00
C96    C     0.34678   0.92076   0.65079   0.00000  Uiso   1.00
C97    C     0.44086   0.94235   0.50221   0.00000  Uiso   1.00
C98    C     0.19970   0.87337   0.06039   0.00000  Uiso   1.00
C99    C     0.18011   0.81554   0.11077   0.00000  Uiso   1.00
C100   C     0.18758   0.79868   0.22620   0.00000  Uiso   1.00
C101   C     0.18949   0.74963   0.41067   0.00000  Uiso   1.00
C102   C     0.16191   0.96093   0.97920   0.00000  Uiso   1.00
C103   C     0.11054   0.97673   0.96135   0.00000  Uiso   1.00
C104   C     0.08618   0.03359   0.00846   0.00000  Uiso   1.00
C105   C     0.02942   0.12050   0.06687   0.00000  Uiso   1.00
C106   C     0.24398   0.97396   0.05090   0.00000  Uiso   1.00
C107   C     0.28515   0.95846   0.90861   0.00000  Uiso   1.00
C108   C     0.34255   0.97995   0.84365   0.00000  Uiso   1.00
C109   C     0.37294   0.96042   0.71360   0.00000  Uiso   1.00
C110   C     0.22581   0.91295   0.12309   0.00000  Uiso   1.00
C111   C     0.23331   0.89617   0.23848   0.00000  Uiso   1.00
C112   C     0.21374   0.83834   0.28901   0.00000  Uiso   1.00
C113   C     0.18802   0.00052   0.04190   0.00000  Uiso   1.00
C114   C     0.16374   0.05736   0.08906   0.00000  Uiso   1.00
C115   C     0.11234   0.07324   0.07127   0.00000  Uiso   1.00
H116   H     0.17556   0.87026   0.88666   0.00000  Uiso   1.00
H117   H     0.26913   0.86868   0.66745   0.00000  Uiso   1.00
H118   H     0.15990   0.78492   0.06223   0.00000  Uiso   1.00
H119   H     0.09034   0.94609   0.91283   0.00000  Uiso   1.00
H120   H     0.38439   0.88436   0.45208   0.00000  Uiso   1.00
H121   H     0.15405   0.70777   0.28453   0.00000  Uiso   1.00
H122   H     0.00737   0.04761   0.96949   0.00000  Uiso   1.00
H123   H     0.26431   0.00477   0.09972   0.00000  Uiso   1.00
H124   H     0.36275   0.01058   0.89219   0.00000  Uiso   1.00
H125   H     0.25352   0.92682   0.28698   0.00000  Uiso   1.00
H126   H     0.18396   0.08798   0.13758   0.00000  Uiso   1.00
H127   H     0.46037   0.99953   0.63449   0.00000  Uiso   1.00
H128   H     0.23003   0.82293   0.46695   0.00000  Uiso   1.00
H129   H     0.08336   0.16278   0.15190   0.00000  Uiso   1.00
O130   O     0.48554   0.94332   0.40294   0.00000  Uiso   1.00
O131   O     0.18334   0.71164   0.49509   0.00000  Uiso   1.00
O132   O     0.99090   0.15750   0.08176   0.00000  Uiso   1.00
N133   N     0.38876   0.91068   0.52348   0.00000  Uiso   1.00
N134   N     0.17342   0.74557   0.30176   0.00000  Uiso   1.00
N135   N     0.03627   0.06329   0.00725   0.00000  Uiso   1.00
N136   N     0.42964   0.97265   0.62164   0.00000  Uiso   1.00
N137   N     0.21430   0.80754   0.39991   0.00000  Uiso   1.00
N138   N     0.07716   0.12526   0.10541   0.00000  Uiso   1.00
C139   C     0.69590   0.40108   0.93546   0.00000  Uiso   1.00
C140   C     0.75904   0.41888   0.84590   0.00000  Uiso   1.00
C141   C     0.78935   0.39932   0.71593   0.00000  Uiso   1.00
C142   C     0.84678   0.42076   0.65079   0.00000  Uiso   1.00
C143   C     0.94086   0.44235   0.50221   0.00000  Uiso   1.00
C144   C     0.69970   0.37337   0.06039   0.00000  Uiso   1.00
C145   C     0.68011   0.31554   0.11077   0.00000  Uiso   1.00
C146   C     0.68758   0.29868   0.22620   0.00000  Uiso   1.00
C147   C     0.68949   0.24963   0.41067   0.00000  Uiso   1.00
C148   C     0.66191   0.46093   0.97920   0.00000  Uiso   1.00
C149   C     0.61054   0.47673   0.96135   0.00000  Uiso   1.00
C150   C     0.58618   0.53359   0.00846   0.00000  Uiso   1.00
C151   C     0.52942   0.62050   0.06687   0.00000  Uiso   1.00
C152   C     0.74398   0.47396   0.05090   0.00000  Uiso   1.00
C153   C     0.78515   0.45846   0.90861   0.00000  Uiso   1.00
C154   C     0.84255   0.47995   0.84365   0.00000  Uiso   1.00
C155   C     0.87294   0.46042   0.71360   0.00000  Uiso   1.00
C156   C     0.72581   0.41295   0.12309   0.00000  Uiso   1.00
C157   C     0.73331   0.39617   0.23848   0.00000  Uiso   1.00
C158   C     0.71374   0.33834   0.28901   0.00000  Uiso   1.00
C159   C     0.68802   0.50052   0.04190   0.00000  Uiso   1.00
C160   C     0.66374   0.55736   0.08906   0.00000  Uiso   1.00
C161   C     0.61234   0.57324   0.07127   0.00000  Uiso   1.00
H162   H     0.67556   0.37026   0.88666   0.00000  Uiso   1.00
H163   H     0.76913   0.36868   0.66745   0.00000  Uiso   1.00
H164   H     0.65990   0.28492   0.06223   0.00000  Uiso   1.00
H165   H     0.59034   0.44609   0.91283   0.00000  Uiso   1.00
H166   H     0.88439   0.38436   0.45208   0.00000  Uiso   1.00
H167   H     0.65405   0.20777   0.28453   0.00000  Uiso   1.00
H168   H     0.50737   0.54761   0.96949   0.00000  Uiso   1.00
H169   H     0.76431   0.50477   0.09972   0.00000  Uiso   1.00
H170   H     0.86275   0.51058   0.89219   0.00000  Uiso   1.00
H171   H     0.75352   0.42682   0.28698   0.00000  Uiso   1.00
H172   H     0.68396   0.58798   0.13758   0.00000  Uiso   1.00
H173   H     0.96037   0.49953   0.63449   0.00000  Uiso   1.00
H174   H     0.73003   0.32293   0.46695   0.00000  Uiso   1.00
H175   H     0.58336   0.66278   0.15190   0.00000  Uiso   1.00
O176   O     0.98554   0.44332   0.40294   0.00000  Uiso   1.00
O177   O     0.68334   0.21164   0.49509   0.00000  Uiso   1.00
O178   O     0.49090   0.65750   0.08176   0.00000  Uiso   1.00
N179   N     0.88876   0.41068   0.52348   0.00000  Uiso   1.00
N180   N     0.67342   0.24557   0.30176   0.00000  Uiso   1.00
N181   N     0.53627   0.56329   0.00725   0.00000  Uiso   1.00
N182   N     0.92964   0.47265   0.62164   0.00000  Uiso   1.00
N183   N     0.71430   0.30754   0.39991   0.00000  Uiso   1.00
N184   N     0.57716   0.62526   0.10541   0.00000  Uiso   1.00
C185   C     0.19590   0.09892   0.43546   0.00000  Uiso   1.00
C186   C     0.25904   0.08112   0.34590   0.00000  Uiso   1.00
C187   C     0.28935   0.10068   0.21593   0.00000  Uiso   1.00
C188   C     0.34678   0.07924   0.15079   0.00000  Uiso   1.00
C189   C     0.44086   0.05765   0.00221   0.00000  Uiso   1.00
C190   C     0.19970   0.12663   0.56039   0.00000  Uiso   1.00
C191   C     0.18011   0.18446   0.61077   0.00000  Uiso   1.00
C192   C     0.18758   0.20132   0.72620   0.00000  Uiso   1.00
C193   C     0.18949   0.25037   0.91067   0.00000  Uiso   1.00
C194   C     0.16191   0.03907   0.47920   0.00000  Uiso   1.00
C195   C     0.11054   0.02327   0.46135   0.00000  Uiso   1.00
C196   C     0.08618   0.96641   0.50846   0.00000  Uiso   1.00
C197   C     0.02942   0.87950   0.56687   0.00000  Uiso   1.00
C198   C     0.24398   0.02604   0.55090   0.00000  Uiso   1.00
C199   C     0.28515   0.04154   0.40861   0.00000  Uiso   1.00
C200   C     0.34255   0.02005   0.34365   0.00000  Uiso   1.00
C201   C     0.37294   0.03958   0.21360   0.00000  Uiso   1.00
C202   C     0.22581   0.08705   0.62309   0.00000  Uiso   1.00
C203   C     0.23331   0.10383   0.73848   0.00000  Uiso   1.00
C204   C     0.21374   0.16166   0.78901   0.00000  Uiso   1.00
C205   C     0.18802   0.99948   0.54190   0.00000  Uiso   1.00
C206   C     0.16374   0.94264   0.58906   0.00000  Uiso   1.00
C207   C     0.11234   0.92676   0.57127   0.00000  Uiso   1.00
H208   H     0.17556   0.12974   0.38666   0.00000  Uiso   1.00
H209   H     0.26913   0.13132   0.16745   0.00000  Uiso   1.00
H210   H     0.15990   0.21508   0.56223   0.00000  Uiso   1.00
H211   H     0.09034   0.05391   0.41283   0.00000  Uiso   1.00
H212   H     0.38439   0.11564   0.95208   0.00000  Uiso   1.00
H213   H     0.15405   0.29223   0.78453   0.00000  Uiso   1.00
H214   H     0.00737   0.95239   0.46949   0.00000  Uiso   1.00
H215   H     0.26431   0.99523   0.59972   0.00000  Uiso   1.00
H216   H     0.36275   0.98942   0.39219   0.00000  Uiso   1.00
H217   H     0.25352   0.07318   0.78698   0.00000  Uiso   1.00
H218   H     0.18396   0.91202   0.63758   0.00000  Uiso   1.00
H219   H     0.46037   0.00047   0.13449   0.00000  Uiso   1.00
H220   H     0.23003   0.17707   0.96695   0.00000  Uiso   1.00
H221   H     0.08336   0.83722   0.65190   0.00000  Uiso   1.00
O222   O     0.48554   0.05668   0.90294   0.00000  Uiso   1.00
O223   O     0.18334   0.28836   0.99509   0.00000  Uiso   1.00
O224   O     0.99090   0.84250   0.58176   0.00000  Uiso   1.00
N225   N     0.38876   0.08932   0.02348   0.00000  Uiso   1.00
N226   N     0.17342   0.25443   0.80176   0.00000  Uiso   1.00
N227   N     0.03627   0.93671   0.50725   0.00000  Uiso   1.00
N228   N     0.42964   0.02735   0.12164   0.00000  Uiso   1.00
N229   N     0.21430   0.19246   0.89991   0.00000  Uiso   1.00
N230   N     0.07716   0.87474   0.60541   0.00000  Uiso   1.00
C231   C     0.69590   0.59892   0.43546   0.00000  Uiso   1.00
C232   C     0.75904   0.58112   0.34590   0.00000  Uiso   1.00
C233   C     0.78935   0.60068   0.21593   0.00000  Uiso   1.00
C234   C     0.84678   0.57924   0.15079   0.00000  Uiso   1.00
C235   C     0.94086   0.55765   0.00221   0.00000  Uiso   1.00
C236   C     0.69970   0.62663   0.56039   0.00000  Uiso   1.00
C237   C     0.68011   0.68446   0.61077   0.00000  Uiso   1.00
C238   C     0.68758   0.70132   0.72620   0.00000  Uiso   1.00
C239   C     0.68949   0.75037   0.91067   0.00000  Uiso   1.00
C240   C     0.66191   0.53907   0.47920   0.00000  Uiso   1.00
C241   C     0.61054   0.52327   0.46135   0.00000  Uiso   1.00
C242   C     0.58618   0.46641   0.50846   0.00000  Uiso   1.00
C243   C     0.52942   0.37950   0.56687   0.00000  Uiso   1.00
C244   C     0.74398   0.52604   0.55090   0.00000  Uiso   1.00
C245   C     0.78515   0.54154   0.40861   0.00000  Uiso   1.00
C246   C     0.84255   0.52005   0.34365   0.00000  Uiso   1.00
C247   C     0.87294   0.53958   0.21360   0.00000  Uiso   1.00
C248   C     0.72581   0.58705   0.62309   0.00000  Uiso   1.00
C249   C     0.73331   0.60383   0.73848   0.00000  Uiso   1.00
C250   C     0.71374   0.66166   0.78901   0.00000  Uiso   1.00
C251   C     0.68802   0.49948   0.54190   0.00000  Uiso   1.00
C252   C     0.66374   0.44264   0.58906   0.00000  Uiso   1.00
C253   C     0.61234   0.42676   0.57127   0.00000  Uiso   1.00
H254   H     0.67556   0.62974   0.38666   0.00000  Uiso   1.00
H255   H     0.76913   0.63132   0.16745   0.00000  Uiso   1.00
H256   H     0.65990   0.71508   0.56223   0.00000  Uiso   1.00
H257   H     0.59034   0.55391   0.41283   0.00000  Uiso   1.00
H258   H     0.88439   0.61564   0.95208   0.00000  Uiso   1.00
H259   H     0.65405   0.79223   0.78453   0.00000  Uiso   1.00
H260   H     0.50737   0.45239   0.46949   0.00000  Uiso   1.00
H261   H     0.76431   0.49523   0.59972   0.00000  Uiso   1.00
H262   H     0.86275   0.48942   0.39219   0.00000  Uiso   1.00
H263   H     0.75352   0.57318   0.78698   0.00000  Uiso   1.00
H264   H     0.68396   0.41202   0.63758   0.00000  Uiso   1.00
H265   H     0.96037   0.50047   0.13449   0.00000  Uiso   1.00
H266   H     0.73003   0.67707   0.96695   0.00000  Uiso   1.00
H267   H     0.58336   0.33722   0.65190   0.00000  Uiso   1.00
O268   O     0.98554   0.55668   0.90294   0.00000  Uiso   1.00
O269   O     0.68334   0.78836   0.99509   0.00000  Uiso   1.00
O270   O     0.49090   0.34250   0.58176   0.00000  Uiso   1.00
N271   N     0.88876   0.58932   0.02348   0.00000  Uiso   1.00
N272   N     0.67342   0.75443   0.80176   0.00000  Uiso   1.00
N273   N     0.53627   0.43671   0.50725   0.00000  Uiso   1.00
N274   N     0.92964   0.52735   0.12164   0.00000  Uiso   1.00
N275   N     0.71430   0.69246   0.89991   0.00000  Uiso   1.00
N276   N     0.57716   0.37474   0.60541   0.00000  Uiso   1.00
C277   C     0.80410   0.09892   0.06454   0.00000  Uiso   1.00
C278   C     0.74096   0.08112   0.15410   0.00000  Uiso   1.00
C279   C     0.71065   0.10068   0.28407   0.00000  Uiso   1.00
C280   C     0.65322   0.07924   0.34921   0.00000  Uiso   1.00
C281   C     0.55914   0.05765   0.49779   0.00000  Uiso   1.00
C282   C     0.80030   0.12663   0.93961   0.00000  Uiso   1.00
C283   C     0.81989   0.18446   0.88923   0.00000  Uiso   1.00
C284   C     0.81242   0.20132   0.77380   0.00000  Uiso   1.00
C285   C     0.81051   0.25037   0.58933   0.00000  Uiso   1.00
C286   C     0.83809   0.03907   0.02080   0.00000  Uiso   1.00
C287   C     0.88946   0.02327   0.03865   0.00000  Uiso   1.00
C288   C     0.91382   0.96641   0.99154   0.00000  Uiso   1.00
C289   C     0.97058   0.87950   0.93313   0.00000  Uiso   1.00
C290   C     0.75602   0.02604   0.94910   0.00000  Uiso   1.00
C291   C     0.71485   0.04154   0.09139   0.00000  Uiso   1.00
C292   C     0.65745   0.02005   0.15635   0.00000  Uiso   1.00
C293   C     0.62706   0.03958   0.28640   0.00000  Uiso   1.00
C294   C     0.77419   0.08705   0.87691   0.00000  Uiso   1.00
C295   C     0.76669   0.10383   0.76152   0.00000  Uiso   1.00
C296   C     0.78626   0.16166   0.71099   0.00000  Uiso   1.00
C297   C     0.81198   0.99948   0.95810   0.00000  Uiso   1.00
C298   C     0.83626   0.94264   0.91094   0.00000  Uiso   1.00
C299   C     0.88766   0.92676   0.92873   0.00000  Uiso   1.00
H300   H     0.82444   0.12974   0.11334   0.00000  Uiso   1.00
H301   H     0.73087   0.13132   0.33255   0.00000  Uiso   1.00
H302   H     0.84010   0.21508   0.93777   0.00000  Uiso   1.00
H303   H     0.90966   0.05391   0.08717   0.00000  Uiso   1.00
H304   H     0.61561   0.11564   0.54792   0.00000  Uiso   1.00
H305   H     0.84595   0.29223   0.71547   0.00000  Uiso   1.00
H306   H     0.99263   0.95239   0.03051   0.00000  Uiso   1.00
H307   H     0.73569   0.99523   0.90028   0.00000  Uiso   1.00
H308   H     0.63725   0.98942   0.10781   0.00000  Uiso   1.00
H309   H     0.74648   0.07318   0.71302   0.00000  Uiso   1.00
H310   H     0.81604   0.91202   0.86242   0.00000  Uiso   1.00
H311   H     0.53963   0.00047   0.36551   0.00000  Uiso   1.00
H312   H     0.76997   0.17707   0.53305   0.00000  Uiso   1.00
H313   H     0.91664   0.83722   0.84810   0.00000  Uiso   1.00
O314   O     0.51446   0.05668   0.59706   0.00000  Uiso   1.00
O315   O     0.81666   0.28836   0.50491   0.00000  Uiso   1.00
O316   O     0.00910   0.84250   0.91824   0.00000  Uiso   1.00
N317   N     0.61124   0.08932   0.47652   0.00000  Uiso   1.00
N318   N     0.82658   0.25443   0.69824   0.00000  Uiso   1.00
N319   N     0.96373   0.93671   0.99275   0.00000  Uiso   1.00
N320   N     0.57036   0.02735   0.37836   0.00000  Uiso   1.00
N321   N     0.78570   0.19246   0.60009   0.00000  Uiso   1.00
N322   N     0.92284   0.87474   0.89459   0.00000  Uiso   1.00
C323   C     0.30410   0.59892   0.06454   0.00000  Uiso   1.00
C324   C     0.24096   0.58112   0.15410   0.00000  Uiso   1.00
C325   C     0.21065   0.60068   0.28407   0.00000  Uiso   1.00
C326   C     0.15322   0.57924   0.34921   0.00000  Uiso   1.00
C327   C     0.05914   0.55765   0.49779   0.00000  Uiso   1.00
C328   C     0.30030   0.62663   0.93961   0.00000  Uiso   1.00
C329   C     0.31989   0.68446   0.88923   0.00000  Uiso   1.00
C330   C     0.31242   0.70132   0.77380   0.00000  Uiso   1.00
C331   C     0.31051   0.75037   0.58933   0.00000  Uiso   1.00
C332   C     0.33809   0.53907   0.02080   0.00000  Uiso   1.00
C333   C     0.38946   0.52327   0.03865   0.00000  Uiso   1.00
C334   C     0.41382   0.46641   0.99154   0.00000  Uiso   1.00
C335   C     0.47058   0.37950   0.93313   0.00000  Uiso   1.00
C336   C     0.25602   0.52604   0.94910   0.00000  Uiso   1.00
C337   C     0.21485   0.54154   0.09139   0.00000  Uiso   1.00
C338   C     0.15745   0.52005   0.15635   0.00000  Uiso   1.00
C339   C     0.12706   0.53958   0.28640   0.00000  Uiso   1.00
C340   C     0.27419   0.58705   0.87691   0.00000  Uiso   1.00
C341   C     0.26669   0.60383   0.76152   0.00000  Uiso   1.00
C342   C     0.28626   0.66166   0.71099   0.00000  Uiso   1.00
C343   C     0.31198   0.49948   0.95810   0.00000  Uiso   1.00
C344   C     0.33626   0.44264   0.91094   0.00000  Uiso   1.00
C345   C     0.38766   0.42676   0.92873   0.00000  Uiso   1.00
H346   H     0.32444   0.62974   0.11334   0.00000  Uiso   1.00
H347   H     0.23087   0.63132   0.33255   0.00000  Uiso   1.00
H348   H     0.34010   0.71508   0.93777   0.00000  Uiso   1.00
H349   H     0.40966   0.55391   0.08717   0.00000  Uiso   1.00
H350   H     0.11561   0.61564   0.54792   0.00000  Uiso   1.00
H351   H     0.34595   0.79223   0.71547   0.00000  Uiso   1.00
H352   H     0.49263   0.45239   0.03051   0.00000  Uiso   1.00
H353   H     0.23569   0.49523   0.90028   0.00000  Uiso   1.00
H354   H     0.13725   0.48942   0.10781   0.00000  Uiso   1.00
H355   H     0.24648   0.57318   0.71302   0.00000  Uiso   1.00
H356   H     0.31604   0.41202   0.86242   0.00000  Uiso   1.00
H357   H     0.03963   0.50047   0.36551   0.00000  Uiso   1.00
H358   H     0.26997   0.67707   0.53305   0.00000  Uiso   1.00
H359   H     0.41664   0.33722   0.84810   0.00000  Uiso   1.00
O360   O     0.01446   0.55668   0.59706   0.00000  Uiso   1.00
O361   O     0.31666   0.78836   0.50491   0.00000  Uiso   1.00
O362   O     0.50910   0.34250   0.91824   0.00000  Uiso   1.00
N363   N     0.11124   0.58932   0.47652   0.00000  Uiso   1.00
N364   N     0.32658   0.75443   0.69824   0.00000  Uiso   1.00
N365   N     0.46373   0.43671   0.99275   0.00000  Uiso   1.00
N366   N     0.07036   0.52735   0.37836   0.00000  Uiso   1.00
N367   N     0.28570   0.69246   0.60009   0.00000  Uiso   1.00
N368   N     0.42284   0.37474   0.89459   0.00000  Uiso   1.00
