data_job_05408
_audit_creation_date              2018-12-19
_audit_creation_method            'Materials Studio'
_symmetry_space_group_name_H-M    'P1'
_symmetry_Int_Tables_number       1
_symmetry_cell_setting            triclinic
loop_
_symmetry_equiv_pos_as_xyz
  x,y,z
_cell_length_a                    30.5131
_cell_length_b                    12.4502
_cell_length_c                    12.4877
_cell_angle_alpha                 90.0000
_cell_angle_beta                  90.0000
_cell_angle_gamma                 90.0000
loop_
_atom_site_label
_atom_site_type_symbol
_atom_site_fract_x
_atom_site_fract_y
_atom_site_fract_z
_atom_site_U_iso_or_equiv
_atom_site_adp_type
_atom_site_occupancy
C1     C     0.87409   0.12005   0.17579   0.00000  Uiso   1.00
C2     C     0.92393   0.12928   0.17693   0.00000  Uiso   1.00
C3     C     0.95148   0.11035   0.09056   0.00000  Uiso   1.00
C4     C     0.99612   0.12314   0.10788   0.00000  Uiso   1.00
C5     C     0.07099   0.13287   0.09441   0.00000  Uiso   1.00
C6     C     0.85675   0.22886   0.21253   0.00000  Uiso   1.00
C7     C     0.82783   0.29363   0.15610   0.00000  Uiso   1.00
C8     C     0.81592   0.39024   0.20340   0.00000  Uiso   1.00
C9     C     0.78648   0.55451   0.24523   0.00000  Uiso   1.00
C10    C     0.86235   0.04068   0.26426   0.00000  Uiso   1.00
C11    C     0.83812   0.94725   0.25132   0.00000  Uiso   1.00
C12    C     0.83092   0.88544   0.34218   0.00000  Uiso   1.00
C13    C     0.81017   0.75754   0.46431   0.00000  Uiso   1.00
C14    C     0.90438   0.17645   0.36016   0.00000  Uiso   1.00
C15    C     0.94037   0.15992   0.27708   0.00000  Uiso   1.00
C16    C     0.98499   0.17274   0.29454   0.00000  Uiso   1.00
C17    C     0.01260   0.15383   0.20821   0.00000  Uiso   1.00
C18    C     0.87320   0.25949   0.31267   0.00000  Uiso   1.00
C19    C     0.86133   0.35602   0.36008   0.00000  Uiso   1.00
C20    C     0.83240   0.42093   0.30372   0.00000  Uiso   1.00
C21    C     0.87880   0.07131   0.36440   0.00000  Uiso   1.00
C22    C     0.87163   0.00964   0.45530   0.00000  Uiso   1.00
C23    C     0.84740   0.91613   0.44250   0.00000  Uiso   1.00
H24    H     0.86129   0.09621   0.09783   0.00000  Uiso   1.00
H25    H     0.93874   0.08665   0.01307   0.00000  Uiso   1.00
H26    H     0.81510   0.26990   0.07861   0.00000  Uiso   1.00
H27    H     0.82540   0.92357   0.17381   0.00000  Uiso   1.00
H28    H     0.03186   0.08960   0.96325   0.00000  Uiso   1.00
H29    H     0.77115   0.47596   0.10145   0.00000  Uiso   1.00
H30    H     0.79287   0.74566   0.30221   0.00000  Uiso   1.00
H31    H     0.91718   0.20030   0.43813   0.00000  Uiso   1.00
H32    H     0.99770   0.19645   0.37204   0.00000  Uiso   1.00
H33    H     0.87406   0.37970   0.43758   0.00000  Uiso   1.00
H34    H     0.88436   0.03337   0.53278   0.00000  Uiso   1.00
H35    H     0.07972   0.17872   0.25460   0.00000  Uiso   1.00
H36    H     0.81901   0.56509   0.39281   0.00000  Uiso   1.00
H37    H     0.84072   0.83479   0.59356   0.00000  Uiso   1.00
O38    O     0.10775   0.12979   0.05930   0.00000  Uiso   1.00
O39    O     0.76570   0.63667   0.24063   0.00000  Uiso   1.00
O40    O     0.79419   0.67853   0.50401   0.00000  Uiso   1.00
N41    N     0.03207   0.11108   0.04090   0.00000  Uiso   1.00
N42    N     0.78833   0.47232   0.17010   0.00000  Uiso   1.00
N43    N     0.80862   0.78956   0.35779   0.00000  Uiso   1.00
N44    N     0.05783   0.15904   0.19767   0.00000  Uiso   1.00
N45    N     0.81408   0.52027   0.32687   0.00000  Uiso   1.00
N46    N     0.83438   0.83752   0.51457   0.00000  Uiso   1.00
C47    C     0.62591   0.37995   0.17579   0.00000  Uiso   1.00
C48    C     0.57607   0.37072   0.17693   0.00000  Uiso   1.00
C49    C     0.54852   0.38965   0.09056   0.00000  Uiso   1.00
C50    C     0.50388   0.37686   0.10788   0.00000  Uiso   1.00
C51    C     0.42901   0.36713   0.09441   0.00000  Uiso   1.00
C52    C     0.64325   0.27114   0.21253   0.00000  Uiso   1.00
C53    C     0.67217   0.20637   0.15610   0.00000  Uiso   1.00
C54    C     0.68408   0.10976   0.20340   0.00000  Uiso   1.00
C55    C     0.71352   0.94549   0.24523   0.00000  Uiso   1.00
C56    C     0.63765   0.45932   0.26426   0.00000  Uiso   1.00
C57    C     0.66188   0.55275   0.25132   0.00000  Uiso   1.00
C58    C     0.66908   0.61456   0.34218   0.00000  Uiso   1.00
C59    C     0.68983   0.74246   0.46431   0.00000  Uiso   1.00
C60    C     0.59562   0.32355   0.36016   0.00000  Uiso   1.00
C61    C     0.55963   0.34008   0.27708   0.00000  Uiso   1.00
C62    C     0.51501   0.32726   0.29454   0.00000  Uiso   1.00
C63    C     0.48740   0.34617   0.20821   0.00000  Uiso   1.00
C64    C     0.62680   0.24051   0.31267   0.00000  Uiso   1.00
C65    C     0.63867   0.14398   0.36008   0.00000  Uiso   1.00
C66    C     0.66760   0.07907   0.30372   0.00000  Uiso   1.00
C67    C     0.62120   0.42869   0.36440   0.00000  Uiso   1.00
C68    C     0.62837   0.49036   0.45530   0.00000  Uiso   1.00
C69    C     0.65260   0.58387   0.44250   0.00000  Uiso   1.00
H70    H     0.63871   0.40379   0.09783   0.00000  Uiso   1.00
H71    H     0.56126   0.41335   0.01307   0.00000  Uiso   1.00
H72    H     0.68490   0.23010   0.07861   0.00000  Uiso   1.00
H73    H     0.67460   0.57643   0.17381   0.00000  Uiso   1.00
H74    H     0.46814   0.41040   0.96325   0.00000  Uiso   1.00
H75    H     0.72885   0.02404   0.10145   0.00000  Uiso   1.00
H76    H     0.70713   0.75434   0.30221   0.00000  Uiso   1.00
H77    H     0.58282   0.29970   0.43813   0.00000  Uiso   1.00
H78    H     0.50230   0.30355   0.37204   0.00000  Uiso   1.00
H79    H     0.62594   0.12030   0.43758   0.00000  Uiso   1.00
H80    H     0.61564   0.46663   0.53278   0.00000  Uiso   1.00
H81    H     0.42028   0.32128   0.25460   0.00000  Uiso   1.00
H82    H     0.68099   0.93491   0.39281   0.00000  Uiso   1.00
H83    H     0.65928   0.66521   0.59356   0.00000  Uiso   1.00
O84    O     0.39225   0.37021   0.05930   0.00000  Uiso   1.00
O85    O     0.73430   0.86333   0.24063   0.00000  Uiso   1.00
O86    O     0.70581   0.82147   0.50401   0.00000  Uiso   1.00
N87    N     0.46793   0.38892   0.04090   0.00000  Uiso   1.00
N88    N     0.71167   0.02768   0.17010   0.00000  Uiso   1.00
N89    N     0.69138   0.71044   0.35779   0.00000  Uiso   1.00
N90    N     0.44217   0.34096   0.19767   0.00000  Uiso   1.00
N91    N     0.68592   0.97973   0.32687   0.00000  Uiso   1.00
N92    N     0.66562   0.66248   0.51457   0.00000  Uiso   1.00
C93    C     0.12591   0.62005   0.32421   0.00000  Uiso   1.00
C94    C     0.07607   0.62928   0.32307   0.00000  Uiso   1.00
C95    C     0.04852   0.61035   0.40944   0.00000  Uiso   1.00
C96    C     0.00388   0.62314   0.39212   0.00000  Uiso   1.00
C97    C     0.92901   0.63287   0.40559   0.00000  Uiso   1.00
C98    C     0.14325   0.72886   0.28747   0.00000  Uiso   1.00
C99    C     0.17217   0.79363   0.34390   0.00000  Uiso   1.00
C100   C     0.18408   0.89024   0.29660   0.00000  Uiso   1.00
C101   C     0.21352   0.05451   0.25477   0.00000  Uiso   1.00
C102   C     0.13765   0.54068   0.23574   0.00000  Uiso   1.00
C103   C     0.16188   0.44725   0.24868   0.00000  Uiso   1.00
C104   C     0.16908   0.38544   0.15782   0.00000  Uiso   1.00
C105   C     0.18983   0.25754   0.03569   0.00000  Uiso   1.00
C106   C     0.09562   0.67645   0.13984   0.00000  Uiso   1.00
C107   C     0.05963   0.65992   0.22292   0.00000  Uiso   1.00
C108   C     0.01501   0.67274   0.20546   0.00000  Uiso   1.00
C109   C     0.98740   0.65383   0.29179   0.00000  Uiso   1.00
C110   C     0.12680   0.75949   0.18733   0.00000  Uiso   1.00
C111   C     0.13867   0.85602   0.13992   0.00000  Uiso   1.00
C112   C     0.16760   0.92093   0.19628   0.00000  Uiso   1.00
C113   C     0.12120   0.57131   0.13560   0.00000  Uiso   1.00
C114   C     0.12837   0.50964   0.04470   0.00000  Uiso   1.00
C115   C     0.15260   0.41613   0.05750   0.00000  Uiso   1.00
H116   H     0.13871   0.59621   0.40217   0.00000  Uiso   1.00
H117   H     0.06126   0.58665   0.48693   0.00000  Uiso   1.00
H118   H     0.18490   0.76990   0.42139   0.00000  Uiso   1.00
H119   H     0.17460   0.42357   0.32619   0.00000  Uiso   1.00
H120   H     0.96814   0.58960   0.53675   0.00000  Uiso   1.00
H121   H     0.22885   0.97596   0.39855   0.00000  Uiso   1.00
H122   H     0.20713   0.24566   0.19779   0.00000  Uiso   1.00
H123   H     0.08282   0.70030   0.06187   0.00000  Uiso   1.00
H124   H     0.00230   0.69645   0.12796   0.00000  Uiso   1.00
H125   H     0.12594   0.87970   0.06242   0.00000  Uiso   1.00
H126   H     0.11564   0.53337   0.96722   0.00000  Uiso   1.00
H127   H     0.92028   0.67872   0.24540   0.00000  Uiso   1.00
H128   H     0.18099   0.06509   0.10719   0.00000  Uiso   1.00
H129   H     0.15928   0.33479   0.90644   0.00000  Uiso   1.00
O130   O     0.89225   0.62979   0.44070   0.00000  Uiso   1.00
O131   O     0.23430   0.13667   0.25937   0.00000  Uiso   1.00
O132   O     0.20581   0.17853   0.99599   0.00000  Uiso   1.00
N133   N     0.96793   0.61108   0.45910   0.00000  Uiso   1.00
N134   N     0.21167   0.97232   0.32990   0.00000  Uiso   1.00
N135   N     0.19138   0.28956   0.14221   0.00000  Uiso   1.00
N136   N     0.94217   0.65904   0.30233   0.00000  Uiso   1.00
N137   N     0.18592   0.02027   0.17313   0.00000  Uiso   1.00
N138   N     0.16562   0.33752   0.98543   0.00000  Uiso   1.00
C139   C     0.37409   0.87995   0.32421   0.00000  Uiso   1.00
C140   C     0.42393   0.87072   0.32307   0.00000  Uiso   1.00
C141   C     0.45148   0.88965   0.40944   0.00000  Uiso   1.00
C142   C     0.49612   0.87686   0.39212   0.00000  Uiso   1.00
C143   C     0.57099   0.86713   0.40559   0.00000  Uiso   1.00
C144   C     0.35675   0.77114   0.28747   0.00000  Uiso   1.00
C145   C     0.32783   0.70637   0.34390   0.00000  Uiso   1.00
C146   C     0.31592   0.60976   0.29660   0.00000  Uiso   1.00
C147   C     0.28648   0.44549   0.25477   0.00000  Uiso   1.00
C148   C     0.36235   0.95932   0.23574   0.00000  Uiso   1.00
C149   C     0.33812   0.05275   0.24868   0.00000  Uiso   1.00
C150   C     0.33092   0.11456   0.15782   0.00000  Uiso   1.00
C151   C     0.31017   0.24246   0.03569   0.00000  Uiso   1.00
C152   C     0.40438   0.82355   0.13984   0.00000  Uiso   1.00
C153   C     0.44037   0.84008   0.22292   0.00000  Uiso   1.00
C154   C     0.48499   0.82726   0.20546   0.00000  Uiso   1.00
C155   C     0.51260   0.84617   0.29179   0.00000  Uiso   1.00
C156   C     0.37320   0.74051   0.18733   0.00000  Uiso   1.00
C157   C     0.36133   0.64398   0.13992   0.00000  Uiso   1.00
C158   C     0.33240   0.57907   0.19628   0.00000  Uiso   1.00
C159   C     0.37880   0.92869   0.13560   0.00000  Uiso   1.00
C160   C     0.37163   0.99036   0.04470   0.00000  Uiso   1.00
C161   C     0.34740   0.08387   0.05750   0.00000  Uiso   1.00
H162   H     0.36129   0.90379   0.40217   0.00000  Uiso   1.00
H163   H     0.43874   0.91335   0.48693   0.00000  Uiso   1.00
H164   H     0.31510   0.73010   0.42139   0.00000  Uiso   1.00
H165   H     0.32540   0.07643   0.32619   0.00000  Uiso   1.00
H166   H     0.53186   0.91040   0.53675   0.00000  Uiso   1.00
H167   H     0.27115   0.52404   0.39855   0.00000  Uiso   1.00
H168   H     0.29287   0.25434   0.19779   0.00000  Uiso   1.00
H169   H     0.41718   0.79970   0.06187   0.00000  Uiso   1.00
H170   H     0.49770   0.80355   0.12796   0.00000  Uiso   1.00
H171   H     0.37406   0.62030   0.06242   0.00000  Uiso   1.00
H172   H     0.38436   0.96663   0.96722   0.00000  Uiso   1.00
H173   H     0.57972   0.82128   0.24540   0.00000  Uiso   1.00
H174   H     0.31901   0.43491   0.10719   0.00000  Uiso   1.00
H175   H     0.34072   0.16521   0.90644   0.00000  Uiso   1.00
O176   O     0.60775   0.87021   0.44070   0.00000  Uiso   1.00
O177   O     0.26570   0.36333   0.25937   0.00000  Uiso   1.00
O178   O     0.29419   0.32147   0.99599   0.00000  Uiso   1.00
N179   N     0.53207   0.88892   0.45910   0.00000  Uiso   1.00
N180   N     0.28833   0.52768   0.32990   0.00000  Uiso   1.00
N181   N     0.30862   0.21044   0.14221   0.00000  Uiso   1.00
N182   N     0.55783   0.84096   0.30233   0.00000  Uiso   1.00
N183   N     0.31408   0.47973   0.17313   0.00000  Uiso   1.00
N184   N     0.33438   0.16248   0.98543   0.00000  Uiso   1.00
C185   C     0.12591   0.87995   0.82421   0.00000  Uiso   1.00
C186   C     0.07607   0.87072   0.82307   0.00000  Uiso   1.00
C187   C     0.04852   0.88965   0.90944   0.00000  Uiso   1.00
C188   C     0.00388   0.87686   0.89212   0.00000  Uiso   1.00
C189   C     0.92901   0.86713   0.90559   0.00000  Uiso   1.00
C190   C     0.14325   0.77114   0.78747   0.00000  Uiso   1.00
C191   C     0.17217   0.70637   0.84390   0.00000  Uiso   1.00
C192   C     0.18408   0.60976   0.79660   0.00000  Uiso   1.00
C193   C     0.21352   0.44549   0.75477   0.00000  Uiso   1.00
C194   C     0.13765   0.95932   0.73574   0.00000  Uiso   1.00
C195   C     0.16188   0.05275   0.74868   0.00000  Uiso   1.00
C196   C     0.16908   0.11456   0.65782   0.00000  Uiso   1.00
C197   C     0.18983   0.24246   0.53569   0.00000  Uiso   1.00
C198   C     0.09562   0.82355   0.63984   0.00000  Uiso   1.00
C199   C     0.05963   0.84008   0.72292   0.00000  Uiso   1.00
C200   C     0.01501   0.82726   0.70546   0.00000  Uiso   1.00
C201   C     0.98740   0.84617   0.79179   0.00000  Uiso   1.00
C202   C     0.12680   0.74051   0.68733   0.00000  Uiso   1.00
C203   C     0.13867   0.64398   0.63992   0.00000  Uiso   1.00
C204   C     0.16760   0.57907   0.69628   0.00000  Uiso   1.00
C205   C     0.12120   0.92869   0.63560   0.00000  Uiso   1.00
C206   C     0.12837   0.99036   0.54470   0.00000  Uiso   1.00
C207   C     0.15260   0.08387   0.55750   0.00000  Uiso   1.00
H208   H     0.13871   0.90379   0.90217   0.00000  Uiso   1.00
H209   H     0.06126   0.91335   0.98693   0.00000  Uiso   1.00
H210   H     0.18490   0.73010   0.92139   0.00000  Uiso   1.00
H211   H     0.17460   0.07643   0.82619   0.00000  Uiso   1.00
H212   H     0.96814   0.91040   0.03675   0.00000  Uiso   1.00
H213   H     0.22885   0.52404   0.89855   0.00000  Uiso   1.00
H214   H     0.20713   0.25434   0.69779   0.00000  Uiso   1.00
H215   H     0.08282   0.79970   0.56187   0.00000  Uiso   1.00
H216   H     0.00230   0.80355   0.62796   0.00000  Uiso   1.00
H217   H     0.12594   0.62030   0.56242   0.00000  Uiso   1.00
H218   H     0.11564   0.96663   0.46722   0.00000  Uiso   1.00
H219   H     0.92028   0.82128   0.74540   0.00000  Uiso   1.00
H220   H     0.18099   0.43491   0.60719   0.00000  Uiso   1.00
H221   H     0.15928   0.16521   0.40644   0.00000  Uiso   1.00
O222   O     0.89225   0.87021   0.94070   0.00000  Uiso   1.00
O223   O     0.23430   0.36333   0.75937   0.00000  Uiso   1.00
O224   O     0.20581   0.32147   0.49599   0.00000  Uiso   1.00
N225   N     0.96793   0.88892   0.95910   0.00000  Uiso   1.00
N226   N     0.21167   0.52768   0.82990   0.00000  Uiso   1.00
N227   N     0.19138   0.21044   0.64221   0.00000  Uiso   1.00
N228   N     0.94217   0.84096   0.80233   0.00000  Uiso   1.00
N229   N     0.18592   0.47973   0.67313   0.00000  Uiso   1.00
N230   N     0.16562   0.16248   0.48543   0.00000  Uiso   1.00
C231   C     0.37409   0.62005   0.82421   0.00000  Uiso   1.00
C232   C     0.42393   0.62928   0.82307   0.00000  Uiso   1.00
C233   C     0.45148   0.61035   0.90944   0.00000  Uiso   1.00
C234   C     0.49612   0.62314   0.89212   0.00000  Uiso   1.00
C235   C     0.57099   0.63287   0.90559   0.00000  Uiso   1.00
C236   C     0.35675   0.72886   0.78747   0.00000  Uiso   1.00
C237   C     0.32783   0.79363   0.84390   0.00000  Uiso   1.00
C238   C     0.31592   0.89024   0.79660   0.00000  Uiso   1.00
C239   C     0.28648   0.05451   0.75477   0.00000  Uiso   1.00
C240   C     0.36235   0.54068   0.73574   0.00000  Uiso   1.00
C241   C     0.33812   0.44725   0.74868   0.00000  Uiso   1.00
C242   C     0.33092   0.38544   0.65782   0.00000  Uiso   1.00
C243   C     0.31017   0.25754   0.53569   0.00000  Uiso   1.00
C244   C     0.40438   0.67645   0.63984   0.00000  Uiso   1.00
C245   C     0.44037   0.65992   0.72292   0.00000  Uiso   1.00
C246   C     0.48499   0.67274   0.70546   0.00000  Uiso   1.00
C247   C     0.51260   0.65383   0.79179   0.00000  Uiso   1.00
C248   C     0.37320   0.75949   0.68733   0.00000  Uiso   1.00
C249   C     0.36133   0.85602   0.63992   0.00000  Uiso   1.00
C250   C     0.33240   0.92093   0.69628   0.00000  Uiso   1.00
C251   C     0.37880   0.57131   0.63560   0.00000  Uiso   1.00
C252   C     0.37163   0.50964   0.54470   0.00000  Uiso   1.00
C253   C     0.34740   0.41613   0.55750   0.00000  Uiso   1.00
H254   H     0.36129   0.59621   0.90217   0.00000  Uiso   1.00
H255   H     0.43874   0.58665   0.98693   0.00000  Uiso   1.00
H256   H     0.31510   0.76990   0.92139   0.00000  Uiso   1.00
H257   H     0.32540   0.42357   0.82619   0.00000  Uiso   1.00
H258   H     0.53186   0.58960   0.03675   0.00000  Uiso   1.00
H259   H     0.27115   0.97596   0.89855   0.00000  Uiso   1.00
H260   H     0.29287   0.24566   0.69779   0.00000  Uiso   1.00
H261   H     0.41718   0.70030   0.56187   0.00000  Uiso   1.00
H262   H     0.49770   0.69645   0.62796   0.00000  Uiso   1.00
H263   H     0.37406   0.87970   0.56242   0.00000  Uiso   1.00
H264   H     0.38436   0.53337   0.46722   0.00000  Uiso   1.00
H265   H     0.57972   0.67872   0.74540   0.00000  Uiso   1.00
H266   H     0.31901   0.06509   0.60719   0.00000  Uiso   1.00
H267   H     0.34072   0.33479   0.40644   0.00000  Uiso   1.00
O268   O     0.60775   0.62979   0.94070   0.00000  Uiso   1.00
O269   O     0.26570   0.13667   0.75937   0.00000  Uiso   1.00
O270   O     0.29419   0.17853   0.49599   0.00000  Uiso   1.00
N271   N     0.53207   0.61108   0.95910   0.00000  Uiso   1.00
N272   N     0.28833   0.97232   0.82990   0.00000  Uiso   1.00
N273   N     0.30862   0.28956   0.64221   0.00000  Uiso   1.00
N274   N     0.55783   0.65904   0.80233   0.00000  Uiso   1.00
N275   N     0.31408   0.02027   0.67313   0.00000  Uiso   1.00
N276   N     0.33438   0.33752   0.48543   0.00000  Uiso   1.00
C277   C     0.87409   0.37995   0.67579   0.00000  Uiso   1.00
C278   C     0.92393   0.37072   0.67693   0.00000  Uiso   1.00
C279   C     0.95148   0.38965   0.59056   0.00000  Uiso   1.00
C280   C     0.99612   0.37686   0.60788   0.00000  Uiso   1.00
C281   C     0.07099   0.36713   0.59441   0.00000  Uiso   1.00
C282   C     0.85675   0.27114   0.71253   0.00000  Uiso   1.00
C283   C     0.82783   0.20637   0.65610   0.00000  Uiso   1.00
C284   C     0.81592   0.10976   0.70340   0.00000  Uiso   1.00
C285   C     0.78648   0.94549   0.74523   0.00000  Uiso   1.00
C286   C     0.86235   0.45932   0.76426   0.00000  Uiso   1.00
C287   C     0.83812   0.55275   0.75132   0.00000  Uiso   1.00
C288   C     0.83092   0.61456   0.84218   0.00000  Uiso   1.00
C289   C     0.81017   0.74246   0.96431   0.00000  Uiso   1.00
C290   C     0.90438   0.32355   0.86016   0.00000  Uiso   1.00
C291   C     0.94037   0.34008   0.77708   0.00000  Uiso   1.00
C292   C     0.98499   0.32726   0.79454   0.00000  Uiso   1.00
C293   C     0.01260   0.34617   0.70821   0.00000  Uiso   1.00
C294   C     0.87320   0.24051   0.81267   0.00000  Uiso   1.00
C295   C     0.86133   0.14398   0.86008   0.00000  Uiso   1.00
C296   C     0.83240   0.07907   0.80372   0.00000  Uiso   1.00
C297   C     0.87880   0.42869   0.86440   0.00000  Uiso   1.00
C298   C     0.87163   0.49036   0.95530   0.00000  Uiso   1.00
C299   C     0.84740   0.58387   0.94250   0.00000  Uiso   1.00
H300   H     0.86129   0.40379   0.59783   0.00000  Uiso   1.00
H301   H     0.93874   0.41335   0.51307   0.00000  Uiso   1.00
H302   H     0.81510   0.23010   0.57861   0.00000  Uiso   1.00
H303   H     0.82540   0.57643   0.67381   0.00000  Uiso   1.00
H304   H     0.03186   0.41040   0.46325   0.00000  Uiso   1.00
H305   H     0.77115   0.02404   0.60145   0.00000  Uiso   1.00
H306   H     0.79287   0.75434   0.80221   0.00000  Uiso   1.00
H307   H     0.91718   0.29970   0.93813   0.00000  Uiso   1.00
H308   H     0.99770   0.30355   0.87204   0.00000  Uiso   1.00
H309   H     0.87406   0.12030   0.93758   0.00000  Uiso   1.00
H310   H     0.88436   0.46663   0.03278   0.00000  Uiso   1.00
H311   H     0.07972   0.32128   0.75460   0.00000  Uiso   1.00
H312   H     0.81901   0.93491   0.89281   0.00000  Uiso   1.00
H313   H     0.84072   0.66521   0.09356   0.00000  Uiso   1.00
O314   O     0.10775   0.37021   0.55930   0.00000  Uiso   1.00
O315   O     0.76570   0.86333   0.74063   0.00000  Uiso   1.00
O316   O     0.79419   0.82147   0.00401   0.00000  Uiso   1.00
N317   N     0.03207   0.38892   0.54090   0.00000  Uiso   1.00
N318   N     0.78833   0.02768   0.67010   0.00000  Uiso   1.00
N319   N     0.80862   0.71044   0.85779   0.00000  Uiso   1.00
N320   N     0.05783   0.34096   0.69767   0.00000  Uiso   1.00
N321   N     0.81408   0.97973   0.82687   0.00000  Uiso   1.00
N322   N     0.83438   0.66248   0.01457   0.00000  Uiso   1.00
C323   C     0.62591   0.12005   0.67579   0.00000  Uiso   1.00
C324   C     0.57607   0.12928   0.67693   0.00000  Uiso   1.00
C325   C     0.54852   0.11035   0.59056   0.00000  Uiso   1.00
C326   C     0.50388   0.12314   0.60788   0.00000  Uiso   1.00
C327   C     0.42901   0.13287   0.59441   0.00000  Uiso   1.00
C328   C     0.64325   0.22886   0.71253   0.00000  Uiso   1.00
C329   C     0.67217   0.29363   0.65610   0.00000  Uiso   1.00
C330   C     0.68408   0.39024   0.70340   0.00000  Uiso   1.00
C331   C     0.71352   0.55451   0.74523   0.00000  Uiso   1.00
C332   C     0.63765   0.04068   0.76426   0.00000  Uiso   1.00
C333   C     0.66188   0.94725   0.75132   0.00000  Uiso   1.00
C334   C     0.66908   0.88544   0.84218   0.00000  Uiso   1.00
C335   C     0.68983   0.75754   0.96431   0.00000  Uiso   1.00
C336   C     0.59562   0.17645   0.86016   0.00000  Uiso   1.00
C337   C     0.55963   0.15992   0.77708   0.00000  Uiso   1.00
C338   C     0.51501   0.17274   0.79454   0.00000  Uiso   1.00
C339   C     0.48740   0.15383   0.70821   0.00000  Uiso   1.00
C340   C     0.62680   0.25949   0.81267   0.00000  Uiso   1.00
C341   C     0.63867   0.35602   0.86008   0.00000  Uiso   1.00
C342   C     0.66760   0.42093   0.80372   0.00000  Uiso   1.00
C343   C     0.62120   0.07131   0.86440   0.00000  Uiso   1.00
C344   C     0.62837   0.00964   0.95530   0.00000  Uiso   1.00
C345   C     0.65260   0.91613   0.94250   0.00000  Uiso   1.00
H346   H     0.63871   0.09621   0.59783   0.00000  Uiso   1.00
H347   H     0.56126   0.08665   0.51307   0.00000  Uiso   1.00
H348   H     0.68490   0.26990   0.57861   0.00000  Uiso   1.00
H349   H     0.67460   0.92357   0.67381   0.00000  Uiso   1.00
H350   H     0.46814   0.08960   0.46325   0.00000  Uiso   1.00
H351   H     0.72885   0.47596   0.60145   0.00000  Uiso   1.00
H352   H     0.70713   0.74566   0.80221   0.00000  Uiso   1.00
H353   H     0.58282   0.20030   0.93813   0.00000  Uiso   1.00
H354   H     0.50230   0.19645   0.87204   0.00000  Uiso   1.00
H355   H     0.62594   0.37970   0.93758   0.00000  Uiso   1.00
H356   H     0.61564   0.03337   0.03278   0.00000  Uiso   1.00
H357   H     0.42028   0.17872   0.75460   0.00000  Uiso   1.00
H358   H     0.68099   0.56509   0.89281   0.00000  Uiso   1.00
H359   H     0.65928   0.83479   0.09356   0.00000  Uiso   1.00
O360   O     0.39225   0.12979   0.55930   0.00000  Uiso   1.00
O361   O     0.73430   0.63667   0.74063   0.00000  Uiso   1.00
O362   O     0.70581   0.67853   0.00401   0.00000  Uiso   1.00
N363   N     0.46793   0.11108   0.54090   0.00000  Uiso   1.00
N364   N     0.71167   0.47232   0.67010   0.00000  Uiso   1.00
N365   N     0.69138   0.78956   0.85779   0.00000  Uiso   1.00
N366   N     0.44217   0.15904   0.69767   0.00000  Uiso   1.00
N367   N     0.68592   0.52027   0.82687   0.00000  Uiso   1.00
N368   N     0.66562   0.83752   0.01457   0.00000  Uiso   1.00
