data_job_05488
_audit_creation_date              2018-12-19
_audit_creation_method            'Materials Studio'
_symmetry_space_group_name_H-M    'P1'
_symmetry_Int_Tables_number       1
_symmetry_cell_setting            triclinic
loop_
_symmetry_equiv_pos_as_xyz
  x,y,z
_cell_length_a                    36.5157
_cell_length_b                    12.7192
_cell_length_c                    11.5571
_cell_angle_alpha                 90.0000
_cell_angle_beta                  90.0000
_cell_angle_gamma                 90.0000
loop_
_atom_site_label
_atom_site_type_symbol
_atom_site_fract_x
_atom_site_fract_y
_atom_site_fract_z
_atom_site_U_iso_or_equiv
_atom_site_adp_type
_atom_site_occupancy
C1     C     0.16559   0.76557   0.40914   0.00000  Uiso   1.00
C2     C     0.17309   0.85743   0.32772   0.00000  Uiso   1.00
C3     C     0.20589   0.91192   0.31869   0.00000  Uiso   1.00
C4     C     0.20724   0.99352   0.23902   0.00000  Uiso   1.00
C5     C     0.22350   0.13221   0.12300   0.00000  Uiso   1.00
C6     C     0.13238   0.79735   0.48109   0.00000  Uiso   1.00
C7     C     0.13096   0.80132   0.60101   0.00000  Uiso   1.00
C8     C     0.09803   0.83234   0.65044   0.00000  Uiso   1.00
C9     C     0.05108   0.87769   0.77253   0.00000  Uiso   1.00
C10    C     0.15297   0.67486   0.33266   0.00000  Uiso   1.00
C11    C     0.16884   0.57581   0.32780   0.00000  Uiso   1.00
C12    C     0.15324   0.50369   0.25228   0.00000  Uiso   1.00
C13    C     0.13825   0.35885   0.14392   0.00000  Uiso   1.00
C14    C     0.10965   0.81359   0.28369   0.00000  Uiso   1.00
C15    C     0.14271   0.88351   0.25959   0.00000  Uiso   1.00
C16    C     0.14400   0.96505   0.17990   0.00000  Uiso   1.00
C17    C     0.17680   0.01965   0.17075   0.00000  Uiso   1.00
C18    C     0.10200   0.82343   0.41295   0.00000  Uiso   1.00
C19    C     0.06906   0.85445   0.46222   0.00000  Uiso   1.00
C20    C     0.06759   0.85847   0.58218   0.00000  Uiso   1.00
C21    C     0.12258   0.70094   0.26452   0.00000  Uiso   1.00
C22    C     0.10695   0.62895   0.18900   0.00000  Uiso   1.00
C23    C     0.12280   0.52982   0.18403   0.00000  Uiso   1.00
H24    H     0.18925   0.74527   0.46219   0.00000  Uiso   1.00
H25    H     0.22940   0.89171   0.37145   0.00000  Uiso   1.00
H26    H     0.15447   0.78112   0.65371   0.00000  Uiso   1.00
H27    H     0.19235   0.55566   0.38054   0.00000  Uiso   1.00
H28    H     0.26052   0.06561   0.24082   0.00000  Uiso   1.00
H29    H     0.10252   0.83238   0.83600   0.00000  Uiso   1.00
H30    H     0.18240   0.35694   0.25997   0.00000  Uiso   1.00
H31    H     0.08600   0.83390   0.23065   0.00000  Uiso   1.00
H32    H     0.12048   0.98522   0.12718   0.00000  Uiso   1.00
H33    H     0.04556   0.87462   0.40946   0.00000  Uiso   1.00
H34    H     0.08344   0.64916   0.13629   0.00000  Uiso   1.00
H35    H     0.17211   0.14150   0.04257   0.00000  Uiso   1.00
H36    H     0.01412   0.90827   0.63776   0.00000  Uiso   1.00
H37    H     0.09400   0.43283   0.06172   0.00000  Uiso   1.00
O38    O     0.24086   0.20152   0.07784   0.00000  Uiso   1.00
O39    O     0.03358   0.89551   0.85869   0.00000  Uiso   1.00
O40    O     0.13838   0.27175   0.10295   0.00000  Uiso   1.00
N41    N     0.23498   0.06269   0.20834   0.00000  Uiso   1.00
N42    N     0.08727   0.84465   0.76480   0.00000  Uiso   1.00
N43    N     0.16194   0.40015   0.22628   0.00000  Uiso   1.00
N44    N     0.18741   0.10353   0.10166   0.00000  Uiso   1.00
N45    N     0.03970   0.88549   0.65813   0.00000  Uiso   1.00
N46    N     0.11437   0.44098   0.11961   0.00000  Uiso   1.00
C47    C     0.66559   0.26557   0.40914   0.00000  Uiso   1.00
C48    C     0.67309   0.35743   0.32772   0.00000  Uiso   1.00
C49    C     0.70589   0.41192   0.31869   0.00000  Uiso   1.00
C50    C     0.70724   0.49352   0.23902   0.00000  Uiso   1.00
C51    C     0.72350   0.63221   0.12300   0.00000  Uiso   1.00
C52    C     0.63238   0.29735   0.48109   0.00000  Uiso   1.00
C53    C     0.63096   0.30132   0.60101   0.00000  Uiso   1.00
C54    C     0.59803   0.33234   0.65044   0.00000  Uiso   1.00
C55    C     0.55108   0.37769   0.77253   0.00000  Uiso   1.00
C56    C     0.65297   0.17486   0.33266   0.00000  Uiso   1.00
C57    C     0.66884   0.07581   0.32780   0.00000  Uiso   1.00
C58    C     0.65324   0.00369   0.25228   0.00000  Uiso   1.00
C59    C     0.63825   0.85885   0.14392   0.00000  Uiso   1.00
C60    C     0.60965   0.31359   0.28369   0.00000  Uiso   1.00
C61    C     0.64271   0.38351   0.25959   0.00000  Uiso   1.00
C62    C     0.64400   0.46505   0.17990   0.00000  Uiso   1.00
C63    C     0.67680   0.51965   0.17075   0.00000  Uiso   1.00
C64    C     0.60200   0.32343   0.41295   0.00000  Uiso   1.00
C65    C     0.56906   0.35445   0.46222   0.00000  Uiso   1.00
C66    C     0.56759   0.35847   0.58218   0.00000  Uiso   1.00
C67    C     0.62258   0.20094   0.26452   0.00000  Uiso   1.00
C68    C     0.60695   0.12895   0.18900   0.00000  Uiso   1.00
C69    C     0.62280   0.02982   0.18403   0.00000  Uiso   1.00
H70    H     0.68925   0.24527   0.46219   0.00000  Uiso   1.00
H71    H     0.72940   0.39171   0.37145   0.00000  Uiso   1.00
H72    H     0.65447   0.28112   0.65371   0.00000  Uiso   1.00
H73    H     0.69235   0.05566   0.38054   0.00000  Uiso   1.00
H74    H     0.76052   0.56561   0.24082   0.00000  Uiso   1.00
H75    H     0.60252   0.33238   0.83600   0.00000  Uiso   1.00
H76    H     0.68240   0.85694   0.25997   0.00000  Uiso   1.00
H77    H     0.58600   0.33390   0.23065   0.00000  Uiso   1.00
H78    H     0.62048   0.48522   0.12718   0.00000  Uiso   1.00
H79    H     0.54556   0.37462   0.40946   0.00000  Uiso   1.00
H80    H     0.58344   0.14916   0.13629   0.00000  Uiso   1.00
H81    H     0.67211   0.64150   0.04257   0.00000  Uiso   1.00
H82    H     0.51412   0.40827   0.63776   0.00000  Uiso   1.00
H83    H     0.59400   0.93283   0.06172   0.00000  Uiso   1.00
O84    O     0.74086   0.70152   0.07784   0.00000  Uiso   1.00
O85    O     0.53358   0.39551   0.85869   0.00000  Uiso   1.00
O86    O     0.63838   0.77175   0.10295   0.00000  Uiso   1.00
N87    N     0.73498   0.56269   0.20834   0.00000  Uiso   1.00
N88    N     0.58727   0.34465   0.76480   0.00000  Uiso   1.00
N89    N     0.66194   0.90015   0.22628   0.00000  Uiso   1.00
N90    N     0.68741   0.60353   0.10166   0.00000  Uiso   1.00
N91    N     0.53970   0.38549   0.65813   0.00000  Uiso   1.00
N92    N     0.61437   0.94098   0.11961   0.00000  Uiso   1.00
C93    C     0.83441   0.23443   0.90914   0.00000  Uiso   1.00
C94    C     0.82691   0.14257   0.82772   0.00000  Uiso   1.00
C95    C     0.79411   0.08808   0.81869   0.00000  Uiso   1.00
C96    C     0.79276   0.00648   0.73902   0.00000  Uiso   1.00
C97    C     0.77650   0.86779   0.62300   0.00000  Uiso   1.00
C98    C     0.86762   0.20265   0.98109   0.00000  Uiso   1.00
C99    C     0.86904   0.19868   0.10101   0.00000  Uiso   1.00
C100   C     0.90197   0.16766   0.15044   0.00000  Uiso   1.00
C101   C     0.94892   0.12231   0.27253   0.00000  Uiso   1.00
C102   C     0.84703   0.32514   0.83266   0.00000  Uiso   1.00
C103   C     0.83116   0.42419   0.82780   0.00000  Uiso   1.00
C104   C     0.84676   0.49631   0.75228   0.00000  Uiso   1.00
C105   C     0.86175   0.64115   0.64392   0.00000  Uiso   1.00
C106   C     0.89035   0.18641   0.78369   0.00000  Uiso   1.00
C107   C     0.85729   0.11649   0.75959   0.00000  Uiso   1.00
C108   C     0.85600   0.03495   0.67990   0.00000  Uiso   1.00
C109   C     0.82320   0.98035   0.67075   0.00000  Uiso   1.00
C110   C     0.89800   0.17657   0.91295   0.00000  Uiso   1.00
C111   C     0.93094   0.14555   0.96222   0.00000  Uiso   1.00
C112   C     0.93241   0.14153   0.08218   0.00000  Uiso   1.00
C113   C     0.87742   0.29906   0.76452   0.00000  Uiso   1.00
C114   C     0.89305   0.37105   0.68900   0.00000  Uiso   1.00
C115   C     0.87720   0.47018   0.68403   0.00000  Uiso   1.00
H116   H     0.81075   0.25473   0.96219   0.00000  Uiso   1.00
H117   H     0.77060   0.10829   0.87145   0.00000  Uiso   1.00
H118   H     0.84553   0.21888   0.15371   0.00000  Uiso   1.00
H119   H     0.80765   0.44434   0.88054   0.00000  Uiso   1.00
H120   H     0.73948   0.93439   0.74082   0.00000  Uiso   1.00
H121   H     0.89748   0.16762   0.33600   0.00000  Uiso   1.00
H122   H     0.81760   0.64306   0.75997   0.00000  Uiso   1.00
H123   H     0.91400   0.16610   0.73065   0.00000  Uiso   1.00
H124   H     0.87952   0.01478   0.62718   0.00000  Uiso   1.00
H125   H     0.95444   0.12538   0.90946   0.00000  Uiso   1.00
H126   H     0.91656   0.35084   0.63629   0.00000  Uiso   1.00
H127   H     0.82789   0.85850   0.54257   0.00000  Uiso   1.00
H128   H     0.98588   0.09173   0.13776   0.00000  Uiso   1.00
H129   H     0.90600   0.56717   0.56172   0.00000  Uiso   1.00
O130   O     0.75914   0.79848   0.57784   0.00000  Uiso   1.00
O131   O     0.96642   0.10449   0.35869   0.00000  Uiso   1.00
O132   O     0.86162   0.72825   0.60295   0.00000  Uiso   1.00
N133   N     0.76502   0.93731   0.70834   0.00000  Uiso   1.00
N134   N     0.91273   0.15535   0.26480   0.00000  Uiso   1.00
N135   N     0.83806   0.59985   0.72628   0.00000  Uiso   1.00
N136   N     0.81259   0.89647   0.60166   0.00000  Uiso   1.00
N137   N     0.96030   0.11451   0.15813   0.00000  Uiso   1.00
N138   N     0.88563   0.55902   0.61961   0.00000  Uiso   1.00
C139   C     0.33441   0.73443   0.90914   0.00000  Uiso   1.00
C140   C     0.32691   0.64257   0.82772   0.00000  Uiso   1.00
C141   C     0.29411   0.58808   0.81869   0.00000  Uiso   1.00
C142   C     0.29276   0.50648   0.73902   0.00000  Uiso   1.00
C143   C     0.27650   0.36779   0.62300   0.00000  Uiso   1.00
C144   C     0.36762   0.70265   0.98109   0.00000  Uiso   1.00
C145   C     0.36904   0.69868   0.10101   0.00000  Uiso   1.00
C146   C     0.40197   0.66766   0.15044   0.00000  Uiso   1.00
C147   C     0.44892   0.62231   0.27253   0.00000  Uiso   1.00
C148   C     0.34703   0.82514   0.83266   0.00000  Uiso   1.00
C149   C     0.33116   0.92419   0.82780   0.00000  Uiso   1.00
C150   C     0.34676   0.99631   0.75228   0.00000  Uiso   1.00
C151   C     0.36175   0.14115   0.64392   0.00000  Uiso   1.00
C152   C     0.39035   0.68641   0.78369   0.00000  Uiso   1.00
C153   C     0.35729   0.61649   0.75959   0.00000  Uiso   1.00
C154   C     0.35600   0.53495   0.67990   0.00000  Uiso   1.00
C155   C     0.32320   0.48035   0.67075   0.00000  Uiso   1.00
C156   C     0.39800   0.67657   0.91295   0.00000  Uiso   1.00
C157   C     0.43094   0.64555   0.96222   0.00000  Uiso   1.00
C158   C     0.43241   0.64153   0.08218   0.00000  Uiso   1.00
C159   C     0.37742   0.79906   0.76452   0.00000  Uiso   1.00
C160   C     0.39305   0.87105   0.68900   0.00000  Uiso   1.00
C161   C     0.37720   0.97018   0.68403   0.00000  Uiso   1.00
H162   H     0.31075   0.75473   0.96219   0.00000  Uiso   1.00
H163   H     0.27060   0.60829   0.87145   0.00000  Uiso   1.00
H164   H     0.34553   0.71888   0.15371   0.00000  Uiso   1.00
H165   H     0.30765   0.94434   0.88054   0.00000  Uiso   1.00
H166   H     0.23948   0.43439   0.74082   0.00000  Uiso   1.00
H167   H     0.39748   0.66762   0.33600   0.00000  Uiso   1.00
H168   H     0.31760   0.14306   0.75997   0.00000  Uiso   1.00
H169   H     0.41400   0.66610   0.73065   0.00000  Uiso   1.00
H170   H     0.37952   0.51478   0.62718   0.00000  Uiso   1.00
H171   H     0.45444   0.62538   0.90946   0.00000  Uiso   1.00
H172   H     0.41656   0.85084   0.63629   0.00000  Uiso   1.00
H173   H     0.32789   0.35850   0.54257   0.00000  Uiso   1.00
H174   H     0.48588   0.59173   0.13776   0.00000  Uiso   1.00
H175   H     0.40600   0.06717   0.56172   0.00000  Uiso   1.00
O176   O     0.25914   0.29848   0.57784   0.00000  Uiso   1.00
O177   O     0.46642   0.60449   0.35869   0.00000  Uiso   1.00
O178   O     0.36162   0.22825   0.60295   0.00000  Uiso   1.00
N179   N     0.26502   0.43731   0.70834   0.00000  Uiso   1.00
N180   N     0.41273   0.65535   0.26480   0.00000  Uiso   1.00
N181   N     0.33806   0.09985   0.72628   0.00000  Uiso   1.00
N182   N     0.31259   0.39647   0.60166   0.00000  Uiso   1.00
N183   N     0.46030   0.61451   0.15813   0.00000  Uiso   1.00
N184   N     0.38563   0.05902   0.61961   0.00000  Uiso   1.00
C185   C     0.83441   0.76557   0.09086   0.00000  Uiso   1.00
C186   C     0.82691   0.85743   0.17228   0.00000  Uiso   1.00
C187   C     0.79411   0.91192   0.18131   0.00000  Uiso   1.00
C188   C     0.79276   0.99352   0.26098   0.00000  Uiso   1.00
C189   C     0.77650   0.13221   0.37700   0.00000  Uiso   1.00
C190   C     0.86762   0.79735   0.01891   0.00000  Uiso   1.00
C191   C     0.86904   0.80132   0.89899   0.00000  Uiso   1.00
C192   C     0.90197   0.83234   0.84956   0.00000  Uiso   1.00
C193   C     0.94892   0.87769   0.72747   0.00000  Uiso   1.00
C194   C     0.84703   0.67486   0.16734   0.00000  Uiso   1.00
C195   C     0.83116   0.57581   0.17220   0.00000  Uiso   1.00
C196   C     0.84676   0.50369   0.24772   0.00000  Uiso   1.00
C197   C     0.86175   0.35885   0.35608   0.00000  Uiso   1.00
C198   C     0.89035   0.81359   0.21631   0.00000  Uiso   1.00
C199   C     0.85729   0.88351   0.24041   0.00000  Uiso   1.00
C200   C     0.85600   0.96505   0.32010   0.00000  Uiso   1.00
C201   C     0.82320   0.01965   0.32925   0.00000  Uiso   1.00
C202   C     0.89800   0.82343   0.08705   0.00000  Uiso   1.00
C203   C     0.93094   0.85445   0.03778   0.00000  Uiso   1.00
C204   C     0.93241   0.85847   0.91782   0.00000  Uiso   1.00
C205   C     0.87742   0.70094   0.23548   0.00000  Uiso   1.00
C206   C     0.89305   0.62895   0.31100   0.00000  Uiso   1.00
C207   C     0.87720   0.52982   0.31597   0.00000  Uiso   1.00
H208   H     0.81075   0.74527   0.03781   0.00000  Uiso   1.00
H209   H     0.77060   0.89171   0.12855   0.00000  Uiso   1.00
H210   H     0.84553   0.78112   0.84629   0.00000  Uiso   1.00
H211   H     0.80765   0.55566   0.11946   0.00000  Uiso   1.00
H212   H     0.73948   0.06561   0.25918   0.00000  Uiso   1.00
H213   H     0.89748   0.83238   0.66400   0.00000  Uiso   1.00
H214   H     0.81760   0.35694   0.24003   0.00000  Uiso   1.00
H215   H     0.91400   0.83390   0.26935   0.00000  Uiso   1.00
H216   H     0.87952   0.98522   0.37282   0.00000  Uiso   1.00
H217   H     0.95444   0.87462   0.09054   0.00000  Uiso   1.00
H218   H     0.91656   0.64916   0.36371   0.00000  Uiso   1.00
H219   H     0.82789   0.14150   0.45743   0.00000  Uiso   1.00
H220   H     0.98588   0.90827   0.86224   0.00000  Uiso   1.00
H221   H     0.90600   0.43283   0.43828   0.00000  Uiso   1.00
O222   O     0.75914   0.20152   0.42216   0.00000  Uiso   1.00
O223   O     0.96642   0.89551   0.64131   0.00000  Uiso   1.00
O224   O     0.86162   0.27175   0.39705   0.00000  Uiso   1.00
N225   N     0.76502   0.06269   0.29166   0.00000  Uiso   1.00
N226   N     0.91273   0.84465   0.73520   0.00000  Uiso   1.00
N227   N     0.83806   0.40015   0.27372   0.00000  Uiso   1.00
N228   N     0.81259   0.10353   0.39834   0.00000  Uiso   1.00
N229   N     0.96030   0.88549   0.84187   0.00000  Uiso   1.00
N230   N     0.88563   0.44098   0.38039   0.00000  Uiso   1.00
C231   C     0.33441   0.26557   0.09086   0.00000  Uiso   1.00
C232   C     0.32691   0.35743   0.17228   0.00000  Uiso   1.00
C233   C     0.29411   0.41192   0.18131   0.00000  Uiso   1.00
C234   C     0.29276   0.49352   0.26098   0.00000  Uiso   1.00
C235   C     0.27650   0.63221   0.37700   0.00000  Uiso   1.00
C236   C     0.36762   0.29735   0.01891   0.00000  Uiso   1.00
C237   C     0.36904   0.30132   0.89899   0.00000  Uiso   1.00
C238   C     0.40197   0.33234   0.84956   0.00000  Uiso   1.00
C239   C     0.44892   0.37769   0.72747   0.00000  Uiso   1.00
C240   C     0.34703   0.17486   0.16734   0.00000  Uiso   1.00
C241   C     0.33116   0.07581   0.17220   0.00000  Uiso   1.00
C242   C     0.34676   0.00369   0.24772   0.00000  Uiso   1.00
C243   C     0.36175   0.85885   0.35608   0.00000  Uiso   1.00
C244   C     0.39035   0.31359   0.21631   0.00000  Uiso   1.00
C245   C     0.35729   0.38351   0.24041   0.00000  Uiso   1.00
C246   C     0.35600   0.46505   0.32010   0.00000  Uiso   1.00
C247   C     0.32320   0.51965   0.32925   0.00000  Uiso   1.00
C248   C     0.39800   0.32343   0.08705   0.00000  Uiso   1.00
C249   C     0.43094   0.35445   0.03778   0.00000  Uiso   1.00
C250   C     0.43241   0.35847   0.91782   0.00000  Uiso   1.00
C251   C     0.37742   0.20094   0.23548   0.00000  Uiso   1.00
C252   C     0.39305   0.12895   0.31100   0.00000  Uiso   1.00
C253   C     0.37720   0.02982   0.31597   0.00000  Uiso   1.00
H254   H     0.31075   0.24527   0.03781   0.00000  Uiso   1.00
H255   H     0.27060   0.39171   0.12855   0.00000  Uiso   1.00
H256   H     0.34553   0.28112   0.84629   0.00000  Uiso   1.00
H257   H     0.30765   0.05566   0.11946   0.00000  Uiso   1.00
H258   H     0.23948   0.56561   0.25918   0.00000  Uiso   1.00
H259   H     0.39748   0.33238   0.66400   0.00000  Uiso   1.00
H260   H     0.31760   0.85694   0.24003   0.00000  Uiso   1.00
H261   H     0.41400   0.33390   0.26935   0.00000  Uiso   1.00
H262   H     0.37952   0.48522   0.37282   0.00000  Uiso   1.00
H263   H     0.45444   0.37462   0.09054   0.00000  Uiso   1.00
H264   H     0.41656   0.14916   0.36371   0.00000  Uiso   1.00
H265   H     0.32789   0.64150   0.45743   0.00000  Uiso   1.00
H266   H     0.48588   0.40827   0.86224   0.00000  Uiso   1.00
H267   H     0.40600   0.93283   0.43828   0.00000  Uiso   1.00
O268   O     0.25914   0.70152   0.42216   0.00000  Uiso   1.00
O269   O     0.46642   0.39551   0.64131   0.00000  Uiso   1.00
O270   O     0.36162   0.77175   0.39705   0.00000  Uiso   1.00
N271   N     0.26502   0.56269   0.29166   0.00000  Uiso   1.00
N272   N     0.41273   0.34465   0.73520   0.00000  Uiso   1.00
N273   N     0.33806   0.90015   0.27372   0.00000  Uiso   1.00
N274   N     0.31259   0.60353   0.39834   0.00000  Uiso   1.00
N275   N     0.46030   0.38549   0.84187   0.00000  Uiso   1.00
N276   N     0.38563   0.94098   0.38039   0.00000  Uiso   1.00
C277   C     0.16559   0.23443   0.59086   0.00000  Uiso   1.00
C278   C     0.17309   0.14257   0.67228   0.00000  Uiso   1.00
C279   C     0.20589   0.08808   0.68131   0.00000  Uiso   1.00
C280   C     0.20724   0.00648   0.76098   0.00000  Uiso   1.00
C281   C     0.22350   0.86779   0.87700   0.00000  Uiso   1.00
C282   C     0.13238   0.20265   0.51891   0.00000  Uiso   1.00
C283   C     0.13096   0.19868   0.39899   0.00000  Uiso   1.00
C284   C     0.09803   0.16766   0.34956   0.00000  Uiso   1.00
C285   C     0.05108   0.12231   0.22747   0.00000  Uiso   1.00
C286   C     0.15297   0.32514   0.66734   0.00000  Uiso   1.00
C287   C     0.16884   0.42419   0.67220   0.00000  Uiso   1.00
C288   C     0.15324   0.49631   0.74772   0.00000  Uiso   1.00
C289   C     0.13825   0.64115   0.85608   0.00000  Uiso   1.00
C290   C     0.10965   0.18641   0.71631   0.00000  Uiso   1.00
C291   C     0.14271   0.11649   0.74041   0.00000  Uiso   1.00
C292   C     0.14400   0.03495   0.82010   0.00000  Uiso   1.00
C293   C     0.17680   0.98035   0.82925   0.00000  Uiso   1.00
C294   C     0.10200   0.17657   0.58705   0.00000  Uiso   1.00
C295   C     0.06906   0.14555   0.53778   0.00000  Uiso   1.00
C296   C     0.06759   0.14153   0.41782   0.00000  Uiso   1.00
C297   C     0.12258   0.29906   0.73548   0.00000  Uiso   1.00
C298   C     0.10695   0.37105   0.81100   0.00000  Uiso   1.00
C299   C     0.12280   0.47018   0.81597   0.00000  Uiso   1.00
H300   H     0.18925   0.25473   0.53781   0.00000  Uiso   1.00
H301   H     0.22940   0.10829   0.62855   0.00000  Uiso   1.00
H302   H     0.15447   0.21888   0.34629   0.00000  Uiso   1.00
H303   H     0.19235   0.44434   0.61946   0.00000  Uiso   1.00
H304   H     0.26052   0.93439   0.75918   0.00000  Uiso   1.00
H305   H     0.10252   0.16762   0.16400   0.00000  Uiso   1.00
H306   H     0.18240   0.64306   0.74003   0.00000  Uiso   1.00
H307   H     0.08600   0.16610   0.76935   0.00000  Uiso   1.00
H308   H     0.12048   0.01478   0.87282   0.00000  Uiso   1.00
H309   H     0.04556   0.12538   0.59054   0.00000  Uiso   1.00
H310   H     0.08344   0.35084   0.86371   0.00000  Uiso   1.00
H311   H     0.17211   0.85850   0.95743   0.00000  Uiso   1.00
H312   H     0.01412   0.09173   0.36224   0.00000  Uiso   1.00
H313   H     0.09400   0.56717   0.93828   0.00000  Uiso   1.00
O314   O     0.24086   0.79848   0.92216   0.00000  Uiso   1.00
O315   O     0.03358   0.10449   0.14131   0.00000  Uiso   1.00
O316   O     0.13838   0.72825   0.89705   0.00000  Uiso   1.00
N317   N     0.23498   0.93731   0.79166   0.00000  Uiso   1.00
N318   N     0.08727   0.15535   0.23520   0.00000  Uiso   1.00
N319   N     0.16194   0.59985   0.77372   0.00000  Uiso   1.00
N320   N     0.18741   0.89647   0.89834   0.00000  Uiso   1.00
N321   N     0.03970   0.11451   0.34187   0.00000  Uiso   1.00
N322   N     0.11437   0.55902   0.88039   0.00000  Uiso   1.00
C323   C     0.66559   0.73443   0.59086   0.00000  Uiso   1.00
C324   C     0.67309   0.64257   0.67228   0.00000  Uiso   1.00
C325   C     0.70589   0.58808   0.68131   0.00000  Uiso   1.00
C326   C     0.70724   0.50648   0.76098   0.00000  Uiso   1.00
C327   C     0.72350   0.36779   0.87700   0.00000  Uiso   1.00
C328   C     0.63238   0.70265   0.51891   0.00000  Uiso   1.00
C329   C     0.63096   0.69868   0.39899   0.00000  Uiso   1.00
C330   C     0.59803   0.66766   0.34956   0.00000  Uiso   1.00
C331   C     0.55108   0.62231   0.22747   0.00000  Uiso   1.00
C332   C     0.65297   0.82514   0.66734   0.00000  Uiso   1.00
C333   C     0.66884   0.92419   0.67220   0.00000  Uiso   1.00
C334   C     0.65324   0.99631   0.74772   0.00000  Uiso   1.00
C335   C     0.63825   0.14115   0.85608   0.00000  Uiso   1.00
C336   C     0.60965   0.68641   0.71631   0.00000  Uiso   1.00
C337   C     0.64271   0.61649   0.74041   0.00000  Uiso   1.00
C338   C     0.64400   0.53495   0.82010   0.00000  Uiso   1.00
C339   C     0.67680   0.48035   0.82925   0.00000  Uiso   1.00
C340   C     0.60200   0.67657   0.58705   0.00000  Uiso   1.00
C341   C     0.56906   0.64555   0.53778   0.00000  Uiso   1.00
C342   C     0.56759   0.64153   0.41782   0.00000  Uiso   1.00
C343   C     0.62258   0.79906   0.73548   0.00000  Uiso   1.00
C344   C     0.60695   0.87105   0.81100   0.00000  Uiso   1.00
C345   C     0.62280   0.97018   0.81597   0.00000  Uiso   1.00
H346   H     0.68925   0.75473   0.53781   0.00000  Uiso   1.00
H347   H     0.72940   0.60828   0.62855   0.00000  Uiso   1.00
H348   H     0.65447   0.71888   0.34629   0.00000  Uiso   1.00
H349   H     0.69235   0.94434   0.61946   0.00000  Uiso   1.00
H350   H     0.76052   0.43439   0.75918   0.00000  Uiso   1.00
H351   H     0.60252   0.66762   0.16400   0.00000  Uiso   1.00
H352   H     0.68240   0.14306   0.74003   0.00000  Uiso   1.00
H353   H     0.58600   0.66610   0.76935   0.00000  Uiso   1.00
H354   H     0.62048   0.51478   0.87282   0.00000  Uiso   1.00
H355   H     0.54556   0.62538   0.59054   0.00000  Uiso   1.00
H356   H     0.58344   0.85084   0.86371   0.00000  Uiso   1.00
H357   H     0.67211   0.35850   0.95743   0.00000  Uiso   1.00
H358   H     0.51412   0.59173   0.36224   0.00000  Uiso   1.00
H359   H     0.59400   0.06717   0.93828   0.00000  Uiso   1.00
O360   O     0.74086   0.29848   0.92216   0.00000  Uiso   1.00
O361   O     0.53358   0.60449   0.14131   0.00000  Uiso   1.00
O362   O     0.63838   0.22825   0.89705   0.00000  Uiso   1.00
N363   N     0.73498   0.43731   0.79166   0.00000  Uiso   1.00
N364   N     0.58727   0.65535   0.23520   0.00000  Uiso   1.00
N365   N     0.66194   0.09985   0.77372   0.00000  Uiso   1.00
N366   N     0.68741   0.39647   0.89834   0.00000  Uiso   1.00
N367   N     0.53970   0.61451   0.34187   0.00000  Uiso   1.00
N368   N     0.61437   0.05902   0.88039   0.00000  Uiso   1.00
