data_job_03966
_audit_creation_date              2018-12-19
_audit_creation_method            'Materials Studio'
_symmetry_space_group_name_H-M    'P1'
_symmetry_Int_Tables_number       1
_symmetry_cell_setting            triclinic
loop_
_symmetry_equiv_pos_as_xyz
  x,y,z
_cell_length_a                    19.4568
_cell_length_b                    12.5493
_cell_length_c                    24.3202
_cell_angle_alpha                 90.0000
_cell_angle_beta                  96.2066
_cell_angle_gamma                 90.0000
loop_
_atom_site_label
_atom_site_type_symbol
_atom_site_fract_x
_atom_site_fract_y
_atom_site_fract_z
_atom_site_U_iso_or_equiv
_atom_site_adp_type
_atom_site_occupancy
C1     C     0.13119   0.93543   0.56940   0.00000  Uiso   1.00
C2     C     0.20515   0.94981   0.55539   0.00000  Uiso   1.00
C3     C     0.22750   0.93600   0.50358   0.00000  Uiso   1.00
C4     C     0.29724   0.95295   0.49929   0.00000  Uiso   1.00
C5     C     0.40514   0.97071   0.47057   0.00000  Uiso   1.00
C6     C     0.13483   0.85341   0.61589   0.00000  Uiso   1.00
C7     C     0.09805   0.75855   0.61493   0.00000  Uiso   1.00
C8     C     0.10858   0.69435   0.66158   0.00000  Uiso   1.00
C9     C     0.10726   0.56248   0.72678   0.00000  Uiso   1.00
C10    C     0.11122   0.04052   0.59486   0.00000  Uiso   1.00
C11    C     0.05458   0.10297   0.57623   0.00000  Uiso   1.00
C12    C     0.04523   0.19629   0.60517   0.00000  Uiso   1.00
C13    C     0.00727   0.35494   0.63772   0.00000  Uiso   1.00
C14    C     0.21529   0.99009   0.65394   0.00000  Uiso   1.00
C15    C     0.25083   0.97950   0.60132   0.00000  Uiso   1.00
C16    C     0.32055   0.99647   0.59711   0.00000  Uiso   1.00
C17    C     0.34300   0.98269   0.54529   0.00000  Uiso   1.00
C18    C     0.18050   0.88309   0.66181   0.00000  Uiso   1.00
C19    C     0.19109   0.81902   0.70847   0.00000  Uiso   1.00
C20    C     0.15434   0.72409   0.70758   0.00000  Uiso   1.00
C21    C     0.15690   0.07021   0.64077   0.00000  Uiso   1.00
C22    C     0.14763   0.16344   0.66976   0.00000  Uiso   1.00
C23    C     0.09099   0.22603   0.65118   0.00000  Uiso   1.00
H24    H     0.09563   0.91232   0.53365   0.00000  Uiso   1.00
H25    H     0.19214   0.91302   0.46805   0.00000  Uiso   1.00
H26    H     0.06270   0.73561   0.57939   0.00000  Uiso   1.00
H27    H     0.01925   0.07997   0.54069   0.00000  Uiso   1.00
H28    H     0.31929   0.92685   0.41557   0.00000  Uiso   1.00
H29    H     0.04634   0.55278   0.65035   0.00000  Uiso   1.00
H30    H     0.95471   0.27895   0.56874   0.00000  Uiso   1.00
H31    H     0.25085   0.01320   0.68969   0.00000  Uiso   1.00
H32    H     0.35588   0.01944   0.63265   0.00000  Uiso   1.00
H33    H     0.22644   0.84202   0.74399   0.00000  Uiso   1.00
H34    H     0.18299   0.18639   0.70529   0.00000  Uiso   1.00
H35    H     0.45219   0.01322   0.54917   0.00000  Uiso   1.00
H36    H     0.17923   0.63915   0.78395   0.00000  Uiso   1.00
H37    H     0.08761   0.36532   0.70234   0.00000  Uiso   1.00
O38    O     0.45204   0.97229   0.44204   0.00000  Uiso   1.00
O39    O     0.09392   0.48153   0.75006   0.00000  Uiso   1.00
O40    O     0.97371   0.43425   0.64299   0.00000  Uiso   1.00
N41    N     0.33615   0.94634   0.45484   0.00000  Uiso   1.00
N42    N     0.08096   0.59660   0.67434   0.00000  Uiso   1.00
N43    N     0.99529   0.27549   0.59805   0.00000  Uiso   1.00
N44    N     0.40766   0.99282   0.52673   0.00000  Uiso   1.00
N45    N     0.15248   0.64308   0.74623   0.00000  Uiso   1.00
N46    N     0.06680   0.32197   0.66994   0.00000  Uiso   1.00
C47    C     0.63119   0.43543   0.56940   0.00000  Uiso   1.00
C48    C     0.70515   0.44981   0.55539   0.00000  Uiso   1.00
C49    C     0.72750   0.43600   0.50358   0.00000  Uiso   1.00
C50    C     0.79724   0.45295   0.49929   0.00000  Uiso   1.00
C51    C     0.90514   0.47071   0.47057   0.00000  Uiso   1.00
C52    C     0.63483   0.35341   0.61589   0.00000  Uiso   1.00
C53    C     0.59805   0.25855   0.61493   0.00000  Uiso   1.00
C54    C     0.60858   0.19435   0.66158   0.00000  Uiso   1.00
C55    C     0.60726   0.06248   0.72678   0.00000  Uiso   1.00
C56    C     0.61122   0.54052   0.59486   0.00000  Uiso   1.00
C57    C     0.55458   0.60297   0.57623   0.00000  Uiso   1.00
C58    C     0.54523   0.69629   0.60517   0.00000  Uiso   1.00
C59    C     0.50727   0.85494   0.63772   0.00000  Uiso   1.00
C60    C     0.71529   0.49009   0.65394   0.00000  Uiso   1.00
C61    C     0.75083   0.47950   0.60132   0.00000  Uiso   1.00
C62    C     0.82055   0.49647   0.59711   0.00000  Uiso   1.00
C63    C     0.84300   0.48269   0.54529   0.00000  Uiso   1.00
C64    C     0.68050   0.38309   0.66181   0.00000  Uiso   1.00
C65    C     0.69109   0.31902   0.70847   0.00000  Uiso   1.00
C66    C     0.65434   0.22409   0.70758   0.00000  Uiso   1.00
C67    C     0.65690   0.57021   0.64077   0.00000  Uiso   1.00
C68    C     0.64763   0.66344   0.66976   0.00000  Uiso   1.00
C69    C     0.59099   0.72603   0.65118   0.00000  Uiso   1.00
H70    H     0.59563   0.41232   0.53365   0.00000  Uiso   1.00
H71    H     0.69214   0.41302   0.46805   0.00000  Uiso   1.00
H72    H     0.56270   0.23561   0.57939   0.00000  Uiso   1.00
H73    H     0.51925   0.57997   0.54069   0.00000  Uiso   1.00
H74    H     0.81929   0.42685   0.41557   0.00000  Uiso   1.00
H75    H     0.54634   0.05278   0.65035   0.00000  Uiso   1.00
H76    H     0.45471   0.77895   0.56874   0.00000  Uiso   1.00
H77    H     0.75085   0.51320   0.68969   0.00000  Uiso   1.00
H78    H     0.85588   0.51944   0.63265   0.00000  Uiso   1.00
H79    H     0.72644   0.34202   0.74399   0.00000  Uiso   1.00
H80    H     0.68299   0.68639   0.70529   0.00000  Uiso   1.00
H81    H     0.95219   0.51322   0.54917   0.00000  Uiso   1.00
H82    H     0.67923   0.13915   0.78395   0.00000  Uiso   1.00
H83    H     0.58761   0.86532   0.70234   0.00000  Uiso   1.00
O84    O     0.95204   0.47229   0.44204   0.00000  Uiso   1.00
O85    O     0.59392   0.98153   0.75006   0.00000  Uiso   1.00
O86    O     0.47371   0.93425   0.64299   0.00000  Uiso   1.00
N87    N     0.83615   0.44634   0.45484   0.00000  Uiso   1.00
N88    N     0.58096   0.09660   0.67434   0.00000  Uiso   1.00
N89    N     0.49529   0.77549   0.59805   0.00000  Uiso   1.00
N90    N     0.90766   0.49282   0.52673   0.00000  Uiso   1.00
N91    N     0.65248   0.14308   0.74623   0.00000  Uiso   1.00
N92    N     0.56680   0.82197   0.66994   0.00000  Uiso   1.00
C93    C     0.86881   0.93543   0.93060   0.00000  Uiso   1.00
C94    C     0.79485   0.94981   0.94461   0.00000  Uiso   1.00
C95    C     0.77250   0.93600   0.99642   0.00000  Uiso   1.00
C96    C     0.70276   0.95295   0.00071   0.00000  Uiso   1.00
C97    C     0.59486   0.97071   0.02943   0.00000  Uiso   1.00
C98    C     0.86517   0.85341   0.88411   0.00000  Uiso   1.00
C99    C     0.90195   0.75855   0.88507   0.00000  Uiso   1.00
C100   C     0.89142   0.69435   0.83842   0.00000  Uiso   1.00
C101   C     0.89274   0.56248   0.77322   0.00000  Uiso   1.00
C102   C     0.88878   0.04052   0.90514   0.00000  Uiso   1.00
C103   C     0.94542   0.10297   0.92377   0.00000  Uiso   1.00
C104   C     0.95477   0.19629   0.89483   0.00000  Uiso   1.00
C105   C     0.99273   0.35494   0.86228   0.00000  Uiso   1.00
C106   C     0.78471   0.99009   0.84606   0.00000  Uiso   1.00
C107   C     0.74917   0.97950   0.89868   0.00000  Uiso   1.00
C108   C     0.67945   0.99647   0.90289   0.00000  Uiso   1.00
C109   C     0.65700   0.98269   0.95471   0.00000  Uiso   1.00
C110   C     0.81950   0.88309   0.83819   0.00000  Uiso   1.00
C111   C     0.80891   0.81902   0.79153   0.00000  Uiso   1.00
C112   C     0.84566   0.72409   0.79242   0.00000  Uiso   1.00
C113   C     0.84310   0.07021   0.85923   0.00000  Uiso   1.00
C114   C     0.85237   0.16344   0.83024   0.00000  Uiso   1.00
C115   C     0.90901   0.22603   0.84882   0.00000  Uiso   1.00
H116   H     0.90437   0.91232   0.96635   0.00000  Uiso   1.00
H117   H     0.80786   0.91302   0.03195   0.00000  Uiso   1.00
H118   H     0.93730   0.73561   0.92061   0.00000  Uiso   1.00
H119   H     0.98075   0.07997   0.95931   0.00000  Uiso   1.00
H120   H     0.68071   0.92685   0.08443   0.00000  Uiso   1.00
H121   H     0.95366   0.55278   0.84965   0.00000  Uiso   1.00
H122   H     0.04529   0.27895   0.93126   0.00000  Uiso   1.00
H123   H     0.74915   0.01320   0.81031   0.00000  Uiso   1.00
H124   H     0.64412   0.01944   0.86735   0.00000  Uiso   1.00
H125   H     0.77356   0.84202   0.75601   0.00000  Uiso   1.00
H126   H     0.81701   0.18639   0.79471   0.00000  Uiso   1.00
H127   H     0.54781   0.01322   0.95083   0.00000  Uiso   1.00
H128   H     0.82077   0.63915   0.71605   0.00000  Uiso   1.00
H129   H     0.91239   0.36532   0.79766   0.00000  Uiso   1.00
O130   O     0.54796   0.97229   0.05796   0.00000  Uiso   1.00
O131   O     0.90608   0.48153   0.74994   0.00000  Uiso   1.00
O132   O     0.02629   0.43425   0.85701   0.00000  Uiso   1.00
N133   N     0.66385   0.94634   0.04516   0.00000  Uiso   1.00
N134   N     0.91904   0.59660   0.82566   0.00000  Uiso   1.00
N135   N     0.00471   0.27549   0.90195   0.00000  Uiso   1.00
N136   N     0.59234   0.99282   0.97327   0.00000  Uiso   1.00
N137   N     0.84752   0.64308   0.75377   0.00000  Uiso   1.00
N138   N     0.93320   0.32197   0.83006   0.00000  Uiso   1.00
C139   C     0.36881   0.43543   0.93060   0.00000  Uiso   1.00
C140   C     0.29485   0.44981   0.94461   0.00000  Uiso   1.00
C141   C     0.27250   0.43600   0.99642   0.00000  Uiso   1.00
C142   C     0.20276   0.45295   0.00071   0.00000  Uiso   1.00
C143   C     0.09486   0.47071   0.02943   0.00000  Uiso   1.00
C144   C     0.36517   0.35341   0.88411   0.00000  Uiso   1.00
C145   C     0.40195   0.25855   0.88507   0.00000  Uiso   1.00
C146   C     0.39142   0.19435   0.83842   0.00000  Uiso   1.00
C147   C     0.39274   0.06248   0.77322   0.00000  Uiso   1.00
C148   C     0.38878   0.54052   0.90514   0.00000  Uiso   1.00
C149   C     0.44542   0.60297   0.92377   0.00000  Uiso   1.00
C150   C     0.45477   0.69629   0.89483   0.00000  Uiso   1.00
C151   C     0.49273   0.85494   0.86228   0.00000  Uiso   1.00
C152   C     0.28471   0.49009   0.84606   0.00000  Uiso   1.00
C153   C     0.24917   0.47950   0.89868   0.00000  Uiso   1.00
C154   C     0.17945   0.49647   0.90289   0.00000  Uiso   1.00
C155   C     0.15700   0.48269   0.95471   0.00000  Uiso   1.00
C156   C     0.31950   0.38309   0.83819   0.00000  Uiso   1.00
C157   C     0.30891   0.31902   0.79153   0.00000  Uiso   1.00
C158   C     0.34566   0.22409   0.79242   0.00000  Uiso   1.00
C159   C     0.34310   0.57021   0.85923   0.00000  Uiso   1.00
C160   C     0.35237   0.66344   0.83024   0.00000  Uiso   1.00
C161   C     0.40901   0.72603   0.84882   0.00000  Uiso   1.00
H162   H     0.40437   0.41232   0.96635   0.00000  Uiso   1.00
H163   H     0.30786   0.41302   0.03195   0.00000  Uiso   1.00
H164   H     0.43730   0.23561   0.92061   0.00000  Uiso   1.00
H165   H     0.48075   0.57997   0.95931   0.00000  Uiso   1.00
H166   H     0.18071   0.42685   0.08443   0.00000  Uiso   1.00
H167   H     0.45366   0.05278   0.84965   0.00000  Uiso   1.00
H168   H     0.54529   0.77895   0.93126   0.00000  Uiso   1.00
H169   H     0.24915   0.51320   0.81031   0.00000  Uiso   1.00
H170   H     0.14412   0.51944   0.86735   0.00000  Uiso   1.00
H171   H     0.27356   0.34202   0.75601   0.00000  Uiso   1.00
H172   H     0.31701   0.68639   0.79471   0.00000  Uiso   1.00
H173   H     0.04781   0.51322   0.95083   0.00000  Uiso   1.00
H174   H     0.32077   0.13915   0.71605   0.00000  Uiso   1.00
H175   H     0.41239   0.86532   0.79766   0.00000  Uiso   1.00
O176   O     0.04796   0.47229   0.05796   0.00000  Uiso   1.00
O177   O     0.40608   0.98153   0.74994   0.00000  Uiso   1.00
O178   O     0.52629   0.93425   0.85701   0.00000  Uiso   1.00
N179   N     0.16385   0.44634   0.04516   0.00000  Uiso   1.00
N180   N     0.41904   0.09660   0.82566   0.00000  Uiso   1.00
N181   N     0.50471   0.77549   0.90195   0.00000  Uiso   1.00
N182   N     0.09234   0.49282   0.97327   0.00000  Uiso   1.00
N183   N     0.34752   0.14308   0.75377   0.00000  Uiso   1.00
N184   N     0.43320   0.82197   0.83006   0.00000  Uiso   1.00
C185   C     0.86881   0.06457   0.43060   0.00000  Uiso   1.00
C186   C     0.79485   0.05019   0.44461   0.00000  Uiso   1.00
C187   C     0.77250   0.06400   0.49642   0.00000  Uiso   1.00
C188   C     0.70276   0.04705   0.50071   0.00000  Uiso   1.00
C189   C     0.59486   0.02929   0.52943   0.00000  Uiso   1.00
C190   C     0.86517   0.14659   0.38411   0.00000  Uiso   1.00
C191   C     0.90195   0.24145   0.38507   0.00000  Uiso   1.00
C192   C     0.89142   0.30565   0.33842   0.00000  Uiso   1.00
C193   C     0.89274   0.43752   0.27322   0.00000  Uiso   1.00
C194   C     0.88878   0.95948   0.40514   0.00000  Uiso   1.00
C195   C     0.94542   0.89703   0.42377   0.00000  Uiso   1.00
C196   C     0.95477   0.80371   0.39483   0.00000  Uiso   1.00
C197   C     0.99273   0.64506   0.36228   0.00000  Uiso   1.00
C198   C     0.78471   0.00991   0.34606   0.00000  Uiso   1.00
C199   C     0.74917   0.02050   0.39868   0.00000  Uiso   1.00
C200   C     0.67945   0.00353   0.40289   0.00000  Uiso   1.00
C201   C     0.65700   0.01731   0.45471   0.00000  Uiso   1.00
C202   C     0.81950   0.11691   0.33819   0.00000  Uiso   1.00
C203   C     0.80891   0.18098   0.29153   0.00000  Uiso   1.00
C204   C     0.84566   0.27591   0.29242   0.00000  Uiso   1.00
C205   C     0.84310   0.92979   0.35923   0.00000  Uiso   1.00
C206   C     0.85237   0.83656   0.33024   0.00000  Uiso   1.00
C207   C     0.90901   0.77397   0.34882   0.00000  Uiso   1.00
H208   H     0.90437   0.08768   0.46635   0.00000  Uiso   1.00
H209   H     0.80786   0.08698   0.53195   0.00000  Uiso   1.00
H210   H     0.93730   0.26439   0.42061   0.00000  Uiso   1.00
H211   H     0.98075   0.92003   0.45931   0.00000  Uiso   1.00
H212   H     0.68071   0.07315   0.58443   0.00000  Uiso   1.00
H213   H     0.95366   0.44722   0.34965   0.00000  Uiso   1.00
H214   H     0.04529   0.72105   0.43126   0.00000  Uiso   1.00
H215   H     0.74915   0.98680   0.31031   0.00000  Uiso   1.00
H216   H     0.64412   0.98056   0.36735   0.00000  Uiso   1.00
H217   H     0.77356   0.15798   0.25601   0.00000  Uiso   1.00
H218   H     0.81701   0.81361   0.29471   0.00000  Uiso   1.00
H219   H     0.54781   0.98678   0.45083   0.00000  Uiso   1.00
H220   H     0.82077   0.36085   0.21605   0.00000  Uiso   1.00
H221   H     0.91239   0.63468   0.29766   0.00000  Uiso   1.00
O222   O     0.54796   0.02771   0.55796   0.00000  Uiso   1.00
O223   O     0.90608   0.51847   0.24994   0.00000  Uiso   1.00
O224   O     0.02629   0.56575   0.35701   0.00000  Uiso   1.00
N225   N     0.66385   0.05366   0.54516   0.00000  Uiso   1.00
N226   N     0.91904   0.40340   0.32566   0.00000  Uiso   1.00
N227   N     0.00471   0.72451   0.40195   0.00000  Uiso   1.00
N228   N     0.59234   0.00718   0.47327   0.00000  Uiso   1.00
N229   N     0.84752   0.35692   0.25377   0.00000  Uiso   1.00
N230   N     0.93320   0.67803   0.33006   0.00000  Uiso   1.00
C231   C     0.36881   0.56457   0.43060   0.00000  Uiso   1.00
C232   C     0.29485   0.55019   0.44461   0.00000  Uiso   1.00
C233   C     0.27250   0.56400   0.49642   0.00000  Uiso   1.00
C234   C     0.20276   0.54705   0.50071   0.00000  Uiso   1.00
C235   C     0.09486   0.52929   0.52943   0.00000  Uiso   1.00
C236   C     0.36517   0.64659   0.38411   0.00000  Uiso   1.00
C237   C     0.40195   0.74145   0.38507   0.00000  Uiso   1.00
C238   C     0.39142   0.80565   0.33842   0.00000  Uiso   1.00
C239   C     0.39274   0.93752   0.27322   0.00000  Uiso   1.00
C240   C     0.38878   0.45948   0.40514   0.00000  Uiso   1.00
C241   C     0.44542   0.39703   0.42377   0.00000  Uiso   1.00
C242   C     0.45477   0.30371   0.39483   0.00000  Uiso   1.00
C243   C     0.49273   0.14506   0.36228   0.00000  Uiso   1.00
C244   C     0.28471   0.50991   0.34606   0.00000  Uiso   1.00
C245   C     0.24917   0.52050   0.39868   0.00000  Uiso   1.00
C246   C     0.17945   0.50353   0.40289   0.00000  Uiso   1.00
C247   C     0.15700   0.51731   0.45471   0.00000  Uiso   1.00
C248   C     0.31950   0.61691   0.33819   0.00000  Uiso   1.00
C249   C     0.30891   0.68098   0.29153   0.00000  Uiso   1.00
C250   C     0.34566   0.77591   0.29242   0.00000  Uiso   1.00
C251   C     0.34310   0.42979   0.35923   0.00000  Uiso   1.00
C252   C     0.35237   0.33656   0.33024   0.00000  Uiso   1.00
C253   C     0.40901   0.27397   0.34882   0.00000  Uiso   1.00
H254   H     0.40437   0.58768   0.46635   0.00000  Uiso   1.00
H255   H     0.30786   0.58698   0.53195   0.00000  Uiso   1.00
H256   H     0.43730   0.76439   0.42061   0.00000  Uiso   1.00
H257   H     0.48075   0.42003   0.45931   0.00000  Uiso   1.00
H258   H     0.18071   0.57315   0.58443   0.00000  Uiso   1.00
H259   H     0.45366   0.94722   0.34965   0.00000  Uiso   1.00
H260   H     0.54529   0.22105   0.43126   0.00000  Uiso   1.00
H261   H     0.24915   0.48680   0.31031   0.00000  Uiso   1.00
H262   H     0.14412   0.48056   0.36735   0.00000  Uiso   1.00
H263   H     0.27356   0.65798   0.25601   0.00000  Uiso   1.00
H264   H     0.31701   0.31361   0.29471   0.00000  Uiso   1.00
H265   H     0.04781   0.48678   0.45083   0.00000  Uiso   1.00
H266   H     0.32077   0.86085   0.21605   0.00000  Uiso   1.00
H267   H     0.41239   0.13468   0.29766   0.00000  Uiso   1.00
O268   O     0.04796   0.52771   0.55796   0.00000  Uiso   1.00
O269   O     0.40608   0.01847   0.24994   0.00000  Uiso   1.00
O270   O     0.52629   0.06575   0.35701   0.00000  Uiso   1.00
N271   N     0.16385   0.55366   0.54516   0.00000  Uiso   1.00
N272   N     0.41904   0.90340   0.32566   0.00000  Uiso   1.00
N273   N     0.50471   0.22451   0.40195   0.00000  Uiso   1.00
N274   N     0.09234   0.50718   0.47327   0.00000  Uiso   1.00
N275   N     0.34752   0.85692   0.25377   0.00000  Uiso   1.00
N276   N     0.43320   0.17803   0.33006   0.00000  Uiso   1.00
C277   C     0.13119   0.06457   0.06940   0.00000  Uiso   1.00
C278   C     0.20515   0.05019   0.05539   0.00000  Uiso   1.00
C279   C     0.22750   0.06400   0.00358   0.00000  Uiso   1.00
C280   C     0.29724   0.04705   0.99929   0.00000  Uiso   1.00
C281   C     0.40514   0.02929   0.97057   0.00000  Uiso   1.00
C282   C     0.13483   0.14659   0.11589   0.00000  Uiso   1.00
C283   C     0.09805   0.24145   0.11493   0.00000  Uiso   1.00
C284   C     0.10858   0.30565   0.16158   0.00000  Uiso   1.00
C285   C     0.10726   0.43752   0.22678   0.00000  Uiso   1.00
C286   C     0.11122   0.95948   0.09486   0.00000  Uiso   1.00
C287   C     0.05458   0.89703   0.07623   0.00000  Uiso   1.00
C288   C     0.04523   0.80371   0.10517   0.00000  Uiso   1.00
C289   C     0.00727   0.64506   0.13772   0.00000  Uiso   1.00
C290   C     0.21529   0.00991   0.15394   0.00000  Uiso   1.00
C291   C     0.25083   0.02050   0.10132   0.00000  Uiso   1.00
C292   C     0.32055   0.00353   0.09711   0.00000  Uiso   1.00
C293   C     0.34300   0.01731   0.04529   0.00000  Uiso   1.00
C294   C     0.18050   0.11691   0.16181   0.00000  Uiso   1.00
C295   C     0.19109   0.18098   0.20847   0.00000  Uiso   1.00
C296   C     0.15434   0.27591   0.20758   0.00000  Uiso   1.00
C297   C     0.15690   0.92979   0.14077   0.00000  Uiso   1.00
C298   C     0.14763   0.83656   0.16976   0.00000  Uiso   1.00
C299   C     0.09099   0.77397   0.15118   0.00000  Uiso   1.00
H300   H     0.09563   0.08768   0.03365   0.00000  Uiso   1.00
H301   H     0.19214   0.08698   0.96805   0.00000  Uiso   1.00
H302   H     0.06270   0.26439   0.07939   0.00000  Uiso   1.00
H303   H     0.01925   0.92003   0.04069   0.00000  Uiso   1.00
H304   H     0.31929   0.07315   0.91557   0.00000  Uiso   1.00
H305   H     0.04634   0.44722   0.15035   0.00000  Uiso   1.00
H306   H     0.95471   0.72105   0.06874   0.00000  Uiso   1.00
H307   H     0.25085   0.98680   0.18969   0.00000  Uiso   1.00
H308   H     0.35588   0.98056   0.13265   0.00000  Uiso   1.00
H309   H     0.22644   0.15798   0.24399   0.00000  Uiso   1.00
H310   H     0.18299   0.81361   0.20529   0.00000  Uiso   1.00
H311   H     0.45219   0.98678   0.04917   0.00000  Uiso   1.00
H312   H     0.17923   0.36085   0.28395   0.00000  Uiso   1.00
H313   H     0.08761   0.63468   0.20234   0.00000  Uiso   1.00
O314   O     0.45204   0.02771   0.94204   0.00000  Uiso   1.00
O315   O     0.09392   0.51847   0.25006   0.00000  Uiso   1.00
O316   O     0.97371   0.56575   0.14299   0.00000  Uiso   1.00
N317   N     0.33615   0.05366   0.95484   0.00000  Uiso   1.00
N318   N     0.08096   0.40340   0.17434   0.00000  Uiso   1.00
N319   N     0.99529   0.72451   0.09805   0.00000  Uiso   1.00
N320   N     0.40766   0.00718   0.02673   0.00000  Uiso   1.00
N321   N     0.15248   0.35692   0.24623   0.00000  Uiso   1.00
N322   N     0.06680   0.67803   0.16994   0.00000  Uiso   1.00
C323   C     0.63119   0.56457   0.06940   0.00000  Uiso   1.00
C324   C     0.70515   0.55019   0.05539   0.00000  Uiso   1.00
C325   C     0.72750   0.56400   0.00358   0.00000  Uiso   1.00
C326   C     0.79724   0.54705   0.99929   0.00000  Uiso   1.00
C327   C     0.90514   0.52929   0.97057   0.00000  Uiso   1.00
C328   C     0.63483   0.64659   0.11589   0.00000  Uiso   1.00
C329   C     0.59805   0.74145   0.11493   0.00000  Uiso   1.00
C330   C     0.60858   0.80565   0.16158   0.00000  Uiso   1.00
C331   C     0.60726   0.93752   0.22678   0.00000  Uiso   1.00
C332   C     0.61122   0.45948   0.09486   0.00000  Uiso   1.00
C333   C     0.55458   0.39703   0.07623   0.00000  Uiso   1.00
C334   C     0.54523   0.30371   0.10517   0.00000  Uiso   1.00
C335   C     0.50727   0.14506   0.13772   0.00000  Uiso   1.00
C336   C     0.71529   0.50991   0.15394   0.00000  Uiso   1.00
C337   C     0.75083   0.52050   0.10132   0.00000  Uiso   1.00
C338   C     0.82055   0.50353   0.09711   0.00000  Uiso   1.00
C339   C     0.84300   0.51731   0.04529   0.00000  Uiso   1.00
C340   C     0.68050   0.61691   0.16181   0.00000  Uiso   1.00
C341   C     0.69109   0.68098   0.20847   0.00000  Uiso   1.00
C342   C     0.65434   0.77591   0.20758   0.00000  Uiso   1.00
C343   C     0.65690   0.42979   0.14077   0.00000  Uiso   1.00
C344   C     0.64763   0.33656   0.16976   0.00000  Uiso   1.00
C345   C     0.59099   0.27397   0.15118   0.00000  Uiso   1.00
H346   H     0.59563   0.58768   0.03365   0.00000  Uiso   1.00
H347   H     0.69214   0.58698   0.96805   0.00000  Uiso   1.00
H348   H     0.56270   0.76439   0.07939   0.00000  Uiso   1.00
H349   H     0.51925   0.42003   0.04069   0.00000  Uiso   1.00
H350   H     0.81929   0.57315   0.91557   0.00000  Uiso   1.00
H351   H     0.54634   0.94722   0.15035   0.00000  Uiso   1.00
H352   H     0.45471   0.22105   0.06874   0.00000  Uiso   1.00
H353   H     0.75085   0.48680   0.18969   0.00000  Uiso   1.00
H354   H     0.85588   0.48056   0.13265   0.00000  Uiso   1.00
H355   H     0.72644   0.65798   0.24399   0.00000  Uiso   1.00
H356   H     0.68299   0.31361   0.20529   0.00000  Uiso   1.00
H357   H     0.95219   0.48678   0.04917   0.00000  Uiso   1.00
H358   H     0.67923   0.86085   0.28395   0.00000  Uiso   1.00
H359   H     0.58761   0.13468   0.20234   0.00000  Uiso   1.00
O360   O     0.95204   0.52771   0.94204   0.00000  Uiso   1.00
O361   O     0.59392   0.01847   0.25006   0.00000  Uiso   1.00
O362   O     0.47371   0.06575   0.14299   0.00000  Uiso   1.00
N363   N     0.83615   0.55366   0.95484   0.00000  Uiso   1.00
N364   N     0.58096   0.90340   0.17434   0.00000  Uiso   1.00
N365   N     0.49529   0.22451   0.09805   0.00000  Uiso   1.00
N366   N     0.90766   0.50718   0.02673   0.00000  Uiso   1.00
N367   N     0.65248   0.85692   0.24623   0.00000  Uiso   1.00
N368   N     0.56680   0.17803   0.16994   0.00000  Uiso   1.00
