data_job_07085
_audit_creation_date              2018-12-19
_audit_creation_method            'Materials Studio'
_symmetry_space_group_name_H-M    'P1'
_symmetry_Int_Tables_number       1
_symmetry_cell_setting            triclinic
loop_
_symmetry_equiv_pos_as_xyz
  x,y,z
_cell_length_a                    19.5133
_cell_length_b                    22.1775
_cell_length_c                    24.0333
_cell_angle_alpha                 70.8367
_cell_angle_beta                  72.9830
_cell_angle_gamma                 106.0954
loop_
_atom_site_label
_atom_site_type_symbol
_atom_site_fract_x
_atom_site_fract_y
_atom_site_fract_z
_atom_site_U_iso_or_equiv
_atom_site_adp_type
_atom_site_occupancy
C1     C     0.77399   0.21285   0.95848   0.00000  Uiso   1.00
C2     C     0.75296   0.23846   0.90132   0.00000  Uiso   1.00
C3     C     0.80536   0.27353   0.83614   0.00000  Uiso   1.00
C4     C     0.77452   0.29256   0.79122   0.00000  Uiso   1.00
C5     C     0.75410   0.33471   0.69947   0.00000  Uiso   1.00
C6     C     0.74528   0.24613   0.00163   0.00000  Uiso   1.00
C7     C     0.79123   0.28764   0.02079   0.00000  Uiso   1.00
C8     C     0.75392   0.31313   0.06032   0.00000  Uiso   1.00
C9     C     0.72157   0.36715   0.12435   0.00000  Uiso   1.00
C10    C     0.72233   0.13439   0.99727   0.00000  Uiso   1.00
C11    C     0.74898   0.08195   0.01279   0.00000  Uiso   1.00
C12    C     0.69235   0.01336   0.04866   0.00000  Uiso   1.00
C13    C     0.62436   0.89389   0.10591   0.00000  Uiso   1.00
C14    C     0.62604   0.18428   0.99461   0.00000  Uiso   1.00
C15    C     0.67260   0.22294   0.92094   0.00000  Uiso   1.00
C16    C     0.64167   0.24192   0.87611   0.00000  Uiso   1.00
C17    C     0.69402   0.27701   0.81088   0.00000  Uiso   1.00
C18    C     0.66492   0.23062   0.02125   0.00000  Uiso   1.00
C19    C     0.62754   0.25604   0.06077   0.00000  Uiso   1.00
C20    C     0.67342   0.29758   0.07999   0.00000  Uiso   1.00
C21    C     0.64197   0.11887   0.01689   0.00000  Uiso   1.00
C22    C     0.58529   0.05035   0.05275   0.00000  Uiso   1.00
C23    C     0.61184   0.99781   0.06832   0.00000  Uiso   1.00
H24    H     0.83655   0.22493   0.94321   0.00000  Uiso   1.00
H25    H     0.86755   0.28553   0.82097   0.00000  Uiso   1.00
H26    H     0.85341   0.29964   0.00561   0.00000  Uiso   1.00
H27    H     0.81117   0.09398   0.99759   0.00000  Uiso   1.00
H28    H     0.86648   0.34590   0.69410   0.00000  Uiso   1.00
H29    H     0.83667   0.37562   0.08343   0.00000  Uiso   1.00
H30    H     0.74759   0.94195   0.06654   0.00000  Uiso   1.00
H31    H     0.56347   0.17220   0.00989   0.00000  Uiso   1.00
H32    H     0.57948   0.22991   0.89131   0.00000  Uiso   1.00
H33    H     0.56535   0.24402   0.07595   0.00000  Uiso   1.00
H34    H     0.52310   0.03836   0.06793   0.00000  Uiso   1.00
H35    H     0.63268   0.30075   0.75119   0.00000  Uiso   1.00
H36    H     0.60286   0.33048   0.14053   0.00000  Uiso   1.00
H37    H     0.51379   0.89681   0.12363   0.00000  Uiso   1.00
O38    O     0.76504   0.36226   0.64344   0.00000  Uiso   1.00
O39    O     0.72593   0.40125   0.15423   0.00000  Uiso   1.00
O40    O     0.60906   0.83228   0.13206   0.00000  Uiso   1.00
N41    N     0.80926   0.32734   0.72381   0.00000  Uiso   1.00
N42    N     0.78139   0.35514   0.08780   0.00000  Uiso   1.00
N43    N     0.69811   0.94970   0.07202   0.00000  Uiso   1.00
N44    N     0.68345   0.30305   0.75453   0.00000  Uiso   1.00
N45    N     0.65558   0.33085   0.11852   0.00000  Uiso   1.00
N46    N     0.57230   0.92540   0.10274   0.00000  Uiso   1.00
C47    C     0.03265   0.34300   0.23436   0.00000  Uiso   1.00
C48    C     0.98575   0.37653   0.26643   0.00000  Uiso   1.00
C49    C     0.92672   0.39256   0.25303   0.00000  Uiso   1.00
C50    C     0.89092   0.42308   0.28759   0.00000  Uiso   1.00
C51    C     0.81469   0.47305   0.33033   0.00000  Uiso   1.00
C52    C     0.11903   0.39298   0.20549   0.00000  Uiso   1.00
C53    C     0.17206   0.42284   0.14086   0.00000  Uiso   1.00
C54    C     0.24845   0.46719   0.12412   0.00000  Uiso   1.00
C55    C     0.37916   0.54266   0.07226   0.00000  Uiso   1.00
C56    C     0.02155   0.27710   0.28954   0.00000  Uiso   1.00
C57    C     0.99264   0.20953   0.29556   0.00000  Uiso   1.00
C58    C     0.98698   0.15633   0.34958   0.00000  Uiso   1.00
C59    C     0.96633   0.05188   0.42821   0.00000  Uiso   1.00
C60    C     0.07403   0.36868   0.31956   0.00000  Uiso   1.00
C61    C     0.00823   0.39048   0.31271   0.00000  Uiso   1.00
C62    C     0.97250   0.42098   0.34730   0.00000  Uiso   1.00
C63    C     0.91343   0.43705   0.33396   0.00000  Uiso   1.00
C64    C     0.14150   0.40693   0.25177   0.00000  Uiso   1.00
C65    C     0.21784   0.45125   0.23513   0.00000  Uiso   1.00
C66    C     0.27097   0.48117   0.17049   0.00000  Uiso   1.00
C67    C     0.04402   0.29105   0.33582   0.00000  Uiso   1.00
C68    C     0.03841   0.23794   0.38983   0.00000  Uiso   1.00
C69    C     0.00949   0.17030   0.39594   0.00000  Uiso   1.00
H70    H     0.01516   0.33215   0.19833   0.00000  Uiso   1.00
H71    H     0.90935   0.38177   0.21721   0.00000  Uiso   1.00
H72    H     0.15465   0.41203   0.10506   0.00000  Uiso   1.00
H73    H     0.97525   0.19875   0.25974   0.00000  Uiso   1.00
H74    H     0.80197   0.44296   0.25854   0.00000  Uiso   1.00
H75    H     0.31920   0.50674   0.02206   0.00000  Uiso   1.00
H76    H     0.94091   0.05702   0.34824   0.00000  Uiso   1.00
H77    H     0.09153   0.37954   0.35559   0.00000  Uiso   1.00
H78    H     0.98991   0.43177   0.38311   0.00000  Uiso   1.00
H79    H     0.23521   0.46203   0.27095   0.00000  Uiso   1.00
H80    H     0.05581   0.24876   0.42564   0.00000  Uiso   1.00
H81    H     0.86735   0.48354   0.39318   0.00000  Uiso   1.00
H82    H     0.38459   0.54733   0.15671   0.00000  Uiso   1.00
H83    H     0.00629   0.09760   0.48289   0.00000  Uiso   1.00
O84    O     0.76645   0.49677   0.34111   0.00000  Uiso   1.00
O85    O     0.44504   0.58044   0.03087   0.00000  Uiso   1.00
O86    O     0.94872   0.99041   0.45880   0.00000  Uiso   1.00
N87    N     0.83129   0.44533   0.28646   0.00000  Uiso   1.00
N88    N     0.31487   0.50498   0.06537   0.00000  Uiso   1.00
N89    N     0.96122   0.08452   0.37031   0.00000  Uiso   1.00
N90    N     0.86648   0.46717   0.35891   0.00000  Uiso   1.00
N91    N     0.35006   0.52681   0.13782   0.00000  Uiso   1.00
N92    N     0.99640   0.10636   0.44276   0.00000  Uiso   1.00
C93    C     0.41458   0.62123   0.78073   0.00000  Uiso   1.00
C94    C     0.48606   0.62410   0.79535   0.00000  Uiso   1.00
C95    C     0.49611   0.63207   0.84773   0.00000  Uiso   1.00
C96    C     0.56568   0.63345   0.85251   0.00000  Uiso   1.00
C97    C     0.66796   0.63891   0.88219   0.00000  Uiso   1.00
C98    C     0.44614   0.67922   0.71214   0.00000  Uiso   1.00
C99    C     0.42261   0.73353   0.69456   0.00000  Uiso   1.00
C100   C     0.45857   0.78131   0.62929   0.00000  Uiso   1.00
C101   C     0.49883   0.87232   0.52978   0.00000  Uiso   1.00
C102   C     0.38397   0.55235   0.77668   0.00000  Uiso   1.00
C103   C     0.30815   0.50000   0.81336   0.00000  Uiso   1.00
C104   C     0.29176   0.44097   0.80243   0.00000  Uiso   1.00
C105   C     0.23548   0.33499   0.80314   0.00000  Uiso   1.00
C106   C     0.52026   0.60951   0.69608   0.00000  Uiso   1.00
C107   C     0.54346   0.61773   0.74937   0.00000  Uiso   1.00
C108   C     0.61303   0.61910   0.75408   0.00000  Uiso   1.00
C109   C     0.62318   0.62707   0.80646   0.00000  Uiso   1.00
C110   C     0.50354   0.67286   0.66616   0.00000  Uiso   1.00
C111   C     0.53954   0.72057   0.60091   0.00000  Uiso   1.00
C112   C     0.51608   0.77494   0.58323   0.00000  Uiso   1.00
C113   C     0.44137   0.54598   0.73071   0.00000  Uiso   1.00
C114   C     0.42508   0.48703   0.71971   0.00000  Uiso   1.00
C115   C     0.34926   0.43459   0.75637   0.00000  Uiso   1.00
H116   H     0.36989   0.62619   0.81652   0.00000  Uiso   1.00
H117   H     0.45168   0.63700   0.88330   0.00000  Uiso   1.00
H118   H     0.37819   0.73844   0.73015   0.00000  Uiso   1.00
H119   H     0.26375   0.50494   0.84894   0.00000  Uiso   1.00
H120   H     0.56768   0.64620   0.93704   0.00000  Uiso   1.00
H121   H     0.41270   0.86009   0.61412   0.00000  Uiso   1.00
H122   H     0.17138   0.36770   0.86461   0.00000  Uiso   1.00
H123   H     0.56495   0.60456   0.66028   0.00000  Uiso   1.00
H124   H     0.65744   0.61418   0.71849   0.00000  Uiso   1.00
H125   H     0.58395   0.71562   0.56534   0.00000  Uiso   1.00
H126   H     0.46952   0.48212   0.68413   0.00000  Uiso   1.00
H127   H     0.73469   0.62768   0.80328   0.00000  Uiso   1.00
H128   H     0.57971   0.84156   0.48035   0.00000  Uiso   1.00
H129   H     0.33839   0.34918   0.73084   0.00000  Uiso   1.00
O130   O     0.70852   0.64368   0.91126   0.00000  Uiso   1.00
O131   O     0.50518   0.92428   0.48759   0.00000  Uiso   1.00
O132   O     0.18858   0.27829   0.81623   0.00000  Uiso   1.00
N133   N     0.59428   0.64051   0.89758   0.00000  Uiso   1.00
N134   N     0.44940   0.84048   0.59567   0.00000  Uiso   1.00
N135   N     0.22378   0.38015   0.82984   0.00000  Uiso   1.00
N136   N     0.68415   0.63054   0.82560   0.00000  Uiso   1.00
N137   N     0.53926   0.83052   0.52369   0.00000  Uiso   1.00
N138   N     0.31365   0.37019   0.75787   0.00000  Uiso   1.00
C139   C     0.51916   0.16176   0.52661   0.00000  Uiso   1.00
C140   C     0.53474   0.20147   0.45586   0.00000  Uiso   1.00
C141   C     0.48125   0.18868   0.42922   0.00000  Uiso   1.00
C142   C     0.50684   0.23077   0.36350   0.00000  Uiso   1.00
C143   C     0.51941   0.28440   0.25937   0.00000  Uiso   1.00
C144   C     0.53666   0.21689   0.55128   0.00000  Uiso   1.00
C145   C     0.48477   0.21705   0.60488   0.00000  Uiso   1.00
C146   C     0.51199   0.27212   0.61949   0.00000  Uiso   1.00
C147   C     0.52754   0.34965   0.66353   0.00000  Uiso   1.00
C148   C     0.58242   0.13375   0.52517   0.00000  Uiso   1.00
C149   C     0.56903   0.06402   0.55684   0.00000  Uiso   1.00
C150   C     0.63477   0.04909   0.54947   0.00000  Uiso   1.00
C151   C     0.72139   0.99754   0.55299   0.00000  Uiso   1.00
C152   C     0.65974   0.25926   0.45725   0.00000  Uiso   1.00
C153   C     0.61110   0.25443   0.41819   0.00000  Uiso   1.00
C154   C     0.63678   0.29655   0.35248   0.00000  Uiso   1.00
C155   C     0.58334   0.28383   0.32575   0.00000  Uiso   1.00
C156   C     0.61301   0.26985   0.51361   0.00000  Uiso   1.00
C157   C     0.64031   0.32493   0.52814   0.00000  Uiso   1.00
C158   C     0.58848   0.32518   0.58175   0.00000  Uiso   1.00
C159   C     0.65878   0.18671   0.48750   0.00000  Uiso   1.00
C160   C     0.72456   0.17189   0.48009   0.00000  Uiso   1.00
C161   C     0.71127   0.10215   0.51173   0.00000  Uiso   1.00
H162   H     0.45971   0.12053   0.55595   0.00000  Uiso   1.00
H163   H     0.42216   0.14769   0.45839   0.00000  Uiso   1.00
H164   H     0.42569   0.17606   0.63403   0.00000  Uiso   1.00
H165   H     0.50993   0.02305   0.58599   0.00000  Uiso   1.00
H166   H     0.41419   0.20118   0.33363   0.00000  Uiso   1.00
H167   H     0.42164   0.26097   0.70398   0.00000  Uiso   1.00
H168   H     0.59927   0.93832   0.60268   0.00000  Uiso   1.00
H169   H     0.71919   0.30050   0.42792   0.00000  Uiso   1.00
H170   H     0.69588   0.33753   0.32334   0.00000  Uiso   1.00
H171   H     0.69940   0.36590   0.49898   0.00000  Uiso   1.00
H172   H     0.78364   0.21289   0.45094   0.00000  Uiso   1.00
H173   H     0.63634   0.35526   0.22402   0.00000  Uiso   1.00
H174   H     0.64380   0.41505   0.59437   0.00000  Uiso   1.00
H175   H     0.82143   0.09240   0.49306   0.00000  Uiso   1.00
O176   O     0.50524   0.29935   0.21235   0.00000  Uiso   1.00
O177   O     0.51502   0.37779   0.69823   0.00000  Uiso   1.00
O178   O     0.74807   0.95448   0.56532   0.00000  Uiso   1.00
N179   N     0.46968   0.23235   0.32218   0.00000  Uiso   1.00
N180   N     0.47664   0.28826   0.66843   0.00000  Uiso   1.00
N181   N     0.64271   0.98661   0.57373   0.00000  Uiso   1.00
N182   N     0.58922   0.31526   0.26320   0.00000  Uiso   1.00
N183   N     0.59618   0.37117   0.60945   0.00000  Uiso   1.00
N184   N     0.76226   0.06952   0.51475   0.00000  Uiso   1.00
C185   C     0.18953   0.86327   0.18895   0.00000  Uiso   1.00
C186   C     0.25238   0.91192   0.19874   0.00000  Uiso   1.00
C187   C     0.28119   0.98451   0.17074   0.00000  Uiso   1.00
C188   C     0.33860   0.01953   0.18579   0.00000  Uiso   1.00
C189   C     0.43197   0.10060   0.19469   0.00000  Uiso   1.00
C190   C     0.12455   0.81227   0.25669   0.00000  Uiso   1.00
C191   C     0.04587   0.80106   0.27742   0.00000  Uiso   1.00
C192   C     0.99567   0.75219   0.34125   0.00000  Uiso   1.00
C193   C     0.89056   0.67850   0.44011   0.00000  Uiso   1.00
C194   C     0.22642   0.81978   0.16384   0.00000  Uiso   1.00
C195   C     0.23339   0.81487   0.10650   0.00000  Uiso   1.00
C196   C     0.26893   0.77231   0.09216   0.00000  Uiso   1.00
C197   C     0.32200   0.71029   0.04686   0.00000  Uiso   1.00
C198   C     0.24025   0.79638   0.26544   0.00000  Uiso   1.00
C199   C     0.27993   0.87559   0.24028   0.00000  Uiso   1.00
C200   C     0.33731   0.91051   0.25537   0.00000  Uiso   1.00
C201   C     0.36620   0.98314   0.22740   0.00000  Uiso   1.00
C202   C     0.15209   0.77594   0.29824   0.00000  Uiso   1.00
C203   C     0.10199   0.72706   0.36205   0.00000  Uiso   1.00
C204   C     0.02326   0.71579   0.38287   0.00000  Uiso   1.00
C205   C     0.25397   0.78345   0.20538   0.00000  Uiso   1.00
C206   C     0.28950   0.74088   0.19113   0.00000  Uiso   1.00
C207   C     0.29653   0.73591   0.13378   0.00000  Uiso   1.00
H208   H     0.16808   0.89155   0.15660   0.00000  Uiso   1.00
H209   H     0.25985   0.01260   0.13860   0.00000  Uiso   1.00
H210   H     0.02457   0.82918   0.24525   0.00000  Uiso   1.00
H211   H     0.21206   0.84299   0.07436   0.00000  Uiso   1.00
H212   H     0.37373   0.13079   0.13698   0.00000  Uiso   1.00
H213   H     0.87762   0.74401   0.36186   0.00000  Uiso   1.00
H214   H     0.27297   0.77314   0.00150   0.00000  Uiso   1.00
H215   H     0.26169   0.76810   0.29779   0.00000  Uiso   1.00
H216   H     0.35861   0.88238   0.28752   0.00000  Uiso   1.00
H217   H     0.12333   0.69896   0.39418   0.00000  Uiso   1.00
H218   H     0.31081   0.71277   0.22329   0.00000  Uiso   1.00
H219   H     0.45388   0.02510   0.25785   0.00000  Uiso   1.00
H220   H     0.95777   0.63832   0.48274   0.00000  Uiso   1.00
H221   H     0.35312   0.66745   0.12238   0.00000  Uiso   1.00
O222   O     0.47585   0.15535   0.18813   0.00000  Uiso   1.00
O223   O     0.82498   0.64791   0.48317   0.00000  Uiso   1.00
O224   O     0.34367   0.68613   0.01039   0.00000  Uiso   1.00
N225   N     0.37930   0.09023   0.16682   0.00000  Uiso   1.00
N226   N     0.91548   0.72863   0.37708   0.00000  Uiso   1.00
N227   N     0.28508   0.75585   0.04018   0.00000  Uiso   1.00
N228   N     0.42243   0.03336   0.23186   0.00000  Uiso   1.00
N229   N     0.95860   0.67176   0.44212   0.00000  Uiso   1.00
N230   N     0.32820   0.69897   0.10523   0.00000  Uiso   1.00
C231   C     0.97735   0.90844   0.96255   0.00000  Uiso   1.00
C232   C     0.92677   0.87531   0.03547   0.00000  Uiso   1.00
C233   C     0.95458   0.86780   0.08318   0.00000  Uiso   1.00
C234   C     0.89881   0.83610   0.14711   0.00000  Uiso   1.00
C235   C     0.83254   0.78823   0.25797   0.00000  Uiso   1.00
C236   C     0.95486   0.96738   0.93157   0.00000  Uiso   1.00
C237   C     0.00630   0.03728   0.89192   0.00000  Uiso   1.00
C238   C     0.97418   0.08308   0.86839   0.00000  Uiso   1.00
C239   C     0.95155   0.17814   0.81791   0.00000  Uiso   1.00
C240   C     0.94865   0.85322   0.94028   0.00000  Uiso   1.00
C241   C     0.99486   0.82715   0.90793   0.00000  Uiso   1.00
C242   C     0.95752   0.77685   0.89171   0.00000  Uiso   1.00
C243   C     0.92523   0.69467   0.85474   0.00000  Uiso   1.00
C244   C     0.82885   0.86550   0.99126   0.00000  Uiso   1.00
C245   C     0.84611   0.85199   0.05106   0.00000  Uiso   1.00
C246   C     0.79028   0.82029   0.11494   0.00000  Uiso   1.00
C247   C     0.81801   0.81273   0.16274   0.00000  Uiso   1.00
C248   C     0.87421   0.94406   0.94716   0.00000  Uiso   1.00
C249   C     0.84201   0.98977   0.92369   0.00000  Uiso   1.00
C250   C     0.89338   0.05972   0.88401   0.00000  Uiso   1.00
C251   C     0.86799   0.82990   0.95587   0.00000  Uiso   1.00
C252   C     0.83057   0.77964   0.93970   0.00000  Uiso   1.00
C253   C     0.87672   0.75349   0.90734   0.00000  Uiso   1.00
H254   H     0.04014   0.92660   0.95040   0.00000  Uiso   1.00
H255   H     0.01700   0.88586   0.07109   0.00000  Uiso   1.00
H256   H     0.06872   0.05531   0.87985   0.00000  Uiso   1.00
H257   H     0.05728   0.84521   0.89587   0.00000  Uiso   1.00
H258   H     0.95578   0.83042   0.21176   0.00000  Uiso   1.00
H259   H     0.06483   0.18771   0.80852   0.00000  Uiso   1.00
H260   H     0.04071   0.74468   0.84228   0.00000  Uiso   1.00
H261   H     0.76605   0.84735   0.00340   0.00000  Uiso   1.00
H262   H     0.72787   0.80225   0.12700   0.00000  Uiso   1.00
H263   H     0.77959   0.97170   0.93576   0.00000  Uiso   1.00
H264   H     0.76815   0.76160   0.95178   0.00000  Uiso   1.00
H265   H     0.72111   0.76256   0.25714   0.00000  Uiso   1.00
H266   H     0.83016   0.11986   0.85390   0.00000  Uiso   1.00
H267   H     0.80604   0.67682   0.88766   0.00000  Uiso   1.00
O268   O     0.81827   0.76828   0.31480   0.00000  Uiso   1.00
O269   O     0.96134   0.23702   0.78576   0.00000  Uiso   1.00
O270   O     0.92970   0.65578   0.83005   0.00000  Uiso   1.00
N271   N     0.90579   0.82063   0.20548   0.00000  Uiso   1.00
N272   N     0.00774   0.15468   0.82848   0.00000  Uiso   1.00
N273   N     0.98520   0.74049   0.86003   0.00000  Uiso   1.00
N274   N     0.77951   0.78411   0.22990   0.00000  Uiso   1.00
N275   N     0.88147   0.11816   0.85290   0.00000  Uiso   1.00
N276   N     0.85892   0.70398   0.88445   0.00000  Uiso   1.00
C277   C     0.59831   0.92778   0.80422   0.00000  Uiso   1.00
C278   C     0.58706   0.88285   0.87246   0.00000  Uiso   1.00
C279   C     0.54214   0.81112   0.90826   0.00000  Uiso   1.00
C280   C     0.53933   0.77965   0.96974   0.00000  Uiso   1.00
C281   C     0.51571   0.70396   0.07191   0.00000  Uiso   1.00
C282   C     0.68692   0.96417   0.76258   0.00000  Uiso   1.00
C283   C     0.72595   0.96082   0.70600   0.00000  Uiso   1.00
C284   C     0.80719   0.99782   0.67499   0.00000  Uiso   1.00
C285   C     0.93859   0.04842   0.60655   0.00000  Uiso   1.00
C286   C     0.57229   0.98544   0.80883   0.00000  Uiso   1.00
C287   C     0.51495   0.99999   0.79111   0.00000  Uiso   1.00
C288   C     0.49970   0.05490   0.79901   0.00000  Uiso   1.00
C289   C     0.45311   0.13852   0.80238   0.00000  Uiso   1.00
C290   C     0.67320   0.99945   0.84974   0.00000  Uiso   1.00
C291   C     0.62774   0.92178   0.89718   0.00000  Uiso   1.00
C292   C     0.62499   0.89041   0.95862   0.00000  Uiso   1.00
C293   C     0.58008   0.81865   0.99451   0.00000  Uiso   1.00
C294   C     0.72759   0.00309   0.78731   0.00000  Uiso   1.00
C295   C     0.80880   0.04011   0.75636   0.00000  Uiso   1.00
C296   C     0.84794   0.03682   0.69975   0.00000  Uiso   1.00
C297   C     0.61296   0.02436   0.83355   0.00000  Uiso   1.00
C298   C     0.59780   0.07927   0.84148   0.00000  Uiso   1.00
C299   C     0.54045   0.09390   0.82378   0.00000  Uiso   1.00
H300   H     0.56665   0.89748   0.78497   0.00000  Uiso   1.00
H301   H     0.51068   0.78101   0.88910   0.00000  Uiso   1.00
H302   H     0.69446   0.93070   0.68688   0.00000  Uiso   1.00
H303   H     0.48349   0.96985   0.77198   0.00000  Uiso   1.00
H304   H     0.46659   0.66905   0.01545   0.00000  Uiso   1.00
H305   H     0.85408   0.98470   0.58903   0.00000  Uiso   1.00
H306   H     0.40921   0.06726   0.76848   0.00000  Uiso   1.00
H307   H     0.70487   0.02976   0.86899   0.00000  Uiso   1.00
H308   H     0.65648   0.92055   0.97774   0.00000  Uiso   1.00
H309   H     0.84025   0.07023   0.77551   0.00000  Uiso   1.00
H310   H     0.62928   0.10939   0.86061   0.00000  Uiso   1.00
H311   H     0.58492   0.78230   0.08739   0.00000  Uiso   1.00
H312   H     0.97242   0.09795   0.66096   0.00000  Uiso   1.00
H313   H     0.52755   0.18051   0.84042   0.00000  Uiso   1.00
O314   O     0.49145   0.65145   0.12143   0.00000  Uiso   1.00
O315   O     0.99982   0.06557   0.56198   0.00000  Uiso   1.00
O316   O     0.41617   0.17389   0.79742   0.00000  Uiso   1.00
N317   N     0.50107   0.71070   0.01746   0.00000  Uiso   1.00
N318   N     0.86335   0.00579   0.61879   0.00000  Uiso   1.00
N319   N     0.44745   0.08300   0.78654   0.00000  Uiso   1.00
N320   N     0.56474   0.77164   0.05617   0.00000  Uiso   1.00
N321   N     0.92703   0.06673   0.65750   0.00000  Uiso   1.00
N322   N     0.51113   0.14394   0.82525   0.00000  Uiso   1.00
C323   C     0.18682   0.92315   0.63803   0.00000  Uiso   1.00
C324   C     0.24428   0.95825   0.56655   0.00000  Uiso   1.00
C325   C     0.31441   0.95205   0.54191   0.00000  Uiso   1.00
C326   C     0.35869   0.98829   0.47508   0.00000  Uiso   1.00
C327   C     0.45171   0.03654   0.37026   0.00000  Uiso   1.00
C328   C     0.10766   0.88075   0.64210   0.00000  Uiso   1.00
C329   C     0.06292   0.80937   0.68099   0.00000  Uiso   1.00
C330   C     0.99219   0.78037   0.67776   0.00000  Uiso   1.00
C331   C     0.87308   0.70831   0.69028   0.00000  Uiso   1.00
C332   C     0.17693   0.98211   0.65414   0.00000  Uiso   1.00
C333   C     0.19041   0.99595   0.70317   0.00000  Uiso   1.00
C334   C     0.17799   0.05228   0.71008   0.00000  Uiso   1.00
C335   C     0.16643   0.13759   0.74129   0.00000  Uiso   1.00
C336   C     0.14076   0.99855   0.56315   0.00000  Uiso   1.00
C337   C     0.21926   0.99921   0.52587   0.00000  Uiso   1.00
C338   C     0.26345   0.03547   0.45906   0.00000  Uiso   1.00
C339   C     0.33363   0.02932   0.43433   0.00000  Uiso   1.00
C340   C     0.08264   0.92170   0.60143   0.00000  Uiso   1.00
C341   C     0.01196   0.89280   0.59814   0.00000  Uiso   1.00
C342   C     0.96713   0.82140   0.63702   0.00000  Uiso   1.00
C343   C     0.15192   0.02307   0.61346   0.00000  Uiso   1.00
C344   C     0.13946   0.07938   0.62031   0.00000  Uiso   1.00
C345   C     0.15292   0.09331   0.66934   0.00000  Uiso   1.00
H346   H     0.20629   0.89126   0.66970   0.00000  Uiso   1.00
H347   H     0.33375   0.92034   0.57340   0.00000  Uiso   1.00
H348   H     0.08229   0.77769   0.71247   0.00000  Uiso   1.00
H349   H     0.20977   0.96425   0.73463   0.00000  Uiso   1.00
H350   H     0.46401   0.97062   0.44870   0.00000  Uiso   1.00
H351   H     0.93380   0.66985   0.74194   0.00000  Uiso   1.00
H352   H     0.20261   0.06323   0.78868   0.00000  Uiso   1.00
H353   H     0.12127   0.03044   0.53148   0.00000  Uiso   1.00
H354   H     0.24407   0.06716   0.42760   0.00000  Uiso   1.00
H355   H     0.99262   0.92451   0.56666   0.00000  Uiso   1.00
H356   H     0.12010   0.11106   0.58883   0.00000  Uiso   1.00
H357   H     0.39123   0.08979   0.33036   0.00000  Uiso   1.00
H358   H     0.86101   0.78901   0.62360   0.00000  Uiso   1.00
H359   H     0.12982   0.18240   0.67034   0.00000  Uiso   1.00
O360   O     0.50992   0.05183   0.32368   0.00000  Uiso   1.00
O361   O     0.81429   0.65723   0.70842   0.00000  Uiso   1.00
O362   O     0.16697   0.17334   0.76973   0.00000  Uiso   1.00
N363   N     0.43004   0.99364   0.43511   0.00000  Uiso   1.00
N364   N     0.93432   0.71243   0.70926   0.00000  Uiso   1.00
N365   N     0.18562   0.08020   0.75297   0.00000  Uiso   1.00
N366   N     0.39088   0.05776   0.37143   0.00000  Uiso   1.00
N367   N     0.89516   0.77656   0.64558   0.00000  Uiso   1.00
N368   N     0.14646   0.14432   0.68929   0.00000  Uiso   1.00
C369   C     0.08249   0.65276   0.02274   0.00000  Uiso   1.00
C370   C     0.99768   0.63747   0.03211   0.00000  Uiso   1.00
C371   C     0.95116   0.58672   0.02121   0.00000  Uiso   1.00
C372   C     0.87510   0.58094   0.03263   0.00000  Uiso   1.00
C373   C     0.74772   0.55057   0.04394   0.00000  Uiso   1.00
C374   C     0.08356   0.64534   0.08781   0.00000  Uiso   1.00
C375   C     0.10927   0.60120   0.12373   0.00000  Uiso   1.00
C376   C     0.10552   0.60206   0.18204   0.00000  Uiso   1.00
C377   C     0.11153   0.58394   0.27980   0.00000  Uiso   1.00
C378   C     0.13036   0.73029   0.97549   0.00000  Uiso   1.00
C379   C     0.19542   0.75759   0.91697   0.00000  Uiso   1.00
C380   C     0.23108   0.82997   0.88072   0.00000  Uiso   1.00
C381   C     0.30974   0.94375   0.80407   0.00000  Uiso   1.00
C382   C     0.03013   0.73277   0.06241   0.00000  Uiso   1.00
C383   C     0.96924   0.68093   0.05366   0.00000  Uiso   1.00
C384   C     0.89323   0.67524   0.06510   0.00000  Uiso   1.00
C385   C     0.84661   0.62448   0.05422   0.00000  Uiso   1.00
C386   C     0.05512   0.68880   0.10936   0.00000  Uiso   1.00
C387   C     0.05134   0.68972   0.16763   0.00000  Uiso   1.00
C388   C     0.07703   0.64560   0.20363   0.00000  Uiso   1.00
C389   C     0.10191   0.77375   0.99703   0.00000  Uiso   1.00
C390   C     0.13748   0.84611   0.96087   0.00000  Uiso   1.00
C391   C     0.20259   0.87351   0.90231   0.00000  Uiso   1.00
H392   H     0.10464   0.61893   0.00596   0.00000  Uiso   1.00
H393   H     0.97319   0.55309   0.00454   0.00000  Uiso   1.00
H394   H     0.13128   0.56758   0.10704   0.00000  Uiso   1.00
H395   H     0.21742   0.72394   0.90031   0.00000  Uiso   1.00
H396   H     0.81491   0.49925   0.01248   0.00000  Uiso   1.00
H397   H     0.14828   0.52982   0.22861   0.00000  Uiso   1.00
H398   H     0.32991   0.85954   0.79268   0.00000  Uiso   1.00
H399   H     0.00799   0.76660   0.07919   0.00000  Uiso   1.00
H400   H     0.87123   0.70887   0.08178   0.00000  Uiso   1.00
H401   H     0.02933   0.72336   0.18429   0.00000  Uiso   1.00
H402   H     0.11546   0.87972   0.97756   0.00000  Uiso   1.00
H403   H     0.73215   0.62568   0.07518   0.00000  Uiso   1.00
H404   H     0.06553   0.65626   0.29130   0.00000  Uiso   1.00
H405   H     0.24715   0.98597   0.85537   0.00000  Uiso   1.00
O406   O     0.68531   0.52181   0.04423   0.00000  Uiso   1.00
O407   O     0.12269   0.56193   0.32778   0.00000  Uiso   1.00
O408   O     0.36098   0.99451   0.75584   0.00000  Uiso   1.00
N409   N     0.81421   0.53694   0.02687   0.00000  Uiso   1.00
N410   N     0.12587   0.56552   0.22894   0.00000  Uiso   1.00
N411   N     0.29570   0.87377   0.82139   0.00000  Uiso   1.00
N412   N     0.76968   0.60497   0.06060   0.00000  Uiso   1.00
N413   N     0.08134   0.63355   0.26268   0.00000  Uiso   1.00
N414   N     0.25117   0.94181   0.85512   0.00000  Uiso   1.00
C415   C     0.76732   0.95762   0.26610   0.00000  Uiso   1.00
C416   C     0.77477   0.93344   0.33037   0.00000  Uiso   1.00
C417   C     0.82408   0.90211   0.34423   0.00000  Uiso   1.00
C418   C     0.82227   0.88381   0.40587   0.00000  Uiso   1.00
C419   C     0.84133   0.84432   0.49867   0.00000  Uiso   1.00
C420   C     0.68050   0.92016   0.28274   0.00000  Uiso   1.00
C421   C     0.65055   0.87767   0.25652   0.00000  Uiso   1.00
C422   C     0.56938   0.84819   0.27806   0.00000  Uiso   1.00
C423   C     0.44208   0.78812   0.29686   0.00000  Uiso   1.00
C424   C     0.78439   0.03515   0.24335   0.00000  Uiso   1.00
C425   C     0.84178   0.08935   0.18402   0.00000  Uiso   1.00
C426   C     0.84807   0.15669   0.17239   0.00000  Uiso   1.00
C427   C     0.88208   0.27517   0.13003   0.00000  Uiso   1.00
C428   C     0.67642   0.98083   0.35095   0.00000  Uiso   1.00
C429   C     0.72539   0.94605   0.37646   0.00000  Uiso   1.00
C430   C     0.72351   0.92779   0.43810   0.00000  Uiso   1.00
C431   C     0.77282   0.89644   0.45204   0.00000  Uiso   1.00
C432   C     0.63112   0.93276   0.32882   0.00000  Uiso   1.00
C433   C     0.54998   0.90335   0.35040   0.00000  Uiso   1.00
C434   C     0.51992   0.86082   0.32423   0.00000  Uiso   1.00
C435   C     0.73502   0.04776   0.28943   0.00000  Uiso   1.00
C436   C     0.74122   0.11503   0.27789   0.00000  Uiso   1.00
C437   C     0.79861   0.16932   0.21855   0.00000  Uiso   1.00
H438   H     0.80575   0.94780   0.23023   0.00000  Uiso   1.00
H439   H     0.86228   0.89236   0.30855   0.00000  Uiso   1.00
H440   H     0.68877   0.86792   0.22086   0.00000  Uiso   1.00
H441   H     0.87998   0.07957   0.14837   0.00000  Uiso   1.00
H442   H     0.90315   0.83643   0.41572   0.00000  Uiso   1.00
H443   H     0.53731   0.78493   0.23080   0.00000  Uiso   1.00
H444   H     0.94050   0.23123   0.07793   0.00000  Uiso   1.00
H445   H     0.63798   0.99064   0.38683   0.00000  Uiso   1.00
H446   H     0.68530   0.93755   0.47375   0.00000  Uiso   1.00
H447   H     0.51179   0.91312   0.38606   0.00000  Uiso   1.00
H448   H     0.70300   0.12477   0.31357   0.00000  Uiso   1.00
H449   H     0.75951   0.87311   0.54980   0.00000  Uiso   1.00
H450   H     0.39366   0.82161   0.36488   0.00000  Uiso   1.00
H451   H     0.79686   0.26791   0.21201   0.00000  Uiso   1.00
O452   O     0.86547   0.81905   0.53712   0.00000  Uiso   1.00
O453   O     0.38550   0.75149   0.29450   0.00000  Uiso   1.00
O454   O     0.91448   0.33704   0.09395   0.00000  Uiso   1.00
N455   N     0.86286   0.85236   0.43534   0.00000  Uiso   1.00
N456   N     0.52082   0.80420   0.26246   0.00000  Uiso   1.00
N457   N     0.89776   0.22146   0.11953   0.00000  Uiso   1.00
N458   N     0.78557   0.87210   0.50749   0.00000  Uiso   1.00
N459   N     0.44353   0.82394   0.33461   0.00000  Uiso   1.00
N460   N     0.82047   0.24120   0.19168   0.00000  Uiso   1.00
C461   C     0.11003   0.47959   0.65039   0.00000  Uiso   1.00
C462   C     0.07960   0.49060   0.59782   0.00000  Uiso   1.00
C463   C     0.00127   0.46343   0.60837   0.00000  Uiso   1.00
C464   C     0.98553   0.47952   0.55385   0.00000  Uiso   1.00
C465   C     0.92907   0.49024   0.48178   0.00000  Uiso   1.00
C466   C     0.16902   0.44822   0.63380   0.00000  Uiso   1.00
C467   C     0.16589   0.38542   0.67461   0.00000  Uiso   1.00
C468   C     0.22544   0.36584   0.65038   0.00000  Uiso   1.00
C469   C     0.30785   0.31079   0.63418   0.00000  Uiso   1.00
C470   C     0.15779   0.55264   0.64034   0.00000  Uiso   1.00
C471   C     0.14521   0.57762   0.68664   0.00000  Uiso   1.00
C472   C     0.19532   0.64595   0.66792   0.00000  Uiso   1.00
C473   C     0.26028   0.75301   0.66186   0.00000  Uiso   1.00
C474   C     0.22138   0.55649   0.53481   0.00000  Uiso   1.00
C475   C     0.14008   0.53237   0.53505   0.00000  Uiso   1.00
C476   C     0.12446   0.54851   0.48050   0.00000  Uiso   1.00
C477   C     0.04611   0.52137   0.49097   0.00000  Uiso   1.00
C478   C     0.22950   0.48999   0.57103   0.00000  Uiso   1.00
C479   C     0.28908   0.47050   0.54674   0.00000  Uiso   1.00
C480   C     0.28603   0.40768   0.58749   0.00000  Uiso   1.00
C481   C     0.21826   0.59441   0.57756   0.00000  Uiso   1.00
C482   C     0.26840   0.66270   0.55877   0.00000  Uiso   1.00
C483   C     0.25591   0.68779   0.60503   0.00000  Uiso   1.00
H484   H     0.06295   0.44707   0.69926   0.00000  Uiso   1.00
H485   H     0.95448   0.43110   0.65696   0.00000  Uiso   1.00
H486   H     0.11908   0.35311   0.72319   0.00000  Uiso   1.00
H487   H     0.09841   0.54529   0.73521   0.00000  Uiso   1.00
H488   H     0.86089   0.43180   0.58237   0.00000  Uiso   1.00
H489   H     0.20798   0.26736   0.72203   0.00000  Uiso   1.00
H490   H     0.16439   0.67260   0.74739   0.00000  Uiso   1.00
H491   H     0.26847   0.58901   0.48594   0.00000  Uiso   1.00
H492   H     0.17127   0.58083   0.43193   0.00000  Uiso   1.00
H493   H     0.33587   0.50284   0.49816   0.00000  Uiso   1.00
H494   H     0.31520   0.69501   0.51018   0.00000  Uiso   1.00
H495   H     0.03685   0.55332   0.39973   0.00000  Uiso   1.00
H496   H     0.38393   0.38888   0.53938   0.00000  Uiso   1.00
H497   H     0.34034   0.79412   0.56474   0.00000  Uiso   1.00
O498   O     0.88122   0.48460   0.45937   0.00000  Uiso   1.00
O499   O     0.33659   0.26887   0.64259   0.00000  Uiso   1.00
O500   O     0.27940   0.80053   0.67586   0.00000  Uiso   1.00
N501   N     0.91564   0.46154   0.54680   0.00000  Uiso   1.00
N502   N     0.24014   0.30779   0.67736   0.00000  Uiso   1.00
N503   N     0.19940   0.68664   0.70108   0.00000  Uiso   1.00
N504   N     0.01032   0.52693   0.44852   0.00000  Uiso   1.00
N505   N     0.33482   0.37318   0.57908   0.00000  Uiso   1.00
N506   N     0.29408   0.75203   0.60280   0.00000  Uiso   1.00
C507   C     0.14508   0.20646   0.09190   0.00000  Uiso   1.00
C508   C     0.17753   0.18569   0.03865   0.00000  Uiso   1.00
C509   C     0.13643   0.12877   0.03156   0.00000  Uiso   1.00
C510   C     0.17658   0.11867   0.97968   0.00000  Uiso   1.00
C511   C     0.21506   0.07951   0.90359   0.00000  Uiso   1.00
C512   C     0.20037   0.20875   0.12550   0.00000  Uiso   1.00
C513   C     0.17846   0.17122   0.19142   0.00000  Uiso   1.00
C514   C     0.23784   0.18054   0.21265   0.00000  Uiso   1.00
C515   C     0.31176   0.17722   0.27140   0.00000  Uiso   1.00
C516   C     0.15628   0.28202   0.05706   0.00000  Uiso   1.00
C517   C     0.09731   0.30611   0.06544   0.00000  Uiso   1.00
C518   C     0.11957   0.37712   0.02905   0.00000  Uiso   1.00
C519   C     0.12503   0.48756   0.98153   0.00000  Uiso   1.00
C520   C     0.28947   0.28974   0.01238   0.00000  Uiso   1.00
C521   C     0.25596   0.23092   0.99547   0.00000  Uiso   1.00
C522   C     0.29618   0.22091   0.94358   0.00000  Uiso   1.00
C523   C     0.25515   0.16398   0.93641   0.00000  Uiso   1.00
C524   C     0.27880   0.25398   0.08231   0.00000  Uiso   1.00
C525   C     0.33822   0.26336   0.10345   0.00000  Uiso   1.00
C526   C     0.31641   0.22586   0.16938   0.00000  Uiso   1.00
C527   C     0.23471   0.32725   0.01387   0.00000  Uiso   1.00
C528   C     0.25706   0.39824   0.97746   0.00000  Uiso   1.00
C529   C     0.19814   0.42243   0.98579   0.00000  Uiso   1.00
H530   H     0.08402   0.17125   0.12553   0.00000  Uiso   1.00
H531   H     0.07574   0.09377   0.06499   0.00000  Uiso   1.00
H532   H     0.11777   0.13623   0.22483   0.00000  Uiso   1.00
H533   H     0.03662   0.27109   0.09887   0.00000  Uiso   1.00
H534   H     0.10115   0.02781   0.97885   0.00000  Uiso   1.00
H535   H     0.18977   0.11735   0.31589   0.00000  Uiso   1.00
H536   H     0.01866   0.40173   0.05026   0.00000  Uiso   1.00
H537   H     0.35053   0.32496   0.97876   0.00000  Uiso   1.00
H538   H     0.35688   0.25592   0.91017   0.00000  Uiso   1.00
H539   H     0.39890   0.29837   0.07001   0.00000  Uiso   1.00
H540   H     0.31776   0.43323   0.94405   0.00000  Uiso   1.00
H541   H     0.32934   0.15941   0.85319   0.00000  Uiso   1.00
H542   H     0.41795   0.24895   0.19023   0.00000  Uiso   1.00
H543   H     0.24684   0.53333   0.92460   0.00000  Uiso   1.00
O544   O     0.21462   0.04541   0.87356   0.00000  Uiso   1.00
O545   O     0.33087   0.16289   0.31574   0.00000  Uiso   1.00
O546   O     0.10638   0.53598   0.96725   0.00000  Uiso   1.00
N547   N     0.15398   0.06827   0.95868   0.00000  Uiso   1.00
N548   N     0.23683   0.15197   0.27379   0.00000  Uiso   1.00
N549   N     0.07686   0.41784   0.02547   0.00000  Uiso   1.00
N550   N     0.27676   0.13908   0.89106   0.00000  Uiso   1.00
N551   N     0.35961   0.22278   0.20617   0.00000  Uiso   1.00
N552   N     0.19965   0.48866   0.95785   0.00000  Uiso   1.00
