data_job_03042
_audit_creation_date              2018-12-19
_audit_creation_method            'Materials Studio'
_symmetry_space_group_name_H-M    'P1'
_symmetry_Int_Tables_number       1
_symmetry_cell_setting            triclinic
loop_
_symmetry_equiv_pos_as_xyz
  x,y,z
_cell_length_a                    24.2857
_cell_length_b                    24.2857
_cell_length_c                    10.0238
_cell_angle_alpha                 90.0000
_cell_angle_beta                  90.0000
_cell_angle_gamma                 120.0000
loop_
_atom_site_label
_atom_site_type_symbol
_atom_site_fract_x
_atom_site_fract_y
_atom_site_fract_z
_atom_site_U_iso_or_equiv
_atom_site_adp_type
_atom_site_occupancy
C1     C     0.37583   0.59075   0.24430   0.00000  Uiso   1.00
C2     C     0.43595   0.61911   0.15935   0.00000  Uiso   1.00
C3     C     0.47782   0.68347   0.13991   0.00000  Uiso   1.00
C4     C     0.53005   0.69975   0.05863   0.00000  Uiso   1.00
C5     C     0.62187   0.75085   0.93574   0.00000  Uiso   1.00
C6     C     0.32150   0.54670   0.15224   0.00000  Uiso   1.00
C7     C     0.26714   0.55018   0.12685   0.00000  Uiso   1.00
C8     C     0.22302   0.50549   0.03960   0.00000  Uiso   1.00
C9     C     0.13713   0.44414   0.90576   0.00000  Uiso   1.00
C10    C     0.38258   0.54782   0.34606   0.00000  Uiso   1.00
C11    C     0.37957   0.55223   0.48362   0.00000  Uiso   1.00
C12    C     0.38686   0.50848   0.55955   0.00000  Uiso   1.00
C13    C     0.39581   0.44887   0.72663   0.00000  Uiso   1.00
C14    C     0.39413   0.50520   0.13453   0.00000  Uiso   1.00
C15    C     0.44588   0.57264   0.09973   0.00000  Uiso   1.00
C16    C     0.49807   0.58882   0.01846   0.00000  Uiso   1.00
C17    C     0.54001   0.65320   0.99890   0.00000  Uiso   1.00
C18    C     0.33143   0.50023   0.09262   0.00000  Uiso   1.00
C19    C     0.28738   0.45553   0.00540   0.00000  Uiso   1.00
C20    C     0.23297   0.45894   0.97987   0.00000  Uiso   1.00
C21    C     0.39252   0.50135   0.28644   0.00000  Uiso   1.00
C22    C     0.39981   0.45758   0.36217   0.00000  Uiso   1.00
C23    C     0.39681   0.46193   0.49982   0.00000  Uiso   1.00
H24    H     0.36809   0.62692   0.29071   0.00000  Uiso   1.00
H25    H     0.47011   0.71942   0.18605   0.00000  Uiso   1.00
H26    H     0.25946   0.58614   0.17301   0.00000  Uiso   1.00
H27    H     0.37187   0.58819   0.52972   0.00000  Uiso   1.00
H28    H     0.58759   0.80147   0.04369   0.00000  Uiso   1.00
H29    H     0.14341   0.52043   0.01622   0.00000  Uiso   1.00
H30    H     0.38046   0.52476   0.76842   0.00000  Uiso   1.00
H31    H     0.40186   0.46902   0.08810   0.00000  Uiso   1.00
H32    H     0.50574   0.55285   0.97233   0.00000  Uiso   1.00
H33    H     0.29509   0.41957   0.95929   0.00000  Uiso   1.00
H34    H     0.40750   0.42163   0.31600   0.00000  Uiso   1.00
H35    H     0.61651   0.66628   0.87022   0.00000  Uiso   1.00
H36    H     0.17232   0.38524   0.84276   0.00000  Uiso   1.00
H37    H     0.40937   0.38958   0.59495   0.00000  Uiso   1.00
O38    O     0.66977   0.79187   0.88442   0.00000  Uiso   1.00
O39    O     0.08701   0.42315   0.84840   0.00000  Uiso   1.00
O40    O     0.39801   0.42884   0.83527   0.00000  Uiso   1.00
N41    N     0.58015   0.75815   0.01878   0.00000  Uiso   1.00
N42    N     0.16487   0.49540   0.99308   0.00000  Uiso   1.00
N43    N     0.38647   0.49944   0.69632   0.00000  Uiso   1.00
N44    N     0.59571   0.68541   0.92544   0.00000  Uiso   1.00
N45    N     0.18043   0.42265   0.89973   0.00000  Uiso   1.00
N46    N     0.40203   0.42670   0.60298   0.00000  Uiso   1.00
C47    C     0.40925   0.78508   0.91096   0.00000  Uiso   1.00
C48    C     0.38089   0.81684   0.82602   0.00000  Uiso   1.00
C49    C     0.31653   0.79435   0.80657   0.00000  Uiso   1.00
C50    C     0.30025   0.83030   0.72529   0.00000  Uiso   1.00
C51    C     0.24915   0.87102   0.60241   0.00000  Uiso   1.00
C52    C     0.45330   0.77480   0.81891   0.00000  Uiso   1.00
C53    C     0.44982   0.71696   0.79351   0.00000  Uiso   1.00
C54    C     0.49451   0.71753   0.70627   0.00000  Uiso   1.00
C55    C     0.55586   0.69299   0.57243   0.00000  Uiso   1.00
C56    C     0.45218   0.83476   0.01272   0.00000  Uiso   1.00
C57    C     0.44777   0.82734   0.15029   0.00000  Uiso   1.00
C58    C     0.49152   0.87838   0.22622   0.00000  Uiso   1.00
C59    C     0.55113   0.94694   0.39330   0.00000  Uiso   1.00
C60    C     0.49480   0.88892   0.80119   0.00000  Uiso   1.00
C61    C     0.42736   0.87324   0.76639   0.00000  Uiso   1.00
C62    C     0.41118   0.90924   0.68513   0.00000  Uiso   1.00
C63    C     0.34680   0.88681   0.66557   0.00000  Uiso   1.00
C64    C     0.49977   0.83120   0.75929   0.00000  Uiso   1.00
C65    C     0.54447   0.83185   0.67207   0.00000  Uiso   1.00
C66    C     0.54106   0.77404   0.64654   0.00000  Uiso   1.00
C67    C     0.49865   0.89117   0.95310   0.00000  Uiso   1.00
C68    C     0.54242   0.94223   0.02883   0.00000  Uiso   1.00
C69    C     0.53807   0.93489   0.16649   0.00000  Uiso   1.00
H70    H     0.37308   0.74117   0.95738   0.00000  Uiso   1.00
H71    H     0.28058   0.75070   0.85272   0.00000  Uiso   1.00
H72    H     0.41386   0.67332   0.83968   0.00000  Uiso   1.00
H73    H     0.41181   0.78368   0.19639   0.00000  Uiso   1.00
H74    H     0.19853   0.78612   0.71036   0.00000  Uiso   1.00
H75    H     0.47957   0.62298   0.68289   0.00000  Uiso   1.00
H76    H     0.47524   0.85569   0.43509   0.00000  Uiso   1.00
H77    H     0.53098   0.93284   0.75477   0.00000  Uiso   1.00
H78    H     0.44715   0.95289   0.63900   0.00000  Uiso   1.00
H79    H     0.58043   0.87551   0.62595   0.00000  Uiso   1.00
H80    H     0.57837   0.98587   0.98266   0.00000  Uiso   1.00
H81    H     0.33372   0.95023   0.53689   0.00000  Uiso   1.00
H82    H     0.61476   0.78709   0.50942   0.00000  Uiso   1.00
H83    H     0.61042   0.01980   0.26162   0.00000  Uiso   1.00
O84    O     0.20813   0.87790   0.55108   0.00000  Uiso   1.00
O85    O     0.57685   0.66386   0.51507   0.00000  Uiso   1.00
O86    O     0.57116   0.96917   0.50193   0.00000  Uiso   1.00
N87    N     0.24185   0.82200   0.68544   0.00000  Uiso   1.00
N88    N     0.50460   0.66947   0.65974   0.00000  Uiso   1.00
N89    N     0.50056   0.88703   0.36299   0.00000  Uiso   1.00
N90    N     0.31459   0.91031   0.59210   0.00000  Uiso   1.00
N91    N     0.57735   0.75778   0.56640   0.00000  Uiso   1.00
N92    N     0.57330   0.97533   0.26964   0.00000  Uiso   1.00
C93    C     0.21492   0.62417   0.57763   0.00000  Uiso   1.00
C94    C     0.18316   0.56405   0.49268   0.00000  Uiso   1.00
C95    C     0.20565   0.52218   0.47324   0.00000  Uiso   1.00
C96    C     0.16970   0.46995   0.39196   0.00000  Uiso   1.00
C97    C     0.12898   0.37813   0.26908   0.00000  Uiso   1.00
C98    C     0.22520   0.67850   0.48558   0.00000  Uiso   1.00
C99    C     0.28304   0.73286   0.46018   0.00000  Uiso   1.00
C100   C     0.28247   0.77698   0.37293   0.00000  Uiso   1.00
C101   C     0.30701   0.86287   0.23910   0.00000  Uiso   1.00
C102   C     0.16524   0.61742   0.67939   0.00000  Uiso   1.00
C103   C     0.17266   0.62043   0.81695   0.00000  Uiso   1.00
C104   C     0.12162   0.61314   0.89288   0.00000  Uiso   1.00
C105   C     0.05306   0.60419   0.05997   0.00000  Uiso   1.00
C106   C     0.11108   0.60587   0.46786   0.00000  Uiso   1.00
C107   C     0.12676   0.55412   0.43306   0.00000  Uiso   1.00
C108   C     0.09076   0.50193   0.35179   0.00000  Uiso   1.00
C109   C     0.11319   0.45999   0.33223   0.00000  Uiso   1.00
C110   C     0.16880   0.66857   0.42596   0.00000  Uiso   1.00
C111   C     0.16815   0.71262   0.33873   0.00000  Uiso   1.00
C112   C     0.22596   0.76703   0.31320   0.00000  Uiso   1.00
C113   C     0.10883   0.60748   0.61977   0.00000  Uiso   1.00
C114   C     0.05777   0.60019   0.69550   0.00000  Uiso   1.00
C115   C     0.06511   0.60319   0.83315   0.00000  Uiso   1.00
H116   H     0.25883   0.63191   0.62404   0.00000  Uiso   1.00
H117   H     0.24930   0.52989   0.51939   0.00000  Uiso   1.00
H118   H     0.32668   0.74054   0.50634   0.00000  Uiso   1.00
H119   H     0.21632   0.62813   0.86305   0.00000  Uiso   1.00
H120   H     0.21388   0.41241   0.37703   0.00000  Uiso   1.00
H121   H     0.37702   0.85659   0.34956   0.00000  Uiso   1.00
H122   H     0.14431   0.61954   0.10176   0.00000  Uiso   1.00
H123   H     0.06716   0.59814   0.42144   0.00000  Uiso   1.00
H124   H     0.04711   0.49426   0.30567   0.00000  Uiso   1.00
H125   H     0.12449   0.70491   0.29262   0.00000  Uiso   1.00
H126   H     0.01413   0.59250   0.64933   0.00000  Uiso   1.00
H127   H     0.04977   0.38349   0.20356   0.00000  Uiso   1.00
H128   H     0.21291   0.82768   0.17609   0.00000  Uiso   1.00
H129   H     0.98020   0.59063   0.92829   0.00000  Uiso   1.00
O130   O     0.12210   0.33023   0.21775   0.00000  Uiso   1.00
O131   O     0.33614   0.91299   0.18174   0.00000  Uiso   1.00
O132   O     0.03083   0.60199   0.16860   0.00000  Uiso   1.00
N133   N     0.17800   0.41985   0.35211   0.00000  Uiso   1.00
N134   N     0.33053   0.83513   0.32641   0.00000  Uiso   1.00
N135   N     0.11297   0.61353   0.02965   0.00000  Uiso   1.00
N136   N     0.08969   0.40429   0.25877   0.00000  Uiso   1.00
N137   N     0.24222   0.81957   0.23307   0.00000  Uiso   1.00
N138   N     0.02467   0.59797   0.93631   0.00000  Uiso   1.00
C139   C     0.62417   0.40925   0.24430   0.00000  Uiso   1.00
C140   C     0.56405   0.38089   0.15935   0.00000  Uiso   1.00
C141   C     0.52218   0.31653   0.13991   0.00000  Uiso   1.00
C142   C     0.46995   0.30025   0.05863   0.00000  Uiso   1.00
C143   C     0.37813   0.24915   0.93574   0.00000  Uiso   1.00
C144   C     0.67850   0.45330   0.15224   0.00000  Uiso   1.00
C145   C     0.73286   0.44982   0.12685   0.00000  Uiso   1.00
C146   C     0.77698   0.49451   0.03960   0.00000  Uiso   1.00
C147   C     0.86287   0.55586   0.90576   0.00000  Uiso   1.00
C148   C     0.61742   0.45218   0.34606   0.00000  Uiso   1.00
C149   C     0.62043   0.44777   0.48362   0.00000  Uiso   1.00
C150   C     0.61314   0.49152   0.55955   0.00000  Uiso   1.00
C151   C     0.60419   0.55113   0.72663   0.00000  Uiso   1.00
C152   C     0.60587   0.49480   0.13453   0.00000  Uiso   1.00
C153   C     0.55412   0.42736   0.09973   0.00000  Uiso   1.00
C154   C     0.50193   0.41118   0.01846   0.00000  Uiso   1.00
C155   C     0.45999   0.34680   0.99890   0.00000  Uiso   1.00
C156   C     0.66857   0.49977   0.09262   0.00000  Uiso   1.00
C157   C     0.71262   0.54447   0.00540   0.00000  Uiso   1.00
C158   C     0.76703   0.54106   0.97987   0.00000  Uiso   1.00
C159   C     0.60748   0.49865   0.28644   0.00000  Uiso   1.00
C160   C     0.60019   0.54242   0.36217   0.00000  Uiso   1.00
C161   C     0.60319   0.53807   0.49982   0.00000  Uiso   1.00
H162   H     0.63191   0.37308   0.29071   0.00000  Uiso   1.00
H163   H     0.52989   0.28058   0.18605   0.00000  Uiso   1.00
H164   H     0.74054   0.41386   0.17301   0.00000  Uiso   1.00
H165   H     0.62813   0.41181   0.52972   0.00000  Uiso   1.00
H166   H     0.41241   0.19853   0.04369   0.00000  Uiso   1.00
H167   H     0.85659   0.47957   0.01622   0.00000  Uiso   1.00
H168   H     0.61954   0.47524   0.76842   0.00000  Uiso   1.00
H169   H     0.59814   0.53098   0.08810   0.00000  Uiso   1.00
H170   H     0.49426   0.44715   0.97233   0.00000  Uiso   1.00
H171   H     0.70491   0.58043   0.95929   0.00000  Uiso   1.00
H172   H     0.59250   0.57837   0.31600   0.00000  Uiso   1.00
H173   H     0.38349   0.33372   0.87022   0.00000  Uiso   1.00
H174   H     0.82768   0.61476   0.84276   0.00000  Uiso   1.00
H175   H     0.59063   0.61042   0.59495   0.00000  Uiso   1.00
O176   O     0.33023   0.20813   0.88442   0.00000  Uiso   1.00
O177   O     0.91299   0.57685   0.84840   0.00000  Uiso   1.00
O178   O     0.60199   0.57116   0.83527   0.00000  Uiso   1.00
N179   N     0.41985   0.24185   0.01878   0.00000  Uiso   1.00
N180   N     0.83513   0.50460   0.99308   0.00000  Uiso   1.00
N181   N     0.61353   0.50056   0.69632   0.00000  Uiso   1.00
N182   N     0.40429   0.31459   0.92544   0.00000  Uiso   1.00
N183   N     0.81957   0.57735   0.89973   0.00000  Uiso   1.00
N184   N     0.59797   0.57330   0.60298   0.00000  Uiso   1.00
C185   C     0.59075   0.21492   0.91096   0.00000  Uiso   1.00
C186   C     0.61911   0.18316   0.82602   0.00000  Uiso   1.00
C187   C     0.68347   0.20565   0.80657   0.00000  Uiso   1.00
C188   C     0.69975   0.16970   0.72529   0.00000  Uiso   1.00
C189   C     0.75085   0.12898   0.60241   0.00000  Uiso   1.00
C190   C     0.54670   0.22520   0.81891   0.00000  Uiso   1.00
C191   C     0.55018   0.28304   0.79351   0.00000  Uiso   1.00
C192   C     0.50549   0.28247   0.70627   0.00000  Uiso   1.00
C193   C     0.44414   0.30701   0.57243   0.00000  Uiso   1.00
C194   C     0.54782   0.16524   0.01272   0.00000  Uiso   1.00
C195   C     0.55223   0.17266   0.15029   0.00000  Uiso   1.00
C196   C     0.50848   0.12162   0.22622   0.00000  Uiso   1.00
C197   C     0.44887   0.05306   0.39330   0.00000  Uiso   1.00
C198   C     0.50520   0.11108   0.80119   0.00000  Uiso   1.00
C199   C     0.57264   0.12676   0.76639   0.00000  Uiso   1.00
C200   C     0.58882   0.09076   0.68513   0.00000  Uiso   1.00
C201   C     0.65320   0.11319   0.66557   0.00000  Uiso   1.00
C202   C     0.50023   0.16880   0.75929   0.00000  Uiso   1.00
C203   C     0.45553   0.16815   0.67207   0.00000  Uiso   1.00
C204   C     0.45894   0.22596   0.64654   0.00000  Uiso   1.00
C205   C     0.50135   0.10883   0.95310   0.00000  Uiso   1.00
C206   C     0.45758   0.05777   0.02883   0.00000  Uiso   1.00
C207   C     0.46193   0.06511   0.16649   0.00000  Uiso   1.00
H208   H     0.62692   0.25883   0.95738   0.00000  Uiso   1.00
H209   H     0.71942   0.24930   0.85272   0.00000  Uiso   1.00
H210   H     0.58614   0.32668   0.83968   0.00000  Uiso   1.00
H211   H     0.58819   0.21632   0.19639   0.00000  Uiso   1.00
H212   H     0.80147   0.21388   0.71036   0.00000  Uiso   1.00
H213   H     0.52043   0.37702   0.68289   0.00000  Uiso   1.00
H214   H     0.52476   0.14431   0.43509   0.00000  Uiso   1.00
H215   H     0.46902   0.06716   0.75477   0.00000  Uiso   1.00
H216   H     0.55285   0.04711   0.63900   0.00000  Uiso   1.00
H217   H     0.41957   0.12449   0.62595   0.00000  Uiso   1.00
H218   H     0.42163   0.01413   0.98266   0.00000  Uiso   1.00
H219   H     0.66628   0.04977   0.53689   0.00000  Uiso   1.00
H220   H     0.38524   0.21291   0.50942   0.00000  Uiso   1.00
H221   H     0.38958   0.98020   0.26162   0.00000  Uiso   1.00
O222   O     0.79187   0.12210   0.55108   0.00000  Uiso   1.00
O223   O     0.42315   0.33614   0.51507   0.00000  Uiso   1.00
O224   O     0.42884   0.03083   0.50193   0.00000  Uiso   1.00
N225   N     0.75815   0.17800   0.68544   0.00000  Uiso   1.00
N226   N     0.49540   0.33053   0.65974   0.00000  Uiso   1.00
N227   N     0.49944   0.11297   0.36299   0.00000  Uiso   1.00
N228   N     0.68541   0.08969   0.59210   0.00000  Uiso   1.00
N229   N     0.42265   0.24222   0.56640   0.00000  Uiso   1.00
N230   N     0.42670   0.02467   0.26964   0.00000  Uiso   1.00
C231   C     0.78508   0.37583   0.57763   0.00000  Uiso   1.00
C232   C     0.81684   0.43595   0.49268   0.00000  Uiso   1.00
C233   C     0.79435   0.47782   0.47324   0.00000  Uiso   1.00
C234   C     0.83030   0.53005   0.39196   0.00000  Uiso   1.00
C235   C     0.87102   0.62187   0.26908   0.00000  Uiso   1.00
C236   C     0.77480   0.32150   0.48558   0.00000  Uiso   1.00
C237   C     0.71696   0.26714   0.46018   0.00000  Uiso   1.00
C238   C     0.71753   0.22302   0.37293   0.00000  Uiso   1.00
C239   C     0.69299   0.13713   0.23910   0.00000  Uiso   1.00
C240   C     0.83476   0.38258   0.67939   0.00000  Uiso   1.00
C241   C     0.82734   0.37957   0.81695   0.00000  Uiso   1.00
C242   C     0.87838   0.38686   0.89288   0.00000  Uiso   1.00
C243   C     0.94694   0.39581   0.05997   0.00000  Uiso   1.00
C244   C     0.88892   0.39413   0.46786   0.00000  Uiso   1.00
C245   C     0.87324   0.44588   0.43306   0.00000  Uiso   1.00
C246   C     0.90924   0.49807   0.35179   0.00000  Uiso   1.00
C247   C     0.88681   0.54001   0.33223   0.00000  Uiso   1.00
C248   C     0.83120   0.33143   0.42596   0.00000  Uiso   1.00
C249   C     0.83185   0.28738   0.33873   0.00000  Uiso   1.00
C250   C     0.77404   0.23297   0.31320   0.00000  Uiso   1.00
C251   C     0.89117   0.39252   0.61977   0.00000  Uiso   1.00
C252   C     0.94223   0.39981   0.69550   0.00000  Uiso   1.00
C253   C     0.93489   0.39681   0.83315   0.00000  Uiso   1.00
H254   H     0.74117   0.36809   0.62404   0.00000  Uiso   1.00
H255   H     0.75070   0.47011   0.51939   0.00000  Uiso   1.00
H256   H     0.67332   0.25946   0.50634   0.00000  Uiso   1.00
H257   H     0.78368   0.37187   0.86305   0.00000  Uiso   1.00
H258   H     0.78612   0.58759   0.37703   0.00000  Uiso   1.00
H259   H     0.62298   0.14341   0.34956   0.00000  Uiso   1.00
H260   H     0.85569   0.38046   0.10176   0.00000  Uiso   1.00
H261   H     0.93284   0.40186   0.42144   0.00000  Uiso   1.00
H262   H     0.95289   0.50574   0.30567   0.00000  Uiso   1.00
H263   H     0.87551   0.29509   0.29262   0.00000  Uiso   1.00
H264   H     0.98587   0.40750   0.64933   0.00000  Uiso   1.00
H265   H     0.95023   0.61651   0.20356   0.00000  Uiso   1.00
H266   H     0.78709   0.17232   0.17609   0.00000  Uiso   1.00
H267   H     0.01980   0.40937   0.92829   0.00000  Uiso   1.00
O268   O     0.87790   0.66977   0.21775   0.00000  Uiso   1.00
O269   O     0.66386   0.08701   0.18174   0.00000  Uiso   1.00
O270   O     0.96917   0.39801   0.16860   0.00000  Uiso   1.00
N271   N     0.82200   0.58015   0.35211   0.00000  Uiso   1.00
N272   N     0.66947   0.16487   0.32641   0.00000  Uiso   1.00
N273   N     0.88703   0.38647   0.02965   0.00000  Uiso   1.00
N274   N     0.91031   0.59571   0.25877   0.00000  Uiso   1.00
N275   N     0.75778   0.18043   0.23307   0.00000  Uiso   1.00
N276   N     0.97533   0.40203   0.93631   0.00000  Uiso   1.00
