data_job_05310
_audit_creation_date              2018-12-19
_audit_creation_method            'Materials Studio'
_symmetry_space_group_name_H-M    'P1'
_symmetry_Int_Tables_number       1
_symmetry_cell_setting            triclinic
loop_
_symmetry_equiv_pos_as_xyz
  x,y,z
_cell_length_a                    13.0893
_cell_length_b                    21.0910
_cell_length_c                    22.1631
_cell_angle_alpha                 90.0000
_cell_angle_beta                  90.0054
_cell_angle_gamma                 90.0000
loop_
_atom_site_label
_atom_site_type_symbol
_atom_site_fract_x
_atom_site_fract_y
_atom_site_fract_z
_atom_site_U_iso_or_equiv
_atom_site_adp_type
_atom_site_occupancy
C1     C     0.06599   0.29532   0.35705   0.00000  Uiso   1.00
C2     C     0.96678   0.31334   0.38878   0.00000  Uiso   1.00
C3     C     0.94594   0.37144   0.41547   0.00000  Uiso   1.00
C4     C     0.85070   0.37856   0.44219   0.00000  Uiso   1.00
C5     C     0.70759   0.41402   0.49149   0.00000  Uiso   1.00
C6     C     0.10485   0.23587   0.38879   0.00000  Uiso   1.00
C7     C     0.20011   0.22885   0.41548   0.00000  Uiso   1.00
C8     C     0.22109   0.17075   0.44220   0.00000  Uiso   1.00
C9     C     0.29237   0.08593   0.49147   0.00000  Uiso   1.00
C10    C     0.03581   0.27459   0.29359   0.00000  Uiso   1.00
C11    C     0.07304   0.30010   0.24022   0.00000  Uiso   1.00
C12    C     0.03592   0.27459   0.18679   0.00000  Uiso   1.00
C13    C     0.00001   0.24989   0.08825   0.00000  Uiso   1.00
C14    C     0.93390   0.20463   0.35706   0.00000  Uiso   1.00
C15    C     0.89504   0.26408   0.38879   0.00000  Uiso   1.00
C16    C     0.79980   0.27111   0.41547   0.00000  Uiso   1.00
C17    C     0.77882   0.32921   0.44219   0.00000  Uiso   1.00
C18    C     0.03311   0.18662   0.38880   0.00000  Uiso   1.00
C19    C     0.05396   0.12851   0.41549   0.00000  Uiso   1.00
C20    C     0.14922   0.12140   0.44221   0.00000  Uiso   1.00
C21    C     0.96407   0.22534   0.29359   0.00000  Uiso   1.00
C22    C     0.92689   0.19977   0.24023   0.00000  Uiso   1.00
C23    C     0.96405   0.22525   0.18680   0.00000  Uiso   1.00
H24    H     0.12185   0.33366   0.35705   0.00000  Uiso   1.00
H25    H     0.00149   0.40955   0.41546   0.00000  Uiso   1.00
H26    H     0.25561   0.26697   0.41546   0.00000  Uiso   1.00
H27    H     0.12856   0.33822   0.24024   0.00000  Uiso   1.00
H28    H     0.83643   0.47195   0.48024   0.00000  Uiso   1.00
H29    H     0.37227   0.17131   0.48023   0.00000  Uiso   1.00
H30    H     0.10436   0.32156   0.11073   0.00000  Uiso   1.00
H31    H     0.87804   0.16628   0.35706   0.00000  Uiso   1.00
H32    H     0.74429   0.23298   0.41547   0.00000  Uiso   1.00
H33    H     0.99842   0.09041   0.41548   0.00000  Uiso   1.00
H34    H     0.87137   0.16166   0.24025   0.00000  Uiso   1.00
H35    H     0.62767   0.32864   0.48025   0.00000  Uiso   1.00
H36    H     0.16353   0.02800   0.48024   0.00000  Uiso   1.00
H37    H     0.89561   0.17825   0.11074   0.00000  Uiso   1.00
O38    O     0.64848   0.44719   0.51868   0.00000  Uiso   1.00
O39    O     0.35150   0.05276   0.51866   0.00000  Uiso   1.00
O40    O     0.00001   0.24988   0.03389   0.00000  Uiso   1.00
N41    N     0.80564   0.42907   0.47221   0.00000  Uiso   1.00
N42    N     0.30662   0.14800   0.47221   0.00000  Uiso   1.00
N43    N     0.05617   0.28845   0.12676   0.00000  Uiso   1.00
N44    N     0.69331   0.35196   0.47222   0.00000  Uiso   1.00
N45    N     0.19429   0.07089   0.47222   0.00000  Uiso   1.00
N46    N     0.94384   0.21134   0.12677   0.00000  Uiso   1.00
C47    C     0.43420   0.70449   0.37045   0.00000  Uiso   1.00
C48    C     0.53347   0.68662   0.40220   0.00000  Uiso   1.00
C49    C     0.55452   0.62856   0.42891   0.00000  Uiso   1.00
C50    C     0.64979   0.62159   0.45565   0.00000  Uiso   1.00
C51    C     0.79302   0.58635   0.50498   0.00000  Uiso   1.00
C52    C     0.39511   0.76389   0.40216   0.00000  Uiso   1.00
C53    C     0.29982   0.77079   0.42883   0.00000  Uiso   1.00
C54    C     0.27862   0.82887   0.45553   0.00000  Uiso   1.00
C55    C     0.20702   0.91360   0.50477   0.00000  Uiso   1.00
C56    C     0.46430   0.72523   0.30699   0.00000  Uiso   1.00
C57    C     0.42717   0.69964   0.25362   0.00000  Uiso   1.00
C58    C     0.46420   0.72519   0.20019   0.00000  Uiso   1.00
C59    C     0.50004   0.74990   0.10164   0.00000  Uiso   1.00
C60    C     0.56595   0.79536   0.37044   0.00000  Uiso   1.00
C61    C     0.60503   0.73598   0.40220   0.00000  Uiso   1.00
C62    C     0.70029   0.72910   0.42890   0.00000  Uiso   1.00
C63    C     0.72148   0.67104   0.45564   0.00000  Uiso   1.00
C64    C     0.46666   0.81324   0.40216   0.00000  Uiso   1.00
C65    C     0.44559   0.87133   0.42883   0.00000  Uiso   1.00
C66    C     0.35031   0.87832   0.45553   0.00000  Uiso   1.00
C67    C     0.53586   0.77459   0.30698   0.00000  Uiso   1.00
C68    C     0.57295   0.80019   0.25362   0.00000  Uiso   1.00
C69    C     0.53589   0.77464   0.20018   0.00000  Uiso   1.00
H70    H     0.37848   0.66606   0.37045   0.00000  Uiso   1.00
H71    H     0.49911   0.59037   0.42891   0.00000  Uiso   1.00
H72    H     0.24446   0.73258   0.42882   0.00000  Uiso   1.00
H73    H     0.37180   0.66145   0.25364   0.00000  Uiso   1.00
H74    H     0.66441   0.52823   0.49373   0.00000  Uiso   1.00
H75    H     0.12744   0.82810   0.49353   0.00000  Uiso   1.00
H76    H     0.39595   0.67810   0.12413   0.00000  Uiso   1.00
H77    H     0.62166   0.83379   0.37044   0.00000  Uiso   1.00
H78    H     0.75565   0.76731   0.42889   0.00000  Uiso   1.00
H79    H     0.50099   0.90952   0.42881   0.00000  Uiso   1.00
H80    H     0.62833   0.83838   0.25363   0.00000  Uiso   1.00
H81    H     0.87262   0.67184   0.49372   0.00000  Uiso   1.00
H82    H     0.33564   0.97171   0.49353   0.00000  Uiso   1.00
H83    H     0.60416   0.82171   0.12413   0.00000  Uiso   1.00
O84    O     0.85225   0.55328   0.53220   0.00000  Uiso   1.00
O85    O     0.14776   0.94669   0.53193   0.00000  Uiso   1.00
O86    O     0.50004   0.74990   0.04728   0.00000  Uiso   1.00
N87    N     0.69503   0.57115   0.48570   0.00000  Uiso   1.00
N88    N     0.19300   0.85150   0.48552   0.00000  Uiso   1.00
N89    N     0.44401   0.71128   0.14016   0.00000  Uiso   1.00
N90    N     0.80707   0.64843   0.48569   0.00000  Uiso   1.00
N91    N     0.30504   0.92878   0.48552   0.00000  Uiso   1.00
N92    N     0.55605   0.78855   0.14016   0.00000  Uiso   1.00
C93    C     0.93401   0.79532   0.14295   0.00000  Uiso   1.00
C94    C     0.03322   0.81334   0.11122   0.00000  Uiso   1.00
C95    C     0.05406   0.87144   0.08453   0.00000  Uiso   1.00
C96    C     0.14930   0.87856   0.05781   0.00000  Uiso   1.00
C97    C     0.29241   0.91402   0.00851   0.00000  Uiso   1.00
C98    C     0.89515   0.73587   0.11121   0.00000  Uiso   1.00
C99    C     0.79989   0.72885   0.08452   0.00000  Uiso   1.00
C100   C     0.77891   0.67075   0.05780   0.00000  Uiso   1.00
C101   C     0.70763   0.58593   0.00853   0.00000  Uiso   1.00
C102   C     0.96419   0.77459   0.20641   0.00000  Uiso   1.00
C103   C     0.92696   0.80010   0.25978   0.00000  Uiso   1.00
C104   C     0.96408   0.77459   0.31321   0.00000  Uiso   1.00
C105   C    -0.00001   0.74989   0.41175   0.00000  Uiso   1.00
C106   C     0.06610   0.70463   0.14294   0.00000  Uiso   1.00
C107   C     0.10496   0.76408   0.11121   0.00000  Uiso   1.00
C108   C     0.20020   0.77111   0.08453   0.00000  Uiso   1.00
C109   C     0.22118   0.82921   0.05781   0.00000  Uiso   1.00
C110   C     0.96689   0.68662   0.11120   0.00000  Uiso   1.00
C111   C     0.94604   0.62851   0.08451   0.00000  Uiso   1.00
C112   C     0.85078   0.62140   0.05779   0.00000  Uiso   1.00
C113   C     0.03593   0.72534   0.20641   0.00000  Uiso   1.00
C114   C     0.07311   0.69977   0.25977   0.00000  Uiso   1.00
C115   C     0.03595   0.72525   0.31320   0.00000  Uiso   1.00
H116   H     0.87815   0.83366   0.14295   0.00000  Uiso   1.00
H117   H     0.99851   0.90955   0.08454   0.00000  Uiso   1.00
H118   H     0.74439   0.76697   0.08454   0.00000  Uiso   1.00
H119   H     0.87144   0.83822   0.25976   0.00000  Uiso   1.00
H120   H     0.16357   0.97195   0.01976   0.00000  Uiso   1.00
H121   H     0.62773   0.67131   0.01977   0.00000  Uiso   1.00
H122   H     0.89564   0.82156   0.38927   0.00000  Uiso   1.00
H123   H     0.12196   0.66628   0.14294   0.00000  Uiso   1.00
H124   H     0.25571   0.73298   0.08453   0.00000  Uiso   1.00
H125   H     0.00158   0.59041   0.08452   0.00000  Uiso   1.00
H126   H     0.12863   0.66166   0.25975   0.00000  Uiso   1.00
H127   H     0.37233   0.82864   0.01975   0.00000  Uiso   1.00
H128   H     0.83647   0.52800   0.01976   0.00000  Uiso   1.00
H129   H     0.10439   0.67825   0.38926   0.00000  Uiso   1.00
O130   O     0.35152   0.94719   0.98132   0.00000  Uiso   1.00
O131   O     0.64850   0.55276   0.98134   0.00000  Uiso   1.00
O132   O    -0.00001   0.74988   0.46611   0.00000  Uiso   1.00
N133   N     0.19436   0.92907   0.02779   0.00000  Uiso   1.00
N134   N     0.69338   0.64800   0.02779   0.00000  Uiso   1.00
N135   N     0.94383   0.78845   0.37324   0.00000  Uiso   1.00
N136   N     0.30669   0.85196   0.02778   0.00000  Uiso   1.00
N137   N     0.80571   0.57089   0.02778   0.00000  Uiso   1.00
N138   N     0.05616   0.71134   0.37323   0.00000  Uiso   1.00
C139   C     0.56580   0.20449   0.12955   0.00000  Uiso   1.00
C140   C     0.46653   0.18662   0.09780   0.00000  Uiso   1.00
C141   C     0.44548   0.12856   0.07109   0.00000  Uiso   1.00
C142   C     0.35021   0.12159   0.04435   0.00000  Uiso   1.00
C143   C     0.20698   0.08635   0.99502   0.00000  Uiso   1.00
C144   C     0.60489   0.26389   0.09784   0.00000  Uiso   1.00
C145   C     0.70018   0.27079   0.07117   0.00000  Uiso   1.00
C146   C     0.72138   0.32887   0.04447   0.00000  Uiso   1.00
C147   C     0.79298   0.41360   0.99523   0.00000  Uiso   1.00
C148   C     0.53570   0.22523   0.19301   0.00000  Uiso   1.00
C149   C     0.57283   0.19964   0.24638   0.00000  Uiso   1.00
C150   C     0.53580   0.22519   0.29981   0.00000  Uiso   1.00
C151   C     0.49996   0.24990   0.39836   0.00000  Uiso   1.00
C152   C     0.43405   0.29536   0.12956   0.00000  Uiso   1.00
C153   C     0.39497   0.23598   0.09780   0.00000  Uiso   1.00
C154   C     0.29971   0.22910   0.07110   0.00000  Uiso   1.00
C155   C     0.27852   0.17104   0.04436   0.00000  Uiso   1.00
C156   C     0.53334   0.31324   0.09784   0.00000  Uiso   1.00
C157   C     0.55441   0.37133   0.07117   0.00000  Uiso   1.00
C158   C     0.64969   0.37832   0.04447   0.00000  Uiso   1.00
C159   C     0.46414   0.27459   0.19302   0.00000  Uiso   1.00
C160   C     0.42705   0.30019   0.24638   0.00000  Uiso   1.00
C161   C     0.46411   0.27464   0.29982   0.00000  Uiso   1.00
H162   H     0.62152   0.16606   0.12955   0.00000  Uiso   1.00
H163   H     0.50089   0.09037   0.07109   0.00000  Uiso   1.00
H164   H     0.75554   0.23258   0.07118   0.00000  Uiso   1.00
H165   H     0.62820   0.16145   0.24636   0.00000  Uiso   1.00
H166   H     0.33559   0.02823   0.00627   0.00000  Uiso   1.00
H167   H     0.87256   0.32810   0.00647   0.00000  Uiso   1.00
H168   H     0.60405   0.17810   0.37587   0.00000  Uiso   1.00
H169   H     0.37834   0.33379   0.12956   0.00000  Uiso   1.00
H170   H     0.24435   0.26731   0.07111   0.00000  Uiso   1.00
H171   H     0.49901   0.40952   0.07119   0.00000  Uiso   1.00
H172   H     0.37167   0.33838   0.24637   0.00000  Uiso   1.00
H173   H     0.12738   0.17184   0.00628   0.00000  Uiso   1.00
H174   H     0.66436   0.47171   0.00647   0.00000  Uiso   1.00
H175   H     0.39584   0.32171   0.37587   0.00000  Uiso   1.00
O176   O     0.14775   0.05328   0.96780   0.00000  Uiso   1.00
O177   O     0.85224   0.44669   0.96807   0.00000  Uiso   1.00
O178   O     0.49996   0.24990   0.45272   0.00000  Uiso   1.00
N179   N     0.30497   0.07115   0.01430   0.00000  Uiso   1.00
N180   N     0.80700   0.35150   0.01448   0.00000  Uiso   1.00
N181   N     0.55599   0.21128   0.35984   0.00000  Uiso   1.00
N182   N     0.19293   0.14843   0.01431   0.00000  Uiso   1.00
N183   N     0.69496   0.42878   0.01448   0.00000  Uiso   1.00
N184   N     0.44395   0.28855   0.35984   0.00000  Uiso   1.00
C185   C     0.93401   0.70468   0.64295   0.00000  Uiso   1.00
C186   C     0.03322   0.68666   0.61122   0.00000  Uiso   1.00
C187   C     0.05406   0.62856   0.58453   0.00000  Uiso   1.00
C188   C     0.14930   0.62144   0.55781   0.00000  Uiso   1.00
C189   C     0.29241   0.58598   0.50851   0.00000  Uiso   1.00
C190   C     0.89515   0.76413   0.61121   0.00000  Uiso   1.00
C191   C     0.79989   0.77115   0.58452   0.00000  Uiso   1.00
C192   C     0.77891   0.82925   0.55780   0.00000  Uiso   1.00
C193   C     0.70763   0.91407   0.50853   0.00000  Uiso   1.00
C194   C     0.96419   0.72541   0.70641   0.00000  Uiso   1.00
C195   C     0.92696   0.69990   0.75978   0.00000  Uiso   1.00
C196   C     0.96408   0.72541   0.81321   0.00000  Uiso   1.00
C197   C    -0.00001   0.75011   0.91175   0.00000  Uiso   1.00
C198   C     0.06610   0.79537   0.64294   0.00000  Uiso   1.00
C199   C     0.10496   0.73592   0.61121   0.00000  Uiso   1.00
C200   C     0.20020   0.72889   0.58453   0.00000  Uiso   1.00
C201   C     0.22118   0.67079   0.55781   0.00000  Uiso   1.00
C202   C     0.96689   0.81338   0.61120   0.00000  Uiso   1.00
C203   C     0.94604   0.87149   0.58451   0.00000  Uiso   1.00
C204   C     0.85078   0.87860   0.55779   0.00000  Uiso   1.00
C205   C     0.03593   0.77466   0.70641   0.00000  Uiso   1.00
C206   C     0.07311   0.80023   0.75977   0.00000  Uiso   1.00
C207   C     0.03595   0.77475   0.81320   0.00000  Uiso   1.00
H208   H     0.87815   0.66634   0.64295   0.00000  Uiso   1.00
H209   H     0.99851   0.59045   0.58454   0.00000  Uiso   1.00
H210   H     0.74439   0.73303   0.58454   0.00000  Uiso   1.00
H211   H     0.87144   0.66178   0.75976   0.00000  Uiso   1.00
H212   H     0.16357   0.52805   0.51976   0.00000  Uiso   1.00
H213   H     0.62773   0.82869   0.51977   0.00000  Uiso   1.00
H214   H     0.89564   0.67844   0.88927   0.00000  Uiso   1.00
H215   H     0.12196   0.83372   0.64294   0.00000  Uiso   1.00
H216   H     0.25571   0.76702   0.58453   0.00000  Uiso   1.00
H217   H     0.00158   0.90959   0.58452   0.00000  Uiso   1.00
H218   H     0.12863   0.83834   0.75975   0.00000  Uiso   1.00
H219   H     0.37233   0.67136   0.51975   0.00000  Uiso   1.00
H220   H     0.83647   0.97200   0.51976   0.00000  Uiso   1.00
H221   H     0.10439   0.82175   0.88926   0.00000  Uiso   1.00
O222   O     0.35152   0.55281   0.48132   0.00000  Uiso   1.00
O223   O     0.64850   0.94724   0.48134   0.00000  Uiso   1.00
O224   O    -0.00001   0.75012   0.96611   0.00000  Uiso   1.00
N225   N     0.19436   0.57093   0.52779   0.00000  Uiso   1.00
N226   N     0.69338   0.85200   0.52779   0.00000  Uiso   1.00
N227   N     0.94383   0.71155   0.87324   0.00000  Uiso   1.00
N228   N     0.30669   0.64804   0.52778   0.00000  Uiso   1.00
N229   N     0.80571   0.92911   0.52778   0.00000  Uiso   1.00
N230   N     0.05616   0.78866   0.87323   0.00000  Uiso   1.00
C231   C     0.56580   0.29551   0.62955   0.00000  Uiso   1.00
C232   C     0.46653   0.31338   0.59780   0.00000  Uiso   1.00
C233   C     0.44548   0.37144   0.57109   0.00000  Uiso   1.00
C234   C     0.35021   0.37841   0.54435   0.00000  Uiso   1.00
C235   C     0.20698   0.41365   0.49502   0.00000  Uiso   1.00
C236   C     0.60489   0.23611   0.59784   0.00000  Uiso   1.00
C237   C     0.70018   0.22921   0.57117   0.00000  Uiso   1.00
C238   C     0.72138   0.17113   0.54447   0.00000  Uiso   1.00
C239   C     0.79298   0.08640   0.49523   0.00000  Uiso   1.00
C240   C     0.53570   0.27477   0.69301   0.00000  Uiso   1.00
C241   C     0.57283   0.30036   0.74638   0.00000  Uiso   1.00
C242   C     0.53580   0.27481   0.79981   0.00000  Uiso   1.00
C243   C     0.49996   0.25010   0.89836   0.00000  Uiso   1.00
C244   C     0.43405   0.20464   0.62956   0.00000  Uiso   1.00
C245   C     0.39497   0.26402   0.59780   0.00000  Uiso   1.00
C246   C     0.29971   0.27090   0.57110   0.00000  Uiso   1.00
C247   C     0.27852   0.32896   0.54436   0.00000  Uiso   1.00
C248   C     0.53334   0.18676   0.59784   0.00000  Uiso   1.00
C249   C     0.55441   0.12867   0.57117   0.00000  Uiso   1.00
C250   C     0.64969   0.12168   0.54447   0.00000  Uiso   1.00
C251   C     0.46414   0.22541   0.69302   0.00000  Uiso   1.00
C252   C     0.42705   0.19981   0.74638   0.00000  Uiso   1.00
C253   C     0.46411   0.22536   0.79982   0.00000  Uiso   1.00
H254   H     0.62152   0.33394   0.62955   0.00000  Uiso   1.00
H255   H     0.50089   0.40963   0.57109   0.00000  Uiso   1.00
H256   H     0.75554   0.26742   0.57118   0.00000  Uiso   1.00
H257   H     0.62820   0.33855   0.74636   0.00000  Uiso   1.00
H258   H     0.33559   0.47177   0.50627   0.00000  Uiso   1.00
H259   H     0.87256   0.17190   0.50647   0.00000  Uiso   1.00
H260   H     0.60405   0.32190   0.87587   0.00000  Uiso   1.00
H261   H     0.37834   0.16621   0.62956   0.00000  Uiso   1.00
H262   H     0.24435   0.23269   0.57111   0.00000  Uiso   1.00
H263   H     0.49901   0.09048   0.57119   0.00000  Uiso   1.00
H264   H     0.37167   0.16162   0.74637   0.00000  Uiso   1.00
H265   H     0.12738   0.32816   0.50628   0.00000  Uiso   1.00
H266   H     0.66436   0.02829   0.50647   0.00000  Uiso   1.00
H267   H     0.39584   0.17829   0.87587   0.00000  Uiso   1.00
O268   O     0.14775   0.44672   0.46780   0.00000  Uiso   1.00
O269   O     0.85224   0.05331   0.46807   0.00000  Uiso   1.00
O270   O     0.49996   0.25010   0.95272   0.00000  Uiso   1.00
N271   N     0.30497   0.42885   0.51430   0.00000  Uiso   1.00
N272   N     0.80700   0.14850   0.51448   0.00000  Uiso   1.00
N273   N     0.55599   0.28872   0.85984   0.00000  Uiso   1.00
N274   N     0.19293   0.35157   0.51431   0.00000  Uiso   1.00
N275   N     0.69496   0.07122   0.51448   0.00000  Uiso   1.00
N276   N     0.44395   0.21145   0.85984   0.00000  Uiso   1.00
C277   C     0.06599   0.20468   0.85705   0.00000  Uiso   1.00
C278   C     0.96678   0.18666   0.88878   0.00000  Uiso   1.00
C279   C     0.94594   0.12856   0.91547   0.00000  Uiso   1.00
C280   C     0.85070   0.12144   0.94219   0.00000  Uiso   1.00
C281   C     0.70759   0.08598   0.99149   0.00000  Uiso   1.00
C282   C     0.10485   0.26413   0.88879   0.00000  Uiso   1.00
C283   C     0.20011   0.27115   0.91548   0.00000  Uiso   1.00
C284   C     0.22109   0.32925   0.94220   0.00000  Uiso   1.00
C285   C     0.29237   0.41407   0.99147   0.00000  Uiso   1.00
C286   C     0.03581   0.22541   0.79359   0.00000  Uiso   1.00
C287   C     0.07304   0.19990   0.74022   0.00000  Uiso   1.00
C288   C     0.03592   0.22541   0.68679   0.00000  Uiso   1.00
C289   C     0.00001   0.25011   0.58825   0.00000  Uiso   1.00
C290   C     0.93390   0.29537   0.85706   0.00000  Uiso   1.00
C291   C     0.89504   0.23592   0.88879   0.00000  Uiso   1.00
C292   C     0.79980   0.22889   0.91547   0.00000  Uiso   1.00
C293   C     0.77882   0.17079   0.94219   0.00000  Uiso   1.00
C294   C     0.03311   0.31338   0.88880   0.00000  Uiso   1.00
C295   C     0.05396   0.37149   0.91549   0.00000  Uiso   1.00
C296   C     0.14922   0.37860   0.94221   0.00000  Uiso   1.00
C297   C     0.96407   0.27466   0.79359   0.00000  Uiso   1.00
C298   C     0.92689   0.30023   0.74023   0.00000  Uiso   1.00
C299   C     0.96405   0.27475   0.68680   0.00000  Uiso   1.00
H300   H     0.12185   0.16634   0.85705   0.00000  Uiso   1.00
H301   H     0.00149   0.09045   0.91546   0.00000  Uiso   1.00
H302   H     0.25561   0.23303   0.91546   0.00000  Uiso   1.00
H303   H     0.12856   0.16178   0.74024   0.00000  Uiso   1.00
H304   H     0.83643   0.02805   0.98024   0.00000  Uiso   1.00
H305   H     0.37227   0.32869   0.98023   0.00000  Uiso   1.00
H306   H     0.10436   0.17844   0.61073   0.00000  Uiso   1.00
H307   H     0.87804   0.33372   0.85706   0.00000  Uiso   1.00
H308   H     0.74429   0.26702   0.91547   0.00000  Uiso   1.00
H309   H     0.99842   0.40959   0.91548   0.00000  Uiso   1.00
H310   H     0.87137   0.33834   0.74025   0.00000  Uiso   1.00
H311   H     0.62767   0.17136   0.98025   0.00000  Uiso   1.00
H312   H     0.16353   0.47200   0.98024   0.00000  Uiso   1.00
H313   H     0.89561   0.32175   0.61074   0.00000  Uiso   1.00
O314   O     0.64848   0.05281   0.01868   0.00000  Uiso   1.00
O315   O     0.35150   0.44724   0.01866   0.00000  Uiso   1.00
O316   O     0.00001   0.25012   0.53389   0.00000  Uiso   1.00
N317   N     0.80564   0.07093   0.97221   0.00000  Uiso   1.00
N318   N     0.30662   0.35200   0.97221   0.00000  Uiso   1.00
N319   N     0.05617   0.21155   0.62676   0.00000  Uiso   1.00
N320   N     0.69331   0.14804   0.97222   0.00000  Uiso   1.00
N321   N     0.19429   0.42911   0.97222   0.00000  Uiso   1.00
N322   N     0.94384   0.28866   0.62677   0.00000  Uiso   1.00
C323   C     0.43420   0.79551   0.87045   0.00000  Uiso   1.00
C324   C     0.53347   0.81338   0.90220   0.00000  Uiso   1.00
C325   C     0.55452   0.87144   0.92891   0.00000  Uiso   1.00
C326   C     0.64979   0.87841   0.95565   0.00000  Uiso   1.00
C327   C     0.79302   0.91365   0.00498   0.00000  Uiso   1.00
C328   C     0.39511   0.73611   0.90216   0.00000  Uiso   1.00
C329   C     0.29982   0.72921   0.92883   0.00000  Uiso   1.00
C330   C     0.27862   0.67113   0.95553   0.00000  Uiso   1.00
C331   C     0.20702   0.58640   0.00477   0.00000  Uiso   1.00
C332   C     0.46430   0.77477   0.80699   0.00000  Uiso   1.00
C333   C     0.42717   0.80036   0.75362   0.00000  Uiso   1.00
C334   C     0.46420   0.77481   0.70019   0.00000  Uiso   1.00
C335   C     0.50004   0.75010   0.60164   0.00000  Uiso   1.00
C336   C     0.56595   0.70464   0.87044   0.00000  Uiso   1.00
C337   C     0.60503   0.76402   0.90220   0.00000  Uiso   1.00
C338   C     0.70029   0.77090   0.92890   0.00000  Uiso   1.00
C339   C     0.72148   0.82896   0.95564   0.00000  Uiso   1.00
C340   C     0.46666   0.68676   0.90216   0.00000  Uiso   1.00
C341   C     0.44559   0.62867   0.92883   0.00000  Uiso   1.00
C342   C     0.35031   0.62168   0.95553   0.00000  Uiso   1.00
C343   C     0.53586   0.72541   0.80698   0.00000  Uiso   1.00
C344   C     0.57295   0.69981   0.75362   0.00000  Uiso   1.00
C345   C     0.53589   0.72536   0.70018   0.00000  Uiso   1.00
H346   H     0.37848   0.83394   0.87045   0.00000  Uiso   1.00
H347   H     0.49911   0.90963   0.92891   0.00000  Uiso   1.00
H348   H     0.24446   0.76742   0.92882   0.00000  Uiso   1.00
H349   H     0.37180   0.83855   0.75364   0.00000  Uiso   1.00
H350   H     0.66441   0.97177   0.99373   0.00000  Uiso   1.00
H351   H     0.12744   0.67190   0.99353   0.00000  Uiso   1.00
H352   H     0.39595   0.82190   0.62413   0.00000  Uiso   1.00
H353   H     0.62166   0.66621   0.87044   0.00000  Uiso   1.00
H354   H     0.75565   0.73269   0.92889   0.00000  Uiso   1.00
H355   H     0.50099   0.59048   0.92881   0.00000  Uiso   1.00
H356   H     0.62833   0.66162   0.75363   0.00000  Uiso   1.00
H357   H     0.87262   0.82816   0.99372   0.00000  Uiso   1.00
H358   H     0.33564   0.52829   0.99353   0.00000  Uiso   1.00
H359   H     0.60416   0.67829   0.62413   0.00000  Uiso   1.00
O360   O     0.85225   0.94672   0.03220   0.00000  Uiso   1.00
O361   O     0.14776   0.55331   0.03193   0.00000  Uiso   1.00
O362   O     0.50004   0.75010   0.54728   0.00000  Uiso   1.00
N363   N     0.69503   0.92885   0.98570   0.00000  Uiso   1.00
N364   N     0.19300   0.64850   0.98552   0.00000  Uiso   1.00
N365   N     0.44401   0.78872   0.64016   0.00000  Uiso   1.00
N366   N     0.80707   0.85157   0.98569   0.00000  Uiso   1.00
N367   N     0.30504   0.57122   0.98552   0.00000  Uiso   1.00
N368   N     0.55605   0.71145   0.64016   0.00000  Uiso   1.00
