data_job_06617
_audit_creation_date              2018-12-19
_audit_creation_method            'Materials Studio'
_symmetry_space_group_name_H-M    'P1'
_symmetry_Int_Tables_number       1
_symmetry_cell_setting            triclinic
loop_
_symmetry_equiv_pos_as_xyz
  x,y,z
_cell_length_a                    17.7960
_cell_length_b                    20.5997
_cell_length_c                    27.2103
_cell_angle_alpha                 103.6040
_cell_angle_beta                  85.1446
_cell_angle_gamma                 65.2667
loop_
_atom_site_label
_atom_site_type_symbol
_atom_site_fract_x
_atom_site_fract_y
_atom_site_fract_z
_atom_site_U_iso_or_equiv
_atom_site_adp_type
_atom_site_occupancy
C1     C     0.50479   0.92545   0.85546   0.00000  Uiso   1.00
C2     C     0.45431   0.00458   0.85227   0.00000  Uiso   1.00
C3     C     0.36716   0.04689   0.86720   0.00000  Uiso   1.00
C4     C     0.33304   0.11803   0.86121   0.00000  Uiso   1.00
C5     C     0.24686   0.23665   0.85932   0.00000  Uiso   1.00
C6     C     0.55505   0.87772   0.80087   0.00000  Uiso   1.00
C7     C     0.55260   0.81336   0.77257   0.00000  Uiso   1.00
C8     C     0.60329   0.77771   0.72331   0.00000  Uiso   1.00
C9     C     0.67355   0.69935   0.64162   0.00000  Uiso   1.00
C10    C     0.56969   0.92909   0.88775   0.00000  Uiso   1.00
C11    C     0.57958   0.90791   0.93250   0.00000  Uiso   1.00
C12    C     0.64262   0.91550   0.95638   0.00000  Uiso   1.00
C13    C     0.73563   0.91691   0.00959   0.00000  Uiso   1.00
C14    C     0.59919   0.97657   0.81828   0.00000  Uiso   1.00
C15    C     0.50559   0.03234   0.83208   0.00000  Uiso   1.00
C16    C     0.47160   0.10344   0.82607   0.00000  Uiso   1.00
C17    C     0.38441   0.14585   0.84099   0.00000  Uiso   1.00
C18    C     0.60632   0.90548   0.78067   0.00000  Uiso   1.00
C19    C     0.65704   0.86991   0.73144   0.00000  Uiso   1.00
C20    C     0.65466   0.80552   0.70308   0.00000  Uiso   1.00
C21    C     0.62097   0.95686   0.86756   0.00000  Uiso   1.00
C22    C     0.68402   0.96447   0.89137   0.00000  Uiso   1.00
C23    C     0.69399   0.94331   0.93615   0.00000  Uiso   1.00
H24    H     0.46487   0.90383   0.87117   0.00000  Uiso   1.00
H25    H     0.32749   0.02538   0.88282   0.00000  Uiso   1.00
H26    H     0.51292   0.79188   0.78821   0.00000  Uiso   1.00
H27    H     0.53989   0.88643   0.94811   0.00000  Uiso   1.00
H28    H     0.19780   0.17237   0.88681   0.00000  Uiso   1.00
H29    H     0.58879   0.68002   0.68733   0.00000  Uiso   1.00
H30    H     0.64567   0.87938   0.02451   0.00000  Uiso   1.00
H31    H     0.63911   0.99818   0.80256   0.00000  Uiso   1.00
H32    H     0.51129   0.12491   0.81045   0.00000  Uiso   1.00
H33    H     0.69671   0.89141   0.71583   0.00000  Uiso   1.00
H34    H     0.72368   0.98596   0.87574   0.00000  Uiso   1.00
H35    H     0.34697   0.25315   0.82807   0.00000  Uiso   1.00
H36    H     0.73797   0.76079   0.62858   0.00000  Uiso   1.00
H37    H     0.79485   0.96016   0.96577   0.00000  Uiso   1.00
O38    O     0.18516   0.29441   0.86385   0.00000  Uiso   1.00
O39    O     0.69813   0.64846   0.60214   0.00000  Uiso   1.00
O40    O     0.77276   0.91002   0.04452   0.00000  Uiso   1.00
N41    N     0.25045   0.17399   0.87191   0.00000  Uiso   1.00
N42    N     0.61599   0.71368   0.68540   0.00000  Uiso   1.00
N43    N     0.66919   0.90005   0.00064   0.00000  Uiso   1.00
N44    N     0.33072   0.21746   0.84030   0.00000  Uiso   1.00
N45    N     0.69626   0.75715   0.65379   0.00000  Uiso   1.00
N46    N     0.74946   0.94352   0.96903   0.00000  Uiso   1.00
C47    C     0.10528   0.68554   0.78947   0.00000  Uiso   1.00
C48    C     0.19851   0.65545   0.76564   0.00000  Uiso   1.00
C49    C     0.24763   0.69230   0.77697   0.00000  Uiso   1.00
C50    C     0.33159   0.65532   0.75102   0.00000  Uiso   1.00
C51    C     0.47123   0.61945   0.71946   0.00000  Uiso   1.00
C52    C     0.06012   0.68414   0.74433   0.00000  Uiso   1.00
C53    C     0.99288   0.74512   0.73775   0.00000  Uiso   1.00
C54    C     0.96035   0.73229   0.69386   0.00000  Uiso   1.00
C55    C     0.88510   0.74096   0.62924   0.00000  Uiso   1.00
C56    C     0.09955   0.62712   0.81306   0.00000  Uiso   1.00
C57    C     0.06544   0.64016   0.86426   0.00000  Uiso   1.00
C58    C     0.06609   0.57932   0.87823   0.00000  Uiso   1.00
C59    C     0.05206   0.49946   0.92032   0.00000  Uiso   1.00
C60    C     0.16706   0.55434   0.72324   0.00000  Uiso   1.00
C61    C     0.23206   0.58419   0.72967   0.00000  Uiso   1.00
C62    C     0.31598   0.54714   0.70369   0.00000  Uiso   1.00
C63    C     0.36521   0.58393   0.71498   0.00000  Uiso   1.00
C64    C     0.09368   0.61289   0.70836   0.00000  Uiso   1.00
C65    C     0.06123   0.59996   0.66447   0.00000  Uiso   1.00
C66    C     0.99396   0.66090   0.65782   0.00000  Uiso   1.00
C67    C     0.13311   0.55586   0.77708   0.00000  Uiso   1.00
C68    C     0.13380   0.49500   0.79098   0.00000  Uiso   1.00
C69    C     0.09970   0.50793   0.84219   0.00000  Uiso   1.00
H70    H     0.07915   0.74102   0.81748   0.00000  Uiso   1.00
H71    H     0.22163   0.74745   0.80481   0.00000  Uiso   1.00
H72    H     0.96692   0.80025   0.76559   0.00000  Uiso   1.00
H73    H     0.03948   0.69531   0.89208   0.00000  Uiso   1.00
H74    H     0.39438   0.72316   0.77488   0.00000  Uiso   1.00
H75    H     0.85730   0.83450   0.69220   0.00000  Uiso   1.00
H76    H     0.01029   0.61320   0.95894   0.00000  Uiso   1.00
H77    H     0.19319   0.49886   0.69523   0.00000  Uiso   1.00
H78    H     0.34193   0.49200   0.67585   0.00000  Uiso   1.00
H79    H     0.08722   0.54481   0.63664   0.00000  Uiso   1.00
H80    H     0.15977   0.43986   0.76313   0.00000  Uiso   1.00
H81    H     0.49202   0.51583   0.67021   0.00000  Uiso   1.00
H82    H     0.95493   0.62717   0.58754   0.00000  Uiso   1.00
H83    H     0.10793   0.40587   0.85427   0.00000  Uiso   1.00
O84    O     0.53898   0.61936   0.71199   0.00000  Uiso   1.00
O85    O     0.83433   0.76543   0.60353   0.00000  Uiso   1.00
O86    O     0.03506   0.47509   0.95348   0.00000  Uiso   1.00
N87    N     0.39695   0.67530   0.75291   0.00000  Uiso   1.00
N88    N     0.89482   0.77940   0.67561   0.00000  Uiso   1.00
N89    N     0.03783   0.57251   0.92498   0.00000  Uiso   1.00
N90    N     0.44949   0.56374   0.69659   0.00000  Uiso   1.00
N91    N     0.94736   0.66784   0.61930   0.00000  Uiso   1.00
N92    N     0.09037   0.46095   0.86867   0.00000  Uiso   1.00
C93    C     0.85325   0.44973   0.79496   0.00000  Uiso   1.00
C94    C     0.80370   0.40427   0.78874   0.00000  Uiso   1.00
C95    C     0.83167   0.33218   0.79253   0.00000  Uiso   1.00
C96    C     0.77691   0.30024   0.78559   0.00000  Uiso   1.00
C97    C     0.71212   0.22373   0.77748   0.00000  Uiso   1.00
C98    C     0.85797   0.47144   0.74535   0.00000  Uiso   1.00
C99    C     0.93158   0.45584   0.71267   0.00000  Uiso   1.00
C100   C     0.92250   0.48047   0.66921   0.00000  Uiso   1.00
C101   C     0.94197   0.50829   0.59376   0.00000  Uiso   1.00
C102   C     0.79735   0.52247   0.83772   0.00000  Uiso   1.00
C103   C     0.81999   0.54979   0.88270   0.00000  Uiso   1.00
C104   C     0.75987   0.61739   0.91700   0.00000  Uiso   1.00
C105   C     0.68522   0.72444   0.98497   0.00000  Uiso   1.00
C106   C     0.70624   0.52122   0.77589   0.00000  Uiso   1.00
C107   C     0.72385   0.44310   0.77838   0.00000  Uiso   1.00
C108   C     0.66902   0.41126   0.77144   0.00000  Uiso   1.00
C109   C     0.69691   0.33914   0.77522   0.00000  Uiso   1.00
C110   C     0.77812   0.51027   0.73499   0.00000  Uiso   1.00
C111   C     0.76893   0.53493   0.69158   0.00000  Uiso   1.00
C112   C     0.84250   0.51936   0.65883   0.00000  Uiso   1.00
C113   C     0.71749   0.56130   0.82737   0.00000  Uiso   1.00
C114   C     0.65733   0.62887   0.86160   0.00000  Uiso   1.00
C115   C     0.67987   0.65629   0.90663   0.00000  Uiso   1.00
H116   H     0.91543   0.41951   0.80302   0.00000  Uiso   1.00
H117   H     0.89348   0.30215   0.80054   0.00000  Uiso   1.00
H118   H     0.99337   0.42580   0.72069   0.00000  Uiso   1.00
H119   H     0.88179   0.51973   0.89070   0.00000  Uiso   1.00
H120   H     0.83394   0.18914   0.79320   0.00000  Uiso   1.00
H121   H     0.04456   0.44990   0.62486   0.00000  Uiso   1.00
H122   H     0.80928   0.64797   0.98334   0.00000  Uiso   1.00
H123   H     0.64407   0.55145   0.76783   0.00000  Uiso   1.00
H124   H     0.60723   0.44132   0.76342   0.00000  Uiso   1.00
H125   H     0.70712   0.56498   0.68358   0.00000  Uiso   1.00
H126   H     0.59554   0.65890   0.85358   0.00000  Uiso   1.00
H127   H     0.60162   0.30210   0.76308   0.00000  Uiso   1.00
H128   H     0.81224   0.56286   0.59473   0.00000  Uiso   1.00
H129   H     0.57695   0.76092   0.95321   0.00000  Uiso   1.00
O130   O     0.69845   0.17079   0.77586   0.00000  Uiso   1.00
O131   O     0.97478   0.51290   0.55500   0.00000  Uiso   1.00
O132   O     0.66609   0.77276   0.02532   0.00000  Uiso   1.00
N133   N     0.78431   0.23085   0.78673   0.00000  Uiso   1.00
N134   N     0.98123   0.47463   0.62933   0.00000  Uiso   1.00
N135   N     0.76127   0.65981   0.96447   0.00000  Uiso   1.00
N136   N     0.65930   0.29163   0.77052   0.00000  Uiso   1.00
N137   N     0.85622   0.53541   0.61312   0.00000  Uiso   1.00
N138   N     0.63626   0.72059   0.94826   0.00000  Uiso   1.00
C139   C     0.92608   0.99310   0.38118   0.00000  Uiso   1.00
C140   C     0.98928   0.99426   0.34030   0.00000  Uiso   1.00
C141   C     0.07370   0.97488   0.34121   0.00000  Uiso   1.00
C142   C     0.12104   0.97965   0.30018   0.00000  Uiso   1.00
C143   C     0.22464   0.97785   0.24286   0.00000  Uiso   1.00
C144   C     0.89100   0.94252   0.35260   0.00000  Uiso   1.00
C145   C     0.89276   0.87966   0.36387   0.00000  Uiso   1.00
C146   C     0.85736   0.84089   0.33320   0.00000  Uiso   1.00
C147   C     0.80831   0.75881   0.29500   0.00000  Uiso   1.00
C148   C     0.85273   0.07194   0.39957   0.00000  Uiso   1.00
C149   C     0.82230   0.11789   0.45033   0.00000  Uiso   1.00
C150   C     0.75466   0.18808   0.45920   0.00000  Uiso   1.00
C151   C     0.64619   0.30694   0.49392   0.00000  Uiso   1.00
C152   C     0.86006   0.03603   0.30669   0.00000  Uiso   1.00
C153   C     0.95342   0.01757   0.29984   0.00000  Uiso   1.00
C154   C     0.00065   0.02237   0.25880   0.00000  Uiso   1.00
C155   C     0.08512   0.00301   0.25965   0.00000  Uiso   1.00
C156   C     0.85513   0.96584   0.31215   0.00000  Uiso   1.00
C157   C     0.81971   0.92715   0.28146   0.00000  Uiso   1.00
C158   C     0.82143   0.86425   0.29267   0.00000  Uiso   1.00
C159   C     0.81686   0.09526   0.35911   0.00000  Uiso   1.00
C160   C     0.74925   0.16539   0.36791   0.00000  Uiso   1.00
C161   C     0.71873   0.21144   0.41867   0.00000  Uiso   1.00
H162   H     0.95400   0.97495   0.41267   0.00000  Uiso   1.00
H163   H     0.10143   0.95683   0.37253   0.00000  Uiso   1.00
H164   H     0.92052   0.86163   0.39518   0.00000  Uiso   1.00
H165   H     0.85006   0.09983   0.48162   0.00000  Uiso   1.00
H166   H     0.24907   0.94700   0.31017   0.00000  Uiso   1.00
H167   H     0.86758   0.74629   0.35795   0.00000  Uiso   1.00
H168   H     0.71902   0.24857   0.54023   0.00000  Uiso   1.00
H169   H     0.83213   0.05419   0.27519   0.00000  Uiso   1.00
H170   H     0.97288   0.04042   0.22750   0.00000  Uiso   1.00
H171   H     0.79196   0.94522   0.25015   0.00000  Uiso   1.00
H172   H     0.72151   0.18341   0.33659   0.00000  Uiso   1.00
H173   H     0.14474   0.01484   0.19245   0.00000  Uiso   1.00
H174   H     0.76324   0.81413   0.24024   0.00000  Uiso   1.00
H175   H     0.61468   0.31641   0.42252   0.00000  Uiso   1.00
O176   O     0.29169   0.97041   0.22241   0.00000  Uiso   1.00
O177   O     0.79118   0.70709   0.28511   0.00000  Uiso   1.00
O178   O     0.59627   0.36607   0.52425   0.00000  Uiso   1.00
N179   N     0.20520   0.96487   0.28902   0.00000  Uiso   1.00
N180   N     0.84854   0.77721   0.33368   0.00000  Uiso   1.00
N181   N     0.70963   0.24679   0.50410   0.00000  Uiso   1.00
N182   N     0.14905   0.00138   0.22567   0.00000  Uiso   1.00
N183   N     0.79239   0.81371   0.27034   0.00000  Uiso   1.00
N184   N     0.65349   0.28330   0.44076   0.00000  Uiso   1.00
C185   C     0.66455   0.45948   0.41729   0.00000  Uiso   1.00
C186   C     0.66492   0.53411   0.41991   0.00000  Uiso   1.00
C187   C     0.68181   0.57742   0.46055   0.00000  Uiso   1.00
C188   C     0.67902   0.64389   0.45555   0.00000  Uiso   1.00
C189   C     0.68252   0.75636   0.46631   0.00000  Uiso   1.00
C190   C     0.72728   0.40327   0.36790   0.00000  Uiso   1.00
C191   C     0.79659   0.33658   0.36481   0.00000  Uiso   1.00
C192   C     0.84629   0.29290   0.31601   0.00000  Uiso   1.00
C193   C     0.94657   0.20223   0.24602   0.00000  Uiso   1.00
C194   C     0.57749   0.46916   0.40845   0.00000  Uiso   1.00
C195   C     0.52087   0.45784   0.43944   0.00000  Uiso   1.00
C196   C     0.44447   0.46961   0.42478   0.00000  Uiso   1.00
C197   C     0.31219   0.48123   0.41775   0.00000  Uiso   1.00
C198   C     0.62956   0.50049   0.33614   0.00000  Uiso   1.00
C199   C     0.64591   0.55638   0.37583   0.00000  Uiso   1.00
C200   C     0.64310   0.62280   0.37077   0.00000  Uiso   1.00
C201   C     0.65998   0.66621   0.41139   0.00000  Uiso   1.00
C202   C     0.70827   0.42555   0.32382   0.00000  Uiso   1.00
C203   C     0.75788   0.38196   0.27502   0.00000  Uiso   1.00
C204   C     0.82726   0.31522   0.27186   0.00000  Uiso   1.00
C205   C     0.55848   0.49143   0.36437   0.00000  Uiso   1.00
C206   C     0.48216   0.50322   0.34966   0.00000  Uiso   1.00
C207   C     0.42543   0.49193   0.38063   0.00000  Uiso   1.00
H208   H     0.67935   0.44213   0.45160   0.00000  Uiso   1.00
H209   H     0.69652   0.56016   0.49465   0.00000  Uiso   1.00
H210   H     0.81128   0.31935   0.39892   0.00000  Uiso   1.00
H211   H     0.53560   0.44060   0.47355   0.00000  Uiso   1.00
H212   H     0.70721   0.70083   0.52294   0.00000  Uiso   1.00
H213   H     0.94916   0.19306   0.32108   0.00000  Uiso   1.00
H214   H     0.36784   0.44873   0.47844   0.00000  Uiso   1.00
H215   H     0.61477   0.51784   0.30182   0.00000  Uiso   1.00
H216   H     0.62839   0.64003   0.33665   0.00000  Uiso   1.00
H217   H     0.74315   0.39922   0.24092   0.00000  Uiso   1.00
H218   H     0.46747   0.52046   0.31555   0.00000  Uiso   1.00
H219   H     0.65191   0.76565   0.39470   0.00000  Uiso   1.00
H220   H     0.89387   0.25788   0.19284   0.00000  Uiso   1.00
H221   H     0.31255   0.51355   0.35020   0.00000  Uiso   1.00
O222   O     0.68972   0.81224   0.48442   0.00000  Uiso   1.00
O223   O     0.00714   0.14606   0.21959   0.00000  Uiso   1.00
O224   O     0.24447   0.48150   0.42605   0.00000  Uiso   1.00
N225   N     0.69231   0.69932   0.48798   0.00000  Uiso   1.00
N226   N     0.91853   0.22459   0.29925   0.00000  Uiso   1.00
N227   N     0.37505   0.46360   0.44637   0.00000  Uiso   1.00
N228   N     0.66255   0.73420   0.41897   0.00000  Uiso   1.00
N229   N     0.88878   0.25947   0.23025   0.00000  Uiso   1.00
N230   N     0.34530   0.49848   0.37736   0.00000  Uiso   1.00
C231   C     0.40087   0.27011   0.38135   0.00000  Uiso   1.00
C232   C     0.34299   0.23323   0.37059   0.00000  Uiso   1.00
C233   C     0.25548   0.27039   0.37845   0.00000  Uiso   1.00
C234   C     0.21403   0.22656   0.36621   0.00000  Uiso   1.00
C235   C     0.11738   0.18118   0.35242   0.00000  Uiso   1.00
C236   C     0.46356   0.24368   0.33060   0.00000  Uiso   1.00
C237   C     0.47743   0.28962   0.30484   0.00000  Uiso   1.00
C238   C     0.53748   0.25459   0.25894   0.00000  Uiso   1.00
C239   C     0.62806   0.22544   0.18308   0.00000  Uiso   1.00
C240   C     0.45227   0.23480   0.41839   0.00000  Uiso   1.00
C241   C     0.45667   0.27328   0.46644   0.00000  Uiso   1.00
C242   C     0.50724   0.23077   0.49445   0.00000  Uiso   1.00
C243   C     0.58029   0.18783   0.55490   0.00000  Uiso   1.00
C244   C     0.48287   0.12619   0.34563   0.00000  Uiso   1.00
C245   C     0.38753   0.15506   0.35118   0.00000  Uiso   1.00
C246   C     0.34620   0.11116   0.33892   0.00000  Uiso   1.00
C247   C     0.25865   0.14825   0.34677   0.00000  Uiso   1.00
C248   C     0.50810   0.16551   0.31119   0.00000  Uiso   1.00
C249   C     0.56815   0.13040   0.26532   0.00000  Uiso   1.00
C250   C     0.58210   0.17628   0.23950   0.00000  Uiso   1.00
C251   C     0.49681   0.15663   0.39898   0.00000  Uiso   1.00
C252   C     0.54739   0.11405   0.42691   0.00000  Uiso   1.00
C253   C     0.55186   0.15246   0.47500   0.00000  Uiso   1.00
H254   H     0.36620   0.33097   0.39646   0.00000  Uiso   1.00
H255   H     0.22104   0.33088   0.39346   0.00000  Uiso   1.00
H256   H     0.44296   0.35011   0.31987   0.00000  Uiso   1.00
H257   H     0.42220   0.33377   0.48145   0.00000  Uiso   1.00
H258   H     0.07974   0.29632   0.38157   0.00000  Uiso   1.00
H259   H     0.54769   0.33687   0.22641   0.00000  Uiso   1.00
H260   H     0.50391   0.30241   0.56712   0.00000  Uiso   1.00
H261   H     0.51755   0.06533   0.33052   0.00000  Uiso   1.00
H262   H     0.38069   0.05067   0.32391   0.00000  Uiso   1.00
H263   H     0.60261   0.06990   0.25031   0.00000  Uiso   1.00
H264   H     0.58184   0.05356   0.41189   0.00000  Uiso   1.00
H265   H     0.20932   0.06889   0.32511   0.00000  Uiso   1.00
H266   H     0.67727   0.10944   0.16995   0.00000  Uiso   1.00
H267   H     0.63349   0.07498   0.51066   0.00000  Uiso   1.00
O268   O     0.05177   0.17775   0.35016   0.00000  Uiso   1.00
O269   O     0.66571   0.23096   0.14660   0.00000  Uiso   1.00
O270   O     0.60827   0.18574   0.59361   0.00000  Uiso   1.00
N271   N     0.12902   0.24480   0.36920   0.00000  Uiso   1.00
N272   N     0.56651   0.28272   0.22413   0.00000  Uiso   1.00
N273   N     0.52560   0.25050   0.54266   0.00000  Uiso   1.00
N274   N     0.19874   0.12242   0.33882   0.00000  Uiso   1.00
N275   N     0.63623   0.16034   0.19375   0.00000  Uiso   1.00
N276   N     0.59533   0.12812   0.51228   0.00000  Uiso   1.00
C277   C     0.42023   0.13803   0.11344   0.00000  Uiso   1.00
C278   C     0.47336   0.07513   0.13466   0.00000  Uiso   1.00
C279   C     0.55921   0.02776   0.11686   0.00000  Uiso   1.00
C280   C     0.59622   0.97377   0.14140   0.00000  Uiso   1.00
C281   C     0.68591   0.87708   0.16815   0.00000  Uiso   1.00
C282   C     0.37977   0.20911   0.15929   0.00000  Uiso   1.00
C283   C     0.38692   0.27440   0.16221   0.00000  Uiso   1.00
C284   C     0.34514   0.33321   0.20749   0.00000  Uiso   1.00
C285   C     0.28947   0.44456   0.27246   0.00000  Uiso   1.00
C286   C     0.34798   0.12188   0.09794   0.00000  Uiso   1.00
C287   C     0.32839   0.11385   0.04927   0.00000  Uiso   1.00
C288   C     0.25983   0.09923   0.04290   0.00000  Uiso   1.00
C289   C     0.15482   0.07514   0.01262   0.00000  Uiso   1.00
C290   C     0.33329   0.12639   0.18868   0.00000  Uiso   1.00
C291   C     0.42613   0.06881   0.17552   0.00000  Uiso   1.00
C292   C     0.46303   0.01488   0.20010   0.00000  Uiso   1.00
C293   C     0.54892   0.96744   0.18234   0.00000  Uiso   1.00
C294   C     0.33255   0.20279   0.20016   0.00000  Uiso   1.00
C295   C     0.29074   0.26152   0.24545   0.00000  Uiso   1.00
C296   C     0.29783   0.32688   0.24843   0.00000  Uiso   1.00
C297   C     0.30076   0.11556   0.13881   0.00000  Uiso   1.00
C298   C     0.23221   0.10096   0.13251   0.00000  Uiso   1.00
C299   C     0.21253   0.09290   0.08384   0.00000  Uiso   1.00
H300   H     0.45699   0.14296   0.08163   0.00000  Uiso   1.00
H301   H     0.59573   0.03267   0.08523   0.00000  Uiso   1.00
H302   H     0.42346   0.27928   0.13057   0.00000  Uiso   1.00
H303   H     0.36495   0.11874   0.01766   0.00000  Uiso   1.00
H304   H     0.72874   0.90763   0.10727   0.00000  Uiso   1.00
H305   H     0.36547   0.42762   0.20286   0.00000  Uiso   1.00
H306   H     0.24208   0.08910   0.96475   0.00000  Uiso   1.00
H307   H     0.29652   0.12147   0.22050   0.00000  Uiso   1.00
H308   H     0.42647   0.01000   0.23173   0.00000  Uiso   1.00
H309   H     0.25420   0.25661   0.27706   0.00000  Uiso   1.00
H310   H     0.19568   0.09607   0.16415   0.00000  Uiso   1.00
H311   H     0.59136   0.88923   0.22617   0.00000  Uiso   1.00
H312   H     0.22809   0.40923   0.32176   0.00000  Uiso   1.00
H313   H     0.10470   0.07070   0.08365   0.00000  Uiso   1.00
O314   O     0.74843   0.82551   0.17161   0.00000  Uiso   1.00
O315   O     0.27183   0.50772   0.29702   0.00000  Uiso   1.00
O316   O     0.10995   0.06359   0.98462   0.00000  Uiso   1.00
N317   N     0.67857   0.91859   0.13370   0.00000  Uiso   1.00
N318   N     0.33895   0.40475   0.22308   0.00000  Uiso   1.00
N319   N     0.22358   0.08828   0.00047   0.00000  Uiso   1.00
N320   N     0.60465   0.90869   0.19768   0.00000  Uiso   1.00
N321   N     0.26503   0.39485   0.28706   0.00000  Uiso   1.00
N322   N     0.14965   0.07838   0.06445   0.00000  Uiso   1.00
C323   C     0.84649   0.43905   0.15507   0.00000  Uiso   1.00
C324   C     0.75293   0.45836   0.16608   0.00000  Uiso   1.00
C325   C     0.71754   0.41277   0.14430   0.00000  Uiso   1.00
C326   C     0.63066   0.44062   0.15939   0.00000  Uiso   1.00
C327   C     0.49294   0.45981   0.17109   0.00000  Uiso   1.00
C328   C     0.87239   0.44636   0.20732   0.00000  Uiso   1.00
C329   C     0.93745   0.39068   0.22022   0.00000  Uiso   1.00
C330   C     0.95115   0.40843   0.27004   0.00000  Uiso   1.00
C331   C     0.99894   0.40901   0.34576   0.00000  Uiso   1.00
C332   C     0.85154   0.50186   0.13671   0.00000  Uiso   1.00
C333   C     0.89908   0.49285   0.09025   0.00000  Uiso   1.00
C334   C     0.89524   0.55732   0.08062   0.00000  Uiso   1.00
C335   C     0.91065   0.64406   0.04671   0.00000  Uiso   1.00
C336   C     0.75513   0.56956   0.22060   0.00000  Uiso   1.00
C337   C     0.70330   0.52925   0.20167   0.00000  Uiso   1.00
C338   C     0.61646   0.55717   0.21680   0.00000  Uiso   1.00
C339   C     0.58095   0.51164   0.19504   0.00000  Uiso   1.00
C340   C     0.82277   0.51725   0.24292   0.00000  Uiso   1.00
C341   C     0.83637   0.53509   0.29273   0.00000  Uiso   1.00
C342   C     0.90143   0.47945   0.30570   0.00000  Uiso   1.00
C343   C     0.80191   0.57275   0.17231   0.00000  Uiso   1.00
C344   C     0.79800   0.63725   0.16275   0.00000  Uiso   1.00
C345   C     0.84552   0.62834   0.11628   0.00000  Uiso   1.00
H346   H     0.88512   0.38385   0.12736   0.00000  Uiso   1.00
H347   H     0.75596   0.35791   0.11676   0.00000  Uiso   1.00
H348   H     0.97585   0.33583   0.19267   0.00000  Uiso   1.00
H349   H     0.93748   0.43798   0.06271   0.00000  Uiso   1.00
H350   H     0.59089   0.36040   0.12071   0.00000  Uiso   1.00
H351   H     0.05455   0.31386   0.28077   0.00000  Uiso   1.00
H352   H     0.97364   0.52925   0.00674   0.00000  Uiso   1.00
H353   H     0.71649   0.62476   0.24831   0.00000  Uiso   1.00
H354   H     0.57807   0.61204   0.24434   0.00000  Uiso   1.00
H355   H     0.79796   0.58995   0.32026   0.00000  Uiso   1.00
H356   H     0.75959   0.69210   0.19030   0.00000  Uiso   1.00
H357   H     0.44650   0.56666   0.22427   0.00000  Uiso   1.00
H358   H     0.91017   0.52011   0.38433   0.00000  Uiso   1.00
H359   H     0.82925   0.73550   0.11030   0.00000  Uiso   1.00
O360   O     0.43069   0.45080   0.16771   0.00000  Uiso   1.00
O361   O     0.03900   0.38974   0.37770   0.00000  Uiso   1.00
O362   O     0.93284   0.67233   0.01817   0.00000  Uiso   1.00
N363   N     0.57590   0.41070   0.14562   0.00000  Uiso   1.00
N364   N     0.00939   0.36717   0.29527   0.00000  Uiso   1.00
N365   N     0.93376   0.56854   0.03908   0.00000  Uiso   1.00
N366   N     0.49821   0.52168   0.20134   0.00000  Uiso   1.00
N367   N     0.93169   0.47816   0.35099   0.00000  Uiso   1.00
N368   N     0.85607   0.67953   0.09480   0.00000  Uiso   1.00
C369   C     0.09438   0.63894   0.10564   0.00000  Uiso   1.00
C370   C     0.11448   0.70502   0.11100   0.00000  Uiso   1.00
C371   C     0.06612   0.77082   0.09999   0.00000  Uiso   1.00
C372   C     0.09526   0.82454   0.10742   0.00000  Uiso   1.00
C373   C     0.11507   0.92895   0.11305   0.00000  Uiso   1.00
C374   C     0.09151   0.62623   0.15862   0.00000  Uiso   1.00
C375   C     0.02385   0.62576   0.18765   0.00000  Uiso   1.00
C376   C     0.03368   0.61315   0.23516   0.00000  Uiso   1.00
C377   C     0.01786   0.59517   0.31471   0.00000  Uiso   1.00
C378   C     0.17154   0.57077   0.06977   0.00000  Uiso   1.00
C379   C     0.17117   0.52366   0.02409   0.00000  Uiso   1.00
C380   C     0.24837   0.46434   0.99680   0.00000  Uiso   1.00
C381   C     0.35680   0.36026   0.93839   0.00000  Uiso   1.00
C382   C     0.23214   0.61735   0.13840   0.00000  Uiso   1.00
C383   C     0.18931   0.69329   0.12880   0.00000  Uiso   1.00
C384   C     0.21854   0.74693   0.13624   0.00000  Uiso   1.00
C385   C     0.17023   0.81279   0.12524   0.00000  Uiso   1.00
C386   C     0.16634   0.61450   0.17642   0.00000  Uiso   1.00
C387   C     0.17627   0.60188   0.22389   0.00000  Uiso   1.00
C388   C     0.10864   0.60140   0.25299   0.00000  Uiso   1.00
C389   C     0.24637   0.55904   0.08756   0.00000  Uiso   1.00
C390   C     0.32359   0.49978   0.06034   0.00000  Uiso   1.00
C391   C     0.32333   0.45259   0.01463   0.00000  Uiso   1.00
H392   H     0.03612   0.64806   0.09179   0.00000  Uiso   1.00
H393   H     0.00820   0.77987   0.08622   0.00000  Uiso   1.00
H394   H     0.96595   0.63483   0.17386   0.00000  Uiso   1.00
H395   H     0.11325   0.53275   0.01033   0.00000  Uiso   1.00
H396   H     0.01024   0.92085   0.08792   0.00000  Uiso   1.00
H397   H     0.92116   0.61500   0.27270   0.00000  Uiso   1.00
H398   H     0.23176   0.39973   0.92786   0.00000  Uiso   1.00
H399   H     0.29041   0.60822   0.15226   0.00000  Uiso   1.00
H400   H     0.27645   0.73784   0.15001   0.00000  Uiso   1.00
H401   H     0.23419   0.59280   0.23765   0.00000  Uiso   1.00
H402   H     0.38149   0.49072   0.07412   0.00000  Uiso   1.00
H403   H     0.22796   0.88673   0.13969   0.00000  Uiso   1.00
H404   H     0.13888   0.58088   0.32447   0.00000  Uiso   1.00
H405   H     0.44947   0.36562   0.97964   0.00000  Uiso   1.00
O406   O     0.10532   0.98979   0.11125   0.00000  Uiso   1.00
O407   O     0.98845   0.58851   0.35367   0.00000  Uiso   1.00
O408   O     0.39594   0.30610   0.90125   0.00000  Uiso   1.00
N409   N     0.06341   0.89502   0.10040   0.00000  Uiso   1.00
N410   N     0.98012   0.60908   0.27317   0.00000  Uiso   1.00
N411   N     0.27049   0.40782   0.95078   0.00000  Uiso   1.00
N412   N     0.18056   0.87667   0.12826   0.00000  Uiso   1.00
N413   N     0.09727   0.59073   0.30102   0.00000  Uiso   1.00
N414   N     0.38764   0.38946   0.97864   0.00000  Uiso   1.00
C415   C     0.98847   0.23632   0.63398   0.00000  Uiso   1.00
C416   C     0.89549   0.25631   0.63491   0.00000  Uiso   1.00
C417   C     0.83190   0.32673   0.63903   0.00000  Uiso   1.00
C418   C     0.75089   0.33352   0.63920   0.00000  Uiso   1.00
C419   C     0.60907   0.37393   0.64126   0.00000  Uiso   1.00
C420   C     0.01083   0.20238   0.67802   0.00000  Uiso   1.00
C421   C     0.04421   0.22745   0.71838   0.00000  Uiso   1.00
C422   C     0.06031   0.18883   0.75484   0.00000  Uiso   1.00
C423   C     0.09759   0.14547   0.82380   0.00000  Uiso   1.00
C424   C     0.03798   0.17271   0.58419   0.00000  Uiso   1.00
C425   C     0.09423   0.17281   0.54567   0.00000  Uiso   1.00
C426   C     0.13320   0.10920   0.50313   0.00000  Uiso   1.00
C427   C     0.21265   0.01977   0.42642   0.00000  Uiso   1.00
C428   C     0.95769   0.12315   0.62696   0.00000  Uiso   1.00
C429   C     0.87878   0.19484   0.63110   0.00000  Uiso   1.00
C430   C     0.79785   0.20153   0.63126   0.00000  Uiso   1.00
C431   C     0.73415   0.27194   0.63538   0.00000  Uiso   1.00
C432   C     0.99411   0.14092   0.67421   0.00000  Uiso   1.00
C433   C     0.01016   0.10224   0.71061   0.00000  Uiso   1.00
C434   C     0.04356   0.12725   0.75102   0.00000  Uiso   1.00
C435   C     0.02127   0.11124   0.58038   0.00000  Uiso   1.00
C436   C     0.06017   0.04761   0.53790   0.00000  Uiso   1.00
C437   C     0.11645   0.04762   0.49931   0.00000  Uiso   1.00
H438   H     0.00148   0.28417   0.63695   0.00000  Uiso   1.00
H439   H     0.84486   0.37429   0.64199   0.00000  Uiso   1.00
H440   H     0.05715   0.27501   0.72132   0.00000  Uiso   1.00
H441   H     0.10715   0.22039   0.54863   0.00000  Uiso   1.00
H442   H     0.66384   0.44710   0.64591   0.00000  Uiso   1.00
H443   H     0.11149   0.23776   0.81317   0.00000  Uiso   1.00
H444   H     0.21692   0.12257   0.44903   0.00000  Uiso   1.00
H445   H     0.94467   0.07529   0.62399   0.00000  Uiso   1.00
H446   H     0.78493   0.15395   0.62831   0.00000  Uiso   1.00
H447   H     0.99722   0.05468   0.70765   0.00000  Uiso   1.00
H448   H     0.04722   0.00005   0.53496   0.00000  Uiso   1.00
H449   H     0.61520   0.26827   0.63481   0.00000  Uiso   1.00
H450   H     0.06285   0.05892   0.80208   0.00000  Uiso   1.00
H451   H     0.16828   0.94374   0.43794   0.00000  Uiso   1.00
O452   O     0.53546   0.41320   0.64346   0.00000  Uiso   1.00
O453   O     0.12277   0.13855   0.86290   0.00000  Uiso   1.00
O454   O     0.26108   0.98742   0.38515   0.00000  Uiso   1.00
N455   N     0.67432   0.39421   0.64269   0.00000  Uiso   1.00
N456   N     0.09283   0.19850   0.79908   0.00000  Uiso   1.00
N457   N     0.19142   0.09080   0.45864   0.00000  Uiso   1.00
N458   N     0.64814   0.29798   0.63672   0.00000  Uiso   1.00
N459   N     0.06666   0.10227   0.79311   0.00000  Uiso   1.00
N460   N     0.16524   0.99457   0.45267   0.00000  Uiso   1.00
C461   C     0.16027   0.68973   0.54375   0.00000  Uiso   1.00
C462   C     0.18851   0.61171   0.54979   0.00000  Uiso   1.00
C463   C     0.14621   0.56830   0.53941   0.00000  Uiso   1.00
C464   C     0.18236   0.49846   0.54741   0.00000  Uiso   1.00
C465   C     0.21466   0.38119   0.55411   0.00000  Uiso   1.00
C466   C     0.15408   0.74036   0.59638   0.00000  Uiso   1.00
C467   C     0.08283   0.80513   0.62518   0.00000  Uiso   1.00
C468   C     0.09000   0.84359   0.67239   0.00000  Uiso   1.00
C469   C     0.06887   0.92609   0.75142   0.00000  Uiso   1.00
C470   C     0.23375   0.68502   0.50744   0.00000  Uiso   1.00
C471   C     0.22950   0.70329   0.46147   0.00000  Uiso   1.00
C472   C     0.30374   0.69517   0.43380   0.00000  Uiso   1.00
C473   C     0.40631   0.69175   0.37474   0.00000  Uiso   1.00
C474   C     0.29967   0.64287   0.57638   0.00000  Uiso   1.00
C475   C     0.26423   0.58625   0.56752   0.00000  Uiso   1.00
C476   C     0.30045   0.51645   0.57552   0.00000  Uiso   1.00
C477   C     0.25821   0.47296   0.56516   0.00000  Uiso   1.00
C478   C     0.22979   0.71491   0.61411   0.00000  Uiso   1.00
C479   C     0.23707   0.75328   0.66129   0.00000  Uiso   1.00
C480   C     0.16586   0.81809   0.69015   0.00000  Uiso   1.00
C481   C     0.30947   0.65957   0.52517   0.00000  Uiso   1.00
C482   C     0.38373   0.65143   0.49758   0.00000  Uiso   1.00
C483   C     0.37960   0.66967   0.45157   0.00000  Uiso   1.00
H484   H     0.10132   0.70955   0.52995   0.00000  Uiso   1.00
H485   H     0.08761   0.58803   0.52570   0.00000  Uiso   1.00
H486   H     0.02425   0.82482   0.61145   0.00000  Uiso   1.00
H487   H     0.17089   0.72298   0.44776   0.00000  Uiso   1.00
H488   H     0.10579   0.44208   0.52883   0.00000  Uiso   1.00
H489   H     0.97220   0.94138   0.70962   0.00000  Uiso   1.00
H490   H     0.28142   0.72664   0.36446   0.00000  Uiso   1.00
H491   H     0.35863   0.62305   0.59019   0.00000  Uiso   1.00
H492   H     0.35904   0.49677   0.58924   0.00000  Uiso   1.00
H493   H     0.29568   0.73357   0.67499   0.00000  Uiso   1.00
H494   H     0.44232   0.63173   0.51131   0.00000  Uiso   1.00
H495   H     0.32610   0.36801   0.58040   0.00000  Uiso   1.00
H496   H     0.19250   0.86732   0.76120   0.00000  Uiso   1.00
H497   H     0.50172   0.65258   0.41603   0.00000  Uiso   1.00
O498   O     0.21156   0.32354   0.55292   0.00000  Uiso   1.00
O499   O     0.03629   0.97862   0.79011   0.00000  Uiso   1.00
O500   O     0.44198   0.69689   0.33727   0.00000  Uiso   1.00
N501   N     0.15759   0.44197   0.54108   0.00000  Uiso   1.00
N502   N     0.03268   0.90878   0.71012   0.00000  Uiso   1.00
N503   N     0.32177   0.70804   0.38743   0.00000  Uiso   1.00
N504   N     0.27614   0.40211   0.56884   0.00000  Uiso   1.00
N505   N     0.15123   0.86893   0.73787   0.00000  Uiso   1.00
N506   N     0.44032   0.66819   0.41518   0.00000  Uiso   1.00
C507   C     0.53356   0.93647   0.60105   0.00000  Uiso   1.00
C508   C     0.59362   0.96292   0.62570   0.00000  Uiso   1.00
C509   C     0.68127   0.92555   0.61217   0.00000  Uiso   1.00
C510   C     0.72486   0.95898   0.63935   0.00000  Uiso   1.00
C511   C     0.82459   0.98963   0.67166   0.00000  Uiso   1.00
C512   C     0.47789   0.93294   0.64513   0.00000  Uiso   1.00
C513   C     0.46824   0.87037   0.64793   0.00000  Uiso   1.00
C514   C     0.41441   0.87857   0.69147   0.00000  Uiso   1.00
C515   C     0.33443   0.86269   0.75393   0.00000  Uiso   1.00
C516   C     0.47542   0.99978   0.58189   0.00000  Uiso   1.00
C517   C     0.46366   0.99341   0.53153   0.00000  Uiso   1.00
C518   C     0.40772   0.05788   0.52182   0.00000  Uiso   1.00
C519   C     0.32390   0.14579   0.48610   0.00000  Uiso   1.00
C520   C     0.45511   0.06230   0.67338   0.00000  Uiso   1.00
C521   C     0.55100   0.03127   0.66498   0.00000  Uiso   1.00
C522   C     0.59447   0.06477   0.69219   0.00000  Uiso   1.00
C523   C     0.68218   0.02745   0.67870   0.00000  Uiso   1.00
C524   C     0.43529   0.00128   0.68441   0.00000  Uiso   1.00
C525   C     0.38145   0.00958   0.72795   0.00000  Uiso   1.00
C526   C     0.37172   0.94704   0.73082   0.00000  Uiso   1.00
C527   C     0.43281   0.06813   0.62118   0.00000  Uiso   1.00
C528   C     0.37687   0.13262   0.61155   0.00000  Uiso   1.00
C529   C     0.36503   0.12635   0.56118   0.00000  Uiso   1.00
H530   H     0.56673   0.88326   0.57047   0.00000  Uiso   1.00
H531   H     0.71422   0.87266   0.58177   0.00000  Uiso   1.00
H532   H     0.50122   0.81749   0.61752   0.00000  Uiso   1.00
H533   H     0.49664   0.94051   0.50114   0.00000  Uiso   1.00
H534   H     0.85894   0.89103   0.61164   0.00000  Uiso   1.00
H535   H     0.40980   0.77471   0.68702   0.00000  Uiso   1.00
H536   H     0.40014   0.03412   0.44159   0.00000  Uiso   1.00
H537   H     0.42194   0.11551   0.70396   0.00000  Uiso   1.00
H538   H     0.56148   0.11765   0.72259   0.00000  Uiso   1.00
H539   H     0.34848   0.06248   0.75834   0.00000  Uiso   1.00
H540   H     0.34391   0.18550   0.64196   0.00000  Uiso   1.00
H541   H     0.73498   0.08987   0.72593   0.00000  Uiso   1.00
H542   H     0.28583   0.97355   0.80131   0.00000  Uiso   1.00
H543   H     0.27618   0.23297   0.55589   0.00000  Uiso   1.00
O544   O     0.89137   0.98765   0.67864   0.00000  Uiso   1.00
O545   O     0.30210   0.83505   0.77753   0.00000  Uiso   1.00
O546   O     0.28944   0.17539   0.45554   0.00000  Uiso   1.00
N547   N     0.81062   0.93754   0.63597   0.00000  Uiso   1.00
N548   N     0.39070   0.82878   0.70645   0.00000  Uiso   1.00
N549   N     0.38166   0.07131   0.47701   0.00000  Uiso   1.00
N550   N     0.74391   0.04454   0.69747   0.00000  Uiso   1.00
N551   N     0.32400   0.93578   0.76795   0.00000  Uiso   1.00
N552   N     0.31496   0.17831   0.53851   0.00000  Uiso   1.00
