data_job_03254
_audit_creation_date              2018-12-19
_audit_creation_method            'Materials Studio'
_symmetry_space_group_name_H-M    'P1'
_symmetry_Int_Tables_number       1
_symmetry_cell_setting            triclinic
loop_
_symmetry_equiv_pos_as_xyz
  x,y,z
_cell_length_a                    11.4223
_cell_length_b                    11.4223
_cell_length_c                    29.2719
_cell_angle_alpha                 90.0000
_cell_angle_beta                  90.0000
_cell_angle_gamma                 120.0000
loop_
_atom_site_label
_atom_site_type_symbol
_atom_site_fract_x
_atom_site_fract_y
_atom_site_fract_z
_atom_site_U_iso_or_equiv
_atom_site_adp_type
_atom_site_occupancy
C1     C     0.28493   0.23295   0.71484   0.00000  Uiso   1.00
C2     C     0.40196   0.20467   0.71315   0.00000  Uiso   1.00
C3     C     0.39925   0.08934   0.72955   0.00000  Uiso   1.00
C4     C     0.51673   0.08270   0.72479   0.00000  Uiso   1.00
C5     C     0.68083   0.02285   0.72529   0.00000  Uiso   1.00
C6     C     0.33827   0.36707   0.73996   0.00000  Uiso   1.00
C7     C     0.28200   0.38828   0.77890   0.00000  Uiso   1.00
C8     C     0.34587   0.51836   0.79671   0.00000  Uiso   1.00
C9     C     0.41104   0.71066   0.83881   0.00000  Uiso   1.00
C10    C     0.26085   0.25959   0.66565   0.00000  Uiso   1.00
C11    C     0.13947   0.19046   0.64211   0.00000  Uiso   1.00
C12    C     0.13814   0.23007   0.59735   0.00000  Uiso   1.00
C13    C     0.08309   0.25549   0.52408   0.00000  Uiso   1.00
C14    C     0.49839   0.42626   0.67725   0.00000  Uiso   1.00
C15    C     0.51790   0.30967   0.69273   0.00000  Uiso   1.00
C16    C     0.63542   0.30321   0.68795   0.00000  Uiso   1.00
C17    C     0.63289   0.18788   0.70433   0.00000  Uiso   1.00
C18    C     0.45421   0.47207   0.71955   0.00000  Uiso   1.00
C19    C     0.51817   0.60215   0.73730   0.00000  Uiso   1.00
C20    C     0.46202   0.62355   0.77625   0.00000  Uiso   1.00
C21    C     0.37679   0.36459   0.64523   0.00000  Uiso   1.00
C22    C     0.37564   0.40432   0.60051   0.00000  Uiso   1.00
C23    C     0.25429   0.33526   0.57690   0.00000  Uiso   1.00
H24    H     0.19467   0.15122   0.73074   0.00000  Uiso   1.00
H25    H     0.30951   0.00811   0.74535   0.00000  Uiso   1.00
H26    H     0.19227   0.30701   0.79469   0.00000  Uiso   1.00
H27    H     0.04977   0.10921   0.65792   0.00000  Uiso   1.00
H28    H     0.48798   0.89578   0.75256   0.00000  Uiso   1.00
H29    H     0.24076   0.52604   0.85658   0.00000  Uiso   1.00
H30    H     0.94025   0.10894   0.56817   0.00000  Uiso   1.00
H31    H     0.58866   0.50801   0.66135   0.00000  Uiso   1.00
H32    H     0.72513   0.38448   0.67215   0.00000  Uiso   1.00
H33    H     0.60789   0.68338   0.72149   0.00000  Uiso   1.00
H34    H     0.46538   0.48558   0.58472   0.00000  Uiso   1.00
H35    H     0.82531   0.20125   0.69314   0.00000  Uiso   1.00
H36    H     0.57809   0.83151   0.79716   0.00000  Uiso   1.00
H37    H     0.27758   0.41442   0.50876   0.00000  Uiso   1.00
O38    O     0.73932   0.96084   0.73122   0.00000  Uiso   1.00
O39    O     0.41496   0.78771   0.86769   0.00000  Uiso   1.00
O40    O     0.02070   0.24049   0.48931   0.00000  Uiso   1.00
N41    N     0.54863   0.98461   0.73708   0.00000  Uiso   1.00
N42    N     0.31751   0.57386   0.83434   0.00000  Uiso   1.00
N43    N     0.03655   0.18394   0.56471   0.00000  Uiso   1.00
N44    N     0.73015   0.14899   0.70511   0.00000  Uiso   1.00
N45    N     0.49902   0.73824   0.80237   0.00000  Uiso   1.00
N46    N     0.21806   0.34831   0.53274   0.00000  Uiso   1.00
C47    C     0.76705   0.05198   0.38151   0.00000  Uiso   1.00
C48    C     0.79533   0.19729   0.37982   0.00000  Uiso   1.00
C49    C     0.91066   0.30991   0.39621   0.00000  Uiso   1.00
C50    C     0.91730   0.43403   0.39146   0.00000  Uiso   1.00
C51    C     0.97715   0.65798   0.39196   0.00000  Uiso   1.00
C52    C     0.63293   0.97120   0.40663   0.00000  Uiso   1.00
C53    C     0.61172   0.89372   0.44556   0.00000  Uiso   1.00
C54    C     0.48164   0.82751   0.46337   0.00000  Uiso   1.00
C55    C     0.28934   0.70038   0.50548   0.00000  Uiso   1.00
C56    C     0.74041   0.00126   0.33232   0.00000  Uiso   1.00
C57    C     0.80954   0.94901   0.30877   0.00000  Uiso   1.00
C58    C     0.76993   0.90807   0.26402   0.00000  Uiso   1.00
C59    C     0.74451   0.82760   0.19075   0.00000  Uiso   1.00
C60    C     0.57374   0.07213   0.34391   0.00000  Uiso   1.00
C61    C     0.69033   0.20823   0.35940   0.00000  Uiso   1.00
C62    C     0.69679   0.33221   0.35462   0.00000  Uiso   1.00
C63    C     0.81212   0.44500   0.37100   0.00000  Uiso   1.00
C64    C     0.52793   0.98215   0.38621   0.00000  Uiso   1.00
C65    C     0.39785   0.91602   0.40397   0.00000  Uiso   1.00
C66    C     0.37645   0.83847   0.44292   0.00000  Uiso   1.00
C67    C     0.63541   0.01220   0.31190   0.00000  Uiso   1.00
C68    C     0.59568   0.97132   0.26718   0.00000  Uiso   1.00
C69    C     0.66474   0.91903   0.24356   0.00000  Uiso   1.00
H70    H     0.84878   0.04345   0.39741   0.00000  Uiso   1.00
H71    H     0.99189   0.30140   0.41202   0.00000  Uiso   1.00
H72    H     0.69299   0.88526   0.46136   0.00000  Uiso   1.00
H73    H     0.89079   0.94055   0.32459   0.00000  Uiso   1.00
H74    H     0.10422   0.59220   0.41922   0.00000  Uiso   1.00
H75    H     0.47396   0.71472   0.52324   0.00000  Uiso   1.00
H76    H     0.89106   0.83131   0.23484   0.00000  Uiso   1.00
H77    H     0.49199   0.08065   0.32802   0.00000  Uiso   1.00
H78    H     0.61552   0.34065   0.33881   0.00000  Uiso   1.00
H79    H     0.31662   0.92451   0.38815   0.00000  Uiso   1.00
H80    H     0.51442   0.97980   0.25138   0.00000  Uiso   1.00
H81    H     0.79875   0.62406   0.35981   0.00000  Uiso   1.00
H82    H     0.16849   0.74657   0.46383   0.00000  Uiso   1.00
H83    H     0.58558   0.86316   0.17543   0.00000  Uiso   1.00
O84    O     0.03916   0.77849   0.39788   0.00000  Uiso   1.00
O85    O     0.21229   0.62725   0.53435   0.00000  Uiso   1.00
O86    O     0.75951   0.78021   0.15597   0.00000  Uiso   1.00
N87    N     0.01539   0.56402   0.40375   0.00000  Uiso   1.00
N88    N     0.42614   0.74365   0.50101   0.00000  Uiso   1.00
N89    N     0.81606   0.85261   0.23138   0.00000  Uiso   1.00
N90    N     0.85101   0.58116   0.37178   0.00000  Uiso   1.00
N91    N     0.26176   0.76079   0.46904   0.00000  Uiso   1.00
N92    N     0.65169   0.86975   0.19941   0.00000  Uiso   1.00
C93    C     0.94802   0.71507   0.04818   0.00000  Uiso   1.00
C94    C     0.80271   0.59804   0.04649   0.00000  Uiso   1.00
C95    C     0.69009   0.60075   0.06288   0.00000  Uiso   1.00
C96    C     0.56597   0.48327   0.05812   0.00000  Uiso   1.00
C97    C     0.34202   0.31917   0.05863   0.00000  Uiso   1.00
C98    C     0.02880   0.66173   0.07330   0.00000  Uiso   1.00
C99    C     0.10628   0.71800   0.11223   0.00000  Uiso   1.00
C100   C     0.17249   0.65413   0.13004   0.00000  Uiso   1.00
C101   C     0.29962   0.58896   0.17215   0.00000  Uiso   1.00
C102   C     0.99874   0.73915   0.99899   0.00000  Uiso   1.00
C103   C     0.05099   0.86053   0.97544   0.00000  Uiso   1.00
C104   C     0.09193   0.86186   0.93069   0.00000  Uiso   1.00
C105   C     0.17240   0.91691   0.85742   0.00000  Uiso   1.00
C106   C     0.92787   0.50161   0.01058   0.00000  Uiso   1.00
C107   C     0.79177   0.48210   0.02607   0.00000  Uiso   1.00
C108   C     0.66779   0.36458   0.02128   0.00000  Uiso   1.00
C109   C     0.55500   0.36711   0.03767   0.00000  Uiso   1.00
C110   C     0.01785   0.54579   0.05288   0.00000  Uiso   1.00
C111   C     0.08398   0.48183   0.07063   0.00000  Uiso   1.00
C112   C     0.16153   0.53798   0.10958   0.00000  Uiso   1.00
C113   C     0.98780   0.62321   0.97856   0.00000  Uiso   1.00
C114   C     0.02868   0.62436   0.93384   0.00000  Uiso   1.00
C115   C     0.08097   0.74571   0.91023   0.00000  Uiso   1.00
H116   H     0.95655   0.80533   0.06408   0.00000  Uiso   1.00
H117   H     0.69860   0.69049   0.07868   0.00000  Uiso   1.00
H118   H     0.11474   0.80773   0.12802   0.00000  Uiso   1.00
H119   H     0.05945   0.95023   0.99125   0.00000  Uiso   1.00
H120   H     0.40780   0.51202   0.08589   0.00000  Uiso   1.00
H121   H     0.28528   0.75924   0.18991   0.00000  Uiso   1.00
H122   H     0.16869   0.05975   0.90151   0.00000  Uiso   1.00
H123   H     0.91935   0.41134   0.99468   0.00000  Uiso   1.00
H124   H     0.65935   0.27487   0.00548   0.00000  Uiso   1.00
H125   H     0.07549   0.39211   0.05482   0.00000  Uiso   1.00
H126   H     0.02020   0.53462   0.91805   0.00000  Uiso   1.00
H127   H     0.37594   0.17469   0.02648   0.00000  Uiso   1.00
H128   H     0.25343   0.42191   0.13050   0.00000  Uiso   1.00
H129   H     0.13684   0.72242   0.84209   0.00000  Uiso   1.00
O130   O     0.22151   0.26068   0.06455   0.00000  Uiso   1.00
O131   O     0.37275   0.58504   0.20102   0.00000  Uiso   1.00
O132   O     0.21979   0.97930   0.82264   0.00000  Uiso   1.00
N133   N     0.43598   0.45137   0.07042   0.00000  Uiso   1.00
N134   N     0.25635   0.68249   0.16767   0.00000  Uiso   1.00
N135   N     0.14739   0.96345   0.89804   0.00000  Uiso   1.00
N136   N     0.41884   0.26985   0.03844   0.00000  Uiso   1.00
N137   N     0.23921   0.50098   0.13570   0.00000  Uiso   1.00
N138   N     0.13025   0.78194   0.86607   0.00000  Uiso   1.00
C139   C     0.23295   0.28493   0.28516   0.00000  Uiso   1.00
C140   C     0.20467   0.40196   0.28685   0.00000  Uiso   1.00
C141   C     0.08934   0.39925   0.27045   0.00000  Uiso   1.00
C142   C     0.08270   0.51673   0.27521   0.00000  Uiso   1.00
C143   C     0.02285   0.68083   0.27471   0.00000  Uiso   1.00
C144   C     0.36707   0.33827   0.26004   0.00000  Uiso   1.00
C145   C     0.38828   0.28200   0.22110   0.00000  Uiso   1.00
C146   C     0.51836   0.34587   0.20329   0.00000  Uiso   1.00
C147   C     0.71066   0.41104   0.16119   0.00000  Uiso   1.00
C148   C     0.25959   0.26085   0.33435   0.00000  Uiso   1.00
C149   C     0.19046   0.13947   0.35789   0.00000  Uiso   1.00
C150   C     0.23007   0.13814   0.40265   0.00000  Uiso   1.00
C151   C     0.25549   0.08309   0.47592   0.00000  Uiso   1.00
C152   C     0.42626   0.49839   0.32275   0.00000  Uiso   1.00
C153   C     0.30967   0.51790   0.30727   0.00000  Uiso   1.00
C154   C     0.30321   0.63542   0.31205   0.00000  Uiso   1.00
C155   C     0.18788   0.63289   0.29567   0.00000  Uiso   1.00
C156   C     0.47207   0.45421   0.28045   0.00000  Uiso   1.00
C157   C     0.60215   0.51817   0.26270   0.00000  Uiso   1.00
C158   C     0.62355   0.46202   0.22375   0.00000  Uiso   1.00
C159   C     0.36459   0.37679   0.35477   0.00000  Uiso   1.00
C160   C     0.40432   0.37564   0.39949   0.00000  Uiso   1.00
C161   C     0.33526   0.25429   0.42310   0.00000  Uiso   1.00
H162   H     0.15122   0.19467   0.26926   0.00000  Uiso   1.00
H163   H     0.00811   0.30951   0.25465   0.00000  Uiso   1.00
H164   H     0.30701   0.19227   0.20531   0.00000  Uiso   1.00
H165   H     0.10921   0.04977   0.34208   0.00000  Uiso   1.00
H166   H     0.89578   0.48798   0.24744   0.00000  Uiso   1.00
H167   H     0.52604   0.24076   0.14342   0.00000  Uiso   1.00
H168   H     0.10894   0.94025   0.43183   0.00000  Uiso   1.00
H169   H     0.50801   0.58866   0.33865   0.00000  Uiso   1.00
H170   H     0.38448   0.72513   0.32785   0.00000  Uiso   1.00
H171   H     0.68338   0.60789   0.27851   0.00000  Uiso   1.00
H172   H     0.48558   0.46538   0.41528   0.00000  Uiso   1.00
H173   H     0.20125   0.82531   0.30686   0.00000  Uiso   1.00
H174   H     0.83151   0.57809   0.20284   0.00000  Uiso   1.00
H175   H     0.41442   0.27758   0.49124   0.00000  Uiso   1.00
O176   O     0.96084   0.73932   0.26878   0.00000  Uiso   1.00
O177   O     0.78771   0.41496   0.13231   0.00000  Uiso   1.00
O178   O     0.24049   0.02070   0.51069   0.00000  Uiso   1.00
N179   N     0.98461   0.54863   0.26292   0.00000  Uiso   1.00
N180   N     0.57386   0.31751   0.16566   0.00000  Uiso   1.00
N181   N     0.18394   0.03655   0.43529   0.00000  Uiso   1.00
N182   N     0.14899   0.73015   0.29489   0.00000  Uiso   1.00
N183   N     0.73824   0.49902   0.19763   0.00000  Uiso   1.00
N184   N     0.34831   0.21806   0.46726   0.00000  Uiso   1.00
C185   C     0.05198   0.76705   0.61849   0.00000  Uiso   1.00
C186   C     0.19729   0.79533   0.62018   0.00000  Uiso   1.00
C187   C     0.30991   0.91066   0.60379   0.00000  Uiso   1.00
C188   C     0.43403   0.91730   0.60854   0.00000  Uiso   1.00
C189   C     0.65798   0.97715   0.60804   0.00000  Uiso   1.00
C190   C     0.97120   0.63293   0.59337   0.00000  Uiso   1.00
C191   C     0.89372   0.61172   0.55444   0.00000  Uiso   1.00
C192   C     0.82751   0.48164   0.53663   0.00000  Uiso   1.00
C193   C     0.70038   0.28934   0.49452   0.00000  Uiso   1.00
C194   C     0.00126   0.74041   0.66768   0.00000  Uiso   1.00
C195   C     0.94901   0.80954   0.69123   0.00000  Uiso   1.00
C196   C     0.90807   0.76993   0.73598   0.00000  Uiso   1.00
C197   C     0.82760   0.74451   0.80925   0.00000  Uiso   1.00
C198   C     0.07213   0.57374   0.65609   0.00000  Uiso   1.00
C199   C     0.20823   0.69033   0.64060   0.00000  Uiso   1.00
C200   C     0.33221   0.69679   0.64538   0.00000  Uiso   1.00
C201   C     0.44500   0.81212   0.62900   0.00000  Uiso   1.00
C202   C     0.98215   0.52793   0.61379   0.00000  Uiso   1.00
C203   C     0.91602   0.39785   0.59603   0.00000  Uiso   1.00
C204   C     0.83847   0.37645   0.55708   0.00000  Uiso   1.00
C205   C     0.01220   0.63541   0.68810   0.00000  Uiso   1.00
C206   C     0.97132   0.59568   0.73282   0.00000  Uiso   1.00
C207   C     0.91903   0.66474   0.75644   0.00000  Uiso   1.00
H208   H     0.04345   0.84878   0.60259   0.00000  Uiso   1.00
H209   H     0.30140   0.99189   0.58798   0.00000  Uiso   1.00
H210   H     0.88526   0.69299   0.53864   0.00000  Uiso   1.00
H211   H     0.94055   0.89079   0.67541   0.00000  Uiso   1.00
H212   H     0.59220   0.10422   0.58078   0.00000  Uiso   1.00
H213   H     0.71472   0.47396   0.47676   0.00000  Uiso   1.00
H214   H     0.83131   0.89106   0.76516   0.00000  Uiso   1.00
H215   H     0.08065   0.49199   0.67198   0.00000  Uiso   1.00
H216   H     0.34065   0.61552   0.66119   0.00000  Uiso   1.00
H217   H     0.92451   0.31662   0.61185   0.00000  Uiso   1.00
H218   H     0.97980   0.51442   0.74862   0.00000  Uiso   1.00
H219   H     0.62406   0.79875   0.64019   0.00000  Uiso   1.00
H220   H     0.74657   0.16849   0.53617   0.00000  Uiso   1.00
H221   H     0.86316   0.58558   0.82457   0.00000  Uiso   1.00
O222   O     0.77849   0.03916   0.60212   0.00000  Uiso   1.00
O223   O     0.62725   0.21229   0.46565   0.00000  Uiso   1.00
O224   O     0.78021   0.75951   0.84403   0.00000  Uiso   1.00
N225   N     0.56402   0.01539   0.59625   0.00000  Uiso   1.00
N226   N     0.74365   0.42614   0.49899   0.00000  Uiso   1.00
N227   N     0.85261   0.81606   0.76862   0.00000  Uiso   1.00
N228   N     0.58116   0.85101   0.62822   0.00000  Uiso   1.00
N229   N     0.76079   0.26176   0.53096   0.00000  Uiso   1.00
N230   N     0.86975   0.65169   0.80059   0.00000  Uiso   1.00
C231   C     0.71507   0.94802   0.95182   0.00000  Uiso   1.00
C232   C     0.59804   0.80271   0.95351   0.00000  Uiso   1.00
C233   C     0.60075   0.69009   0.93712   0.00000  Uiso   1.00
C234   C     0.48327   0.56597   0.94188   0.00000  Uiso   1.00
C235   C     0.31917   0.34202   0.94137   0.00000  Uiso   1.00
C236   C     0.66173   0.02880   0.92670   0.00000  Uiso   1.00
C237   C     0.71800   0.10628   0.88777   0.00000  Uiso   1.00
C238   C     0.65413   0.17249   0.86996   0.00000  Uiso   1.00
C239   C     0.58896   0.29962   0.82785   0.00000  Uiso   1.00
C240   C     0.73915   0.99874   0.00101   0.00000  Uiso   1.00
C241   C     0.86053   0.05099   0.02456   0.00000  Uiso   1.00
C242   C     0.86186   0.09193   0.06931   0.00000  Uiso   1.00
C243   C     0.91691   0.17240   0.14258   0.00000  Uiso   1.00
C244   C     0.50161   0.92787   0.98942   0.00000  Uiso   1.00
C245   C     0.48210   0.79177   0.97393   0.00000  Uiso   1.00
C246   C     0.36458   0.66779   0.97872   0.00000  Uiso   1.00
C247   C     0.36711   0.55500   0.96233   0.00000  Uiso   1.00
C248   C     0.54579   0.01785   0.94712   0.00000  Uiso   1.00
C249   C     0.48183   0.08398   0.92937   0.00000  Uiso   1.00
C250   C     0.53798   0.16153   0.89042   0.00000  Uiso   1.00
C251   C     0.62321   0.98780   0.02144   0.00000  Uiso   1.00
C252   C     0.62436   0.02868   0.06616   0.00000  Uiso   1.00
C253   C     0.74571   0.08097   0.08977   0.00000  Uiso   1.00
H254   H     0.80533   0.95655   0.93592   0.00000  Uiso   1.00
H255   H     0.69049   0.69860   0.92132   0.00000  Uiso   1.00
H256   H     0.80773   0.11474   0.87198   0.00000  Uiso   1.00
H257   H     0.95023   0.05945   0.00875   0.00000  Uiso   1.00
H258   H     0.51202   0.40780   0.91411   0.00000  Uiso   1.00
H259   H     0.75924   0.28528   0.81009   0.00000  Uiso   1.00
H260   H     0.05975   0.16869   0.09849   0.00000  Uiso   1.00
H261   H     0.41134   0.91935   0.00532   0.00000  Uiso   1.00
H262   H     0.27487   0.65935   0.99452   0.00000  Uiso   1.00
H263   H     0.39211   0.07549   0.94518   0.00000  Uiso   1.00
H264   H     0.53462   0.02020   0.08195   0.00000  Uiso   1.00
H265   H     0.17469   0.37594   0.97352   0.00000  Uiso   1.00
H266   H     0.42191   0.25343   0.86950   0.00000  Uiso   1.00
H267   H     0.72242   0.13684   0.15791   0.00000  Uiso   1.00
O268   O     0.26068   0.22151   0.93545   0.00000  Uiso   1.00
O269   O     0.58504   0.37275   0.79898   0.00000  Uiso   1.00
O270   O     0.97930   0.21979   0.17736   0.00000  Uiso   1.00
N271   N     0.45137   0.43598   0.92958   0.00000  Uiso   1.00
N272   N     0.68249   0.25635   0.83233   0.00000  Uiso   1.00
N273   N     0.96345   0.14739   0.10196   0.00000  Uiso   1.00
N274   N     0.26985   0.41884   0.96156   0.00000  Uiso   1.00
N275   N     0.50098   0.23921   0.86430   0.00000  Uiso   1.00
N276   N     0.78194   0.13025   0.13393   0.00000  Uiso   1.00
