data_job_06172
_audit_creation_date              2018-12-19
_audit_creation_method            'Materials Studio'
_symmetry_space_group_name_H-M    'P1'
_symmetry_Int_Tables_number       1
_symmetry_cell_setting            triclinic
loop_
_symmetry_equiv_pos_as_xyz
  x,y,z
_cell_length_a                    12.5442
_cell_length_b                    21.3598
_cell_length_c                    21.8151
_cell_angle_alpha                 116.3180
_cell_angle_beta                  77.7037
_cell_angle_gamma                 81.5661
loop_
_atom_site_label
_atom_site_type_symbol
_atom_site_fract_x
_atom_site_fract_y
_atom_site_fract_z
_atom_site_U_iso_or_equiv
_atom_site_adp_type
_atom_site_occupancy
C1     C     0.42736   0.21300   0.76825   0.00000  Uiso   1.00
C2     C     0.47654   0.27203   0.81337   0.00000  Uiso   1.00
C3     C     0.57743   0.28527   0.78843   0.00000  Uiso   1.00
C4     C     0.60768   0.34177   0.83821   0.00000  Uiso   1.00
C5     C     0.69445   0.42706   0.89732   0.00000  Uiso   1.00
C6     C     0.41081   0.16771   0.80553   0.00000  Uiso   1.00
C7     C     0.45643   0.09324   0.77400   0.00000  Uiso   1.00
C8     C     0.43132   0.06193   0.81718   0.00000  Uiso   1.00
C9     C     0.41598   0.98524   0.86410   0.00000  Uiso   1.00
C10    C     0.30861   0.25190   0.77681   0.00000  Uiso   1.00
C11    C     0.26828   0.24821   0.72113   0.00000  Uiso   1.00
C12    C     0.15712   0.28777   0.74013   0.00000  Uiso   1.00
C13    C     0.98309   0.34181   0.74245   0.00000  Uiso   1.00
C14    C     0.30166   0.28982   0.90099   0.00000  Uiso   1.00
C15    C     0.40826   0.31375   0.88547   0.00000  Uiso   1.00
C16    C     0.43836   0.37025   0.93530   0.00000  Uiso   1.00
C17    C     0.53928   0.38357   0.91044   0.00000  Uiso   1.00
C18    C     0.34253   0.20943   0.87763   0.00000  Uiso   1.00
C19    C     0.31735   0.17822   0.92087   0.00000  Uiso   1.00
C20    C     0.36292   0.10372   0.88941   0.00000  Uiso   1.00
C21    C     0.24033   0.29363   0.84891   0.00000  Uiso   1.00
C22    C     0.12921   0.33320   0.86800   0.00000  Uiso   1.00
C23    C     0.08872   0.32956   0.81236   0.00000  Uiso   1.00
H24    H     0.48052   0.18052   0.71211   0.00000  Uiso   1.00
H25    H     0.63026   0.25296   0.73263   0.00000  Uiso   1.00
H26    H     0.50925   0.06096   0.71820   0.00000  Uiso   1.00
H27    H     0.32114   0.21591   0.66534   0.00000  Uiso   1.00
H28    H     0.76617   0.35167   0.78718   0.00000  Uiso   1.00
H29    H     0.51100   0.94682   0.75674   0.00000  Uiso   1.00
H30    H     0.11432   0.27356   0.64528   0.00000  Uiso   1.00
H31    H     0.24850   0.32230   0.95713   0.00000  Uiso   1.00
H32    H     0.38551   0.40253   0.99109   0.00000  Uiso   1.00
H33    H     0.26451   0.21052   0.97666   0.00000  Uiso   1.00
H34    H     0.07640   0.36548   0.92380   0.00000  Uiso   1.00
H35    H     0.56753   0.47306   0.99696   0.00000  Uiso   1.00
H36    H     0.31236   0.06821   0.96652   0.00000  Uiso   1.00
H37    H     0.91568   0.39495   0.85506   0.00000  Uiso   1.00
O38    O     0.76119   0.46256   0.91000   0.00000  Uiso   1.00
O39    O     0.42639   0.93142   0.87006   0.00000  Uiso   1.00
O40    O     0.90597   0.36010   0.72382   0.00000  Uiso   1.00
N41    N     0.70061   0.36923   0.83189   0.00000  Uiso   1.00
N42    N     0.46205   0.99073   0.80343   0.00000  Uiso   1.00
N43    N     0.09119   0.29619   0.69922   0.00000  Uiso   1.00
N44    N     0.59372   0.43455   0.94477   0.00000  Uiso   1.00
N45    N     0.35517   0.05605   0.91631   0.00000  Uiso   1.00
N46    N     0.98430   0.36151   0.81210   0.00000  Uiso   1.00
C47    C     0.20159   0.23804   0.43965   0.00000  Uiso   1.00
C48    C     0.29290   0.19364   0.45204   0.00000  Uiso   1.00
C49    C     0.36842   0.22026   0.48834   0.00000  Uiso   1.00
C50    C     0.44555   0.17088   0.49391   0.00000  Uiso   1.00
C51    C     0.58715   0.11308   0.51763   0.00000  Uiso   1.00
C52    C     0.22406   0.20088   0.35840   0.00000  Uiso   1.00
C53    C     0.24168   0.23359   0.31596   0.00000  Uiso   1.00
C54    C     0.26084   0.19031   0.24270   0.00000  Uiso   1.00
C55    C     0.29548   0.14376   0.12105   0.00000  Uiso   1.00
C56    C     0.08965   0.22708   0.47106   0.00000  Uiso   1.00
C57    C     0.99423   0.28182   0.52333   0.00000  Uiso   1.00
C58    C     0.90021   0.26060   0.54491   0.00000  Uiso   1.00
C59    C     0.72615   0.25473   0.59819   0.00000  Uiso   1.00
C60    C     0.20427   0.10300   0.38501   0.00000  Uiso   1.00
C61    C     0.29436   0.12029   0.42236   0.00000  Uiso   1.00
C62    C     0.37139   0.07086   0.42788   0.00000  Uiso   1.00
C63    C     0.44700   0.09740   0.46418   0.00000  Uiso   1.00
C64    C     0.22551   0.12753   0.32872   0.00000  Uiso   1.00
C65    C     0.24464   0.08419   0.25550   0.00000  Uiso   1.00
C66    C     0.26229   0.11683   0.21296   0.00000  Uiso   1.00
C67    C     0.09110   0.15373   0.44138   0.00000  Uiso   1.00
C68    C     0.99720   0.13241   0.46288   0.00000  Uiso   1.00
C69    C     0.90167   0.18712   0.51518   0.00000  Uiso   1.00
H70    H     0.20045   0.29515   0.46275   0.00000  Uiso   1.00
H71    H     0.36727   0.27703   0.51129   0.00000  Uiso   1.00
H72    H     0.24053   0.29036   0.33894   0.00000  Uiso   1.00
H73    H     0.99314   0.33858   0.54629   0.00000  Uiso   1.00
H74    H     0.55289   0.22458   0.55199   0.00000  Uiso   1.00
H75    H     0.28562   0.25270   0.18859   0.00000  Uiso   1.00
H76    H     0.76393   0.35438   0.62582   0.00000  Uiso   1.00
H77    H     0.20540   0.04590   0.36190   0.00000  Uiso   1.00
H78    H     0.37249   0.01410   0.40491   0.00000  Uiso   1.00
H79    H     0.24576   0.02743   0.23255   0.00000  Uiso   1.00
H80    H     0.99836   0.07565   0.43990   0.00000  Uiso   1.00
H81    H     0.55713   0.01118   0.46564   0.00000  Uiso   1.00
H82    H     0.28986   0.03930   0.10224   0.00000  Uiso   1.00
H83    H     0.76817   0.14098   0.53947   0.00000  Uiso   1.00
O84    O     0.66487   0.10146   0.53891   0.00000  Uiso   1.00
O85    O     0.31419   0.13835   0.06214   0.00000  Uiso   1.00
O86    O     0.62975   0.27175   0.63577   0.00000  Uiso   1.00
N87    N     0.53094   0.17873   0.52578   0.00000  Uiso   1.00
N88    N     0.28108   0.20501   0.18602   0.00000  Uiso   1.00
N89    N     0.79333   0.30007   0.59478   0.00000  Uiso   1.00
N90    N     0.53323   0.06389   0.47932   0.00000  Uiso   1.00
N91    N     0.28336   0.09018   0.13956   0.00000  Uiso   1.00
N92    N     0.79561   0.18524   0.54831   0.00000  Uiso   1.00
C93    C     0.62870   0.56141   0.79294   0.00000  Uiso   1.00
C94    C     0.73426   0.55103   0.73572   0.00000  Uiso   1.00
C95    C     0.84458   0.51611   0.72469   0.00000  Uiso   1.00
C96    C     0.92940   0.51229   0.66957   0.00000  Uiso   1.00
C97    C     0.09707   0.49163   0.58720   0.00000  Uiso   1.00
C98    C     0.57217   0.64300   0.83685   0.00000  Uiso   1.00
C99    C     0.54621   0.68540   0.91087   0.00000  Uiso   1.00
C100   C     0.49457   0.75900   0.94088   0.00000  Uiso   1.00
C101   C     0.41053   0.88112   0.01554   0.00000  Uiso   1.00
C102   C     0.54846   0.52812   0.75261   0.00000  Uiso   1.00
C103   C     0.50253   0.47394   0.75581   0.00000  Uiso   1.00
C104   C     0.43091   0.45084   0.71491   0.00000  Uiso   1.00
C105   C     0.31006   0.39459   0.65877   0.00000  Uiso   1.00
C106   C     0.58315   0.61673   0.71465   0.00000  Uiso   1.00
C107   C     0.70951   0.58108   0.69319   0.00000  Uiso   1.00
C108   C     0.79419   0.57731   0.63806   0.00000  Uiso   1.00
C109   C     0.90462   0.54239   0.62696   0.00000  Uiso   1.00
C110   C     0.54743   0.67305   0.79433   0.00000  Uiso   1.00
C111   C     0.49582   0.74660   0.82424   0.00000  Uiso   1.00
C112   C     0.46979   0.78910   0.89828   0.00000  Uiso   1.00
C113   C     0.52372   0.55817   0.71008   0.00000  Uiso   1.00
C114   C     0.45215   0.53515   0.66918   0.00000  Uiso   1.00
C115   C     0.40613   0.48094   0.67231   0.00000  Uiso   1.00
H116   H     0.64796   0.53802   0.82606   0.00000  Uiso   1.00
H117   H     0.86369   0.49286   0.75762   0.00000  Uiso   1.00
H118   H     0.56535   0.66213   0.94377   0.00000  Uiso   1.00
H119   H     0.52169   0.45070   0.78873   0.00000  Uiso   1.00
H120   H     0.09197   0.45607   0.66300   0.00000  Uiso   1.00
H121   H     0.46287   0.81297   0.05551   0.00000  Uiso   1.00
H122   H     0.37080   0.36714   0.72858   0.00000  Uiso   1.00
H123   H     0.56389   0.64013   0.68154   0.00000  Uiso   1.00
H124   H     0.77502   0.60057   0.60516   0.00000  Uiso   1.00
H125   H     0.47668   0.76984   0.79131   0.00000  Uiso   1.00
H126   H     0.43302   0.55841   0.63627   0.00000  Uiso   1.00
H127   H     0.02000   0.54350   0.53927   0.00000  Uiso   1.00
H128   H     0.39090   0.90039   0.93177   0.00000  Uiso   1.00
H129   H     0.29884   0.45457   0.60484   0.00000  Uiso   1.00
O130   O     0.19639   0.47195   0.55352   0.00000  Uiso   1.00
O131   O     0.37102   0.94017   0.06847   0.00000  Uiso   1.00
O132   O     0.25024   0.35526   0.63954   0.00000  Uiso   1.00
N133   N     0.04606   0.48207   0.64435   0.00000  Uiso   1.00
N134   N     0.45790   0.81574   0.01132   0.00000  Uiso   1.00
N135   N     0.37180   0.39895   0.70568   0.00000  Uiso   1.00
N136   N     0.00733   0.52911   0.57777   0.00000  Uiso   1.00
N137   N     0.41917   0.86279   0.94474   0.00000  Uiso   1.00
N138   N     0.33308   0.44599   0.63910   0.00000  Uiso   1.00
C139   C     0.57264   0.78700   0.23175   0.00000  Uiso   1.00
C140   C     0.52346   0.72797   0.18663   0.00000  Uiso   1.00
C141   C     0.42257   0.71473   0.21157   0.00000  Uiso   1.00
C142   C     0.39232   0.65823   0.16179   0.00000  Uiso   1.00
C143   C     0.30555   0.57294   0.10268   0.00000  Uiso   1.00
C144   C     0.58919   0.83229   0.19447   0.00000  Uiso   1.00
C145   C     0.54357   0.90676   0.22600   0.00000  Uiso   1.00
C146   C     0.56868   0.93807   0.18282   0.00000  Uiso   1.00
C147   C     0.58402   0.01476   0.13590   0.00000  Uiso   1.00
C148   C     0.69139   0.74810   0.22319   0.00000  Uiso   1.00
C149   C     0.73172   0.75179   0.27887   0.00000  Uiso   1.00
C150   C     0.84288   0.71223   0.25987   0.00000  Uiso   1.00
C151   C     0.01691   0.65819   0.25755   0.00000  Uiso   1.00
C152   C     0.69834   0.71018   0.09901   0.00000  Uiso   1.00
C153   C     0.59174   0.68625   0.11453   0.00000  Uiso   1.00
C154   C     0.56164   0.62975   0.06470   0.00000  Uiso   1.00
C155   C     0.46072   0.61643   0.08956   0.00000  Uiso   1.00
C156   C     0.65747   0.79057   0.12237   0.00000  Uiso   1.00
C157   C     0.68265   0.82178   0.07913   0.00000  Uiso   1.00
C158   C     0.63708   0.89628   0.11059   0.00000  Uiso   1.00
C159   C     0.75967   0.70637   0.15109   0.00000  Uiso   1.00
C160   C     0.87079   0.66680   0.13200   0.00000  Uiso   1.00
C161   C     0.91128   0.67044   0.18764   0.00000  Uiso   1.00
H162   H     0.51948   0.81948   0.28789   0.00000  Uiso   1.00
H163   H     0.36974   0.74704   0.26737   0.00000  Uiso   1.00
H164   H     0.49075   0.93904   0.28180   0.00000  Uiso   1.00
H165   H     0.67886   0.78409   0.33466   0.00000  Uiso   1.00
H166   H     0.23383   0.64833   0.21282   0.00000  Uiso   1.00
H167   H     0.48900   0.05318   0.24326   0.00000  Uiso   1.00
H168   H     0.88568   0.72644   0.35472   0.00000  Uiso   1.00
H169   H     0.75150   0.67770   0.04287   0.00000  Uiso   1.00
H170   H     0.61449   0.59747   0.00890   0.00000  Uiso   1.00
H171   H     0.73549   0.78948   0.02334   0.00000  Uiso   1.00
H172   H     0.92360   0.63452   0.07620   0.00000  Uiso   1.00
H173   H     0.43247   0.52694   0.00304   0.00000  Uiso   1.00
H174   H     0.68764   0.93179   0.03348   0.00000  Uiso   1.00
H175   H     0.08432   0.60505   0.14494   0.00000  Uiso   1.00
O176   O     0.23881   0.53744   0.09000   0.00000  Uiso   1.00
O177   O     0.57361   0.06858   0.12994   0.00000  Uiso   1.00
O178   O     0.09403   0.63990   0.27618   0.00000  Uiso   1.00
N179   N     0.29939   0.63077   0.16811   0.00000  Uiso   1.00
N180   N     0.53795   0.00927   0.19657   0.00000  Uiso   1.00
N181   N     0.90881   0.70381   0.30078   0.00000  Uiso   1.00
N182   N     0.40628   0.56545   0.05523   0.00000  Uiso   1.00
N183   N     0.64483   0.94395   0.08369   0.00000  Uiso   1.00
N184   N     0.01570   0.63849   0.18790   0.00000  Uiso   1.00
C185   C     0.79841   0.76196   0.56035   0.00000  Uiso   1.00
C186   C     0.70710   0.80636   0.54796   0.00000  Uiso   1.00
C187   C     0.63158   0.77974   0.51166   0.00000  Uiso   1.00
C188   C     0.55445   0.82912   0.50609   0.00000  Uiso   1.00
C189   C     0.41285   0.88692   0.48237   0.00000  Uiso   1.00
C190   C     0.77594   0.79912   0.64160   0.00000  Uiso   1.00
C191   C     0.75832   0.76641   0.68404   0.00000  Uiso   1.00
C192   C     0.73916   0.80969   0.75730   0.00000  Uiso   1.00
C193   C     0.70452   0.85624   0.87895   0.00000  Uiso   1.00
C194   C     0.91035   0.77292   0.52894   0.00000  Uiso   1.00
C195   C     0.00577   0.71818   0.47667   0.00000  Uiso   1.00
C196   C     0.09979   0.73940   0.45509   0.00000  Uiso   1.00
C197   C     0.27385   0.74527   0.40181   0.00000  Uiso   1.00
C198   C     0.79573   0.89700   0.61499   0.00000  Uiso   1.00
C199   C     0.70564   0.87971   0.57764   0.00000  Uiso   1.00
C200   C     0.62861   0.92914   0.57212   0.00000  Uiso   1.00
C201   C     0.55300   0.90260   0.53582   0.00000  Uiso   1.00
C202   C     0.77449   0.87247   0.67128   0.00000  Uiso   1.00
C203   C     0.75536   0.91581   0.74450   0.00000  Uiso   1.00
C204   C     0.73771   0.88317   0.78704   0.00000  Uiso   1.00
C205   C     0.90890   0.84627   0.55862   0.00000  Uiso   1.00
C206   C     0.00280   0.86759   0.53712   0.00000  Uiso   1.00
C207   C     0.09833   0.81288   0.48482   0.00000  Uiso   1.00
H208   H     0.79955   0.70485   0.53725   0.00000  Uiso   1.00
H209   H     0.63273   0.72297   0.48871   0.00000  Uiso   1.00
H210   H     0.75947   0.70964   0.66106   0.00000  Uiso   1.00
H211   H     0.00686   0.66142   0.45371   0.00000  Uiso   1.00
H212   H     0.44711   0.77542   0.44801   0.00000  Uiso   1.00
H213   H     0.71438   0.74730   0.81141   0.00000  Uiso   1.00
H214   H     0.23607   0.64562   0.37418   0.00000  Uiso   1.00
H215   H     0.79460   0.95410   0.63810   0.00000  Uiso   1.00
H216   H     0.62751   0.98590   0.59510   0.00000  Uiso   1.00
H217   H     0.75424   0.97257   0.76745   0.00000  Uiso   1.00
H218   H     0.00164   0.92435   0.56010   0.00000  Uiso   1.00
H219   H     0.44287   0.98882   0.53436   0.00000  Uiso   1.00
H220   H     0.71014   0.96070   0.89776   0.00000  Uiso   1.00
H221   H     0.23183   0.85902   0.46053   0.00000  Uiso   1.00
O222   O     0.33513   0.89854   0.46109   0.00000  Uiso   1.00
O223   O     0.68581   0.86165   0.93786   0.00000  Uiso   1.00
O224   O     0.37025   0.72825   0.36423   0.00000  Uiso   1.00
N225   N     0.46906   0.82127   0.47422   0.00000  Uiso   1.00
N226   N     0.71892   0.79499   0.81398   0.00000  Uiso   1.00
N227   N     0.20667   0.69993   0.40522   0.00000  Uiso   1.00
N228   N     0.46677   0.93610   0.52068   0.00000  Uiso   1.00
N229   N     0.71664   0.90982   0.86044   0.00000  Uiso   1.00
N230   N     0.20439   0.81476   0.45169   0.00000  Uiso   1.00
C231   C     0.37130   0.43859   0.20706   0.00000  Uiso   1.00
C232   C     0.26574   0.44897   0.26428   0.00000  Uiso   1.00
C233   C     0.15542   0.48389   0.27531   0.00000  Uiso   1.00
C234   C     0.07060   0.48771   0.33043   0.00000  Uiso   1.00
C235   C     0.90293   0.50837   0.41280   0.00000  Uiso   1.00
C236   C     0.42783   0.35700   0.16315   0.00000  Uiso   1.00
C237   C     0.45379   0.31460   0.08913   0.00000  Uiso   1.00
C238   C     0.50543   0.24100   0.05912   0.00000  Uiso   1.00
C239   C     0.58947   0.11888   0.98446   0.00000  Uiso   1.00
C240   C     0.45154   0.47188   0.24739   0.00000  Uiso   1.00
C241   C     0.49747   0.52606   0.24419   0.00000  Uiso   1.00
C242   C     0.56909   0.54916   0.28509   0.00000  Uiso   1.00
C243   C     0.68994   0.60541   0.34123   0.00000  Uiso   1.00
C244   C     0.41685   0.38327   0.28535   0.00000  Uiso   1.00
C245   C     0.29049   0.41892   0.30681   0.00000  Uiso   1.00
C246   C     0.20581   0.42269   0.36194   0.00000  Uiso   1.00
C247   C     0.09538   0.45761   0.37304   0.00000  Uiso   1.00
C248   C     0.45257   0.32695   0.20567   0.00000  Uiso   1.00
C249   C     0.50418   0.25340   0.17576   0.00000  Uiso   1.00
C250   C     0.53021   0.21090   0.10172   0.00000  Uiso   1.00
C251   C     0.47628   0.44183   0.28992   0.00000  Uiso   1.00
C252   C     0.54785   0.46485   0.33082   0.00000  Uiso   1.00
C253   C     0.59387   0.51906   0.32769   0.00000  Uiso   1.00
H254   H     0.35204   0.46198   0.17394   0.00000  Uiso   1.00
H255   H     0.13631   0.50714   0.24238   0.00000  Uiso   1.00
H256   H     0.43465   0.33787   0.05623   0.00000  Uiso   1.00
H257   H     0.47831   0.54930   0.21128   0.00000  Uiso   1.00
H258   H     0.90803   0.54392   0.33700   0.00000  Uiso   1.00
H259   H     0.53713   0.18703   0.94449   0.00000  Uiso   1.00
H260   H     0.62920   0.63286   0.27142   0.00000  Uiso   1.00
H261   H     0.43611   0.35987   0.31846   0.00000  Uiso   1.00
H262   H     0.22498   0.39943   0.39484   0.00000  Uiso   1.00
H263   H     0.52332   0.23016   0.20869   0.00000  Uiso   1.00
H264   H     0.56698   0.44159   0.36373   0.00000  Uiso   1.00
H265   H     0.98000   0.45650   0.46073   0.00000  Uiso   1.00
H266   H     0.60911   0.09961   0.06823   0.00000  Uiso   1.00
H267   H     0.70116   0.54543   0.39516   0.00000  Uiso   1.00
O268   O     0.80361   0.52805   0.44648   0.00000  Uiso   1.00
O269   O     0.62898   0.05983   0.93153   0.00000  Uiso   1.00
O270   O     0.74976   0.64474   0.36046   0.00000  Uiso   1.00
N271   N     0.95394   0.51793   0.35565   0.00000  Uiso   1.00
N272   N     0.54210   0.18426   0.98868   0.00000  Uiso   1.00
N273   N     0.62820   0.60105   0.29432   0.00000  Uiso   1.00
N274   N     0.99267   0.47089   0.42223   0.00000  Uiso   1.00
N275   N     0.58083   0.13721   0.05526   0.00000  Uiso   1.00
N276   N     0.66692   0.55401   0.36090   0.00000  Uiso   1.00
