data_job_07001
_audit_creation_date              2018-12-19
_audit_creation_method            'Materials Studio'
_symmetry_space_group_name_H-M    'P1'
_symmetry_Int_Tables_number       1
_symmetry_cell_setting            triclinic
loop_
_symmetry_equiv_pos_as_xyz
  x,y,z
_cell_length_a                    24.1961
_cell_length_b                    24.7178
_cell_length_c                    25.0335
_cell_angle_alpha                 68.7124
_cell_angle_beta                  115.9404
_cell_angle_gamma                 84.4971
loop_
_atom_site_label
_atom_site_type_symbol
_atom_site_fract_x
_atom_site_fract_y
_atom_site_fract_z
_atom_site_U_iso_or_equiv
_atom_site_adp_type
_atom_site_occupancy
C1     C     0.37908   0.87288   0.28873   0.00000  Uiso   1.00
C2     C     0.41614   0.91355   0.31306   0.00000  Uiso   1.00
C3     C     0.42617   0.92134   0.36844   0.00000  Uiso   1.00
C4     C     0.46132   0.96054   0.38237   0.00000  Uiso   1.00
C5     C     0.51515   0.01911   0.42623   0.00000  Uiso   1.00
C6     C     0.32614   0.91412   0.21670   0.00000  Uiso   1.00
C7     C     0.26051   0.92238   0.19104   0.00000  Uiso   1.00
C8     C     0.21991   0.96204   0.12386   0.00000  Uiso   1.00
C9     C     0.13402   0.02145   0.01809   0.00000  Uiso   1.00
C10    C     0.42550   0.82919   0.28590   0.00000  Uiso   1.00
C11    C     0.44339   0.76604   0.31842   0.00000  Uiso   1.00
C12    C     0.48642   0.73420   0.30948   0.00000  Uiso   1.00
C13    C     0.55480   0.66174   0.31117   0.00000  Uiso   1.00
C14    C     0.42365   0.92863   0.21501   0.00000  Uiso   1.00
C15    C     0.44035   0.94383   0.27302   0.00000  Uiso   1.00
C16    C     0.47549   0.98303   0.28688   0.00000  Uiso   1.00
C17    C     0.48558   0.99088   0.34226   0.00000  Uiso   1.00
C18    C     0.35035   0.94440   0.17666   0.00000  Uiso   1.00
C19    C     0.30983   0.98406   0.10949   0.00000  Uiso   1.00
C20    C     0.24416   0.99238   0.08374   0.00000  Uiso   1.00
C21    C     0.44971   0.85947   0.24586   0.00000  Uiso   1.00
C22    C     0.49272   0.82772   0.23687   0.00000  Uiso   1.00
C23    C     0.51068   0.76454   0.26937   0.00000  Uiso   1.00
H24    H     0.36022   0.84930   0.31989   0.00000  Uiso   1.00
H25    H     0.40742   0.89790   0.39941   0.00000  Uiso   1.00
H26    H     0.24179   0.89893   0.22204   0.00000  Uiso   1.00
H27    H     0.42465   0.74262   0.34940   0.00000  Uiso   1.00
H28    H     0.47041   0.96515   0.46989   0.00000  Uiso   1.00
H29    H     0.12117   0.96731   0.09590   0.00000  Uiso   1.00
H30    H     0.50675   0.63769   0.36446   0.00000  Uiso   1.00
H31    H     0.44250   0.95221   0.18384   0.00000  Uiso   1.00
H32    H     0.49422   0.00645   0.25589   0.00000  Uiso   1.00
H33    H     0.32859   0.00748   0.07852   0.00000  Uiso   1.00
H34    H     0.51144   0.85117   0.20588   0.00000  Uiso   1.00
H35    H     0.54086   0.05326   0.35340   0.00000  Uiso   1.00
H36    H     0.19161   0.05541   0.97941   0.00000  Uiso   1.00
H37    H     0.57720   0.72580   0.24797   0.00000  Uiso   1.00
O38    O     0.53815   0.04305   0.46148   0.00000  Uiso   1.00
O39    O     0.07996   0.04586   0.97082   0.00000  Uiso   1.00
O40    O     0.58584   0.61341   0.32317   0.00000  Uiso   1.00
N41    N     0.47990   0.97844   0.43259   0.00000  Uiso   1.00
N42    N     0.15338   0.98046   0.08294   0.00000  Uiso   1.00
N43    N     0.51386   0.67229   0.33401   0.00000  Uiso   1.00
N44    N     0.51781   0.02585   0.36991   0.00000  Uiso   1.00
N45    N     0.19129   0.02786   0.02026   0.00000  Uiso   1.00
N46    N     0.55176   0.71970   0.27132   0.00000  Uiso   1.00
C47    C     0.63450   0.34307   0.33130   0.00000  Uiso   1.00
C48    C     0.61752   0.34900   0.26274   0.00000  Uiso   1.00
C49    C     0.58388   0.40242   0.20335   0.00000  Uiso   1.00
C50    C     0.57321   0.39833   0.14595   0.00000  Uiso   1.00
C51    C     0.54344   0.41597   0.03918   0.00000  Uiso   1.00
C52    C     0.60638   0.29483   0.35868   0.00000  Uiso   1.00
C53    C     0.56338   0.30269   0.37998   0.00000  Uiso   1.00
C54    C     0.54333   0.25299   0.40335   0.00000  Uiso   1.00
C55    C     0.49629   0.18652   0.44559   0.00000  Uiso   1.00
C56    C     0.70760   0.31532   0.37500   0.00000  Uiso   1.00
C57    C     0.74971   0.34041   0.41003   0.00000  Uiso   1.00
C58    C     0.81489   0.30795   0.44715   0.00000  Uiso   1.00
C59    C     0.92502   0.27330   0.51471   0.00000  Uiso   1.00
C60    C     0.67536   0.24082   0.33497   0.00000  Uiso   1.00
C61    C     0.63971   0.29346   0.26473   0.00000  Uiso   1.00
C62    C     0.62909   0.28928   0.20740   0.00000  Uiso   1.00
C63    C     0.59544   0.34268   0.14794   0.00000  Uiso   1.00
C64    C     0.62857   0.23929   0.36067   0.00000  Uiso   1.00
C65    C     0.60858   0.18956   0.38403   0.00000  Uiso   1.00
C66    C     0.56556   0.19735   0.40535   0.00000  Uiso   1.00
C67    C     0.72979   0.25978   0.37699   0.00000  Uiso   1.00
C68    C     0.79491   0.22727   0.41407   0.00000  Uiso   1.00
C69    C     0.83712   0.25231   0.44915   0.00000  Uiso   1.00
H70    H     0.61722   0.38631   0.32976   0.00000  Uiso   1.00
H71    H     0.56671   0.44539   0.20183   0.00000  Uiso   1.00
H72    H     0.54622   0.34568   0.37844   0.00000  Uiso   1.00
H73    H     0.73252   0.38339   0.40848   0.00000  Uiso   1.00
H74    H     0.52048   0.48639   0.06088   0.00000  Uiso   1.00
H75    H     0.47728   0.27614   0.43328   0.00000  Uiso   1.00
H76    H     0.87014   0.35566   0.49663   0.00000  Uiso   1.00
H77    H     0.69264   0.19757   0.33651   0.00000  Uiso   1.00
H78    H     0.64626   0.24629   0.20896   0.00000  Uiso   1.00
H79    H     0.62577   0.14658   0.38556   0.00000  Uiso   1.00
H80    H     0.81207   0.18429   0.41560   0.00000  Uiso   1.00
H81    H     0.58504   0.32480   0.06666   0.00000  Uiso   1.00
H82    H     0.54184   0.11454   0.43907   0.00000  Uiso   1.00
H83    H     0.93470   0.19406   0.50241   0.00000  Uiso   1.00
O84    O     0.52088   0.44105   0.97973   0.00000  Uiso   1.00
O85    O     0.46421   0.16520   0.46832   0.00000  Uiso   1.00
O86    O     0.97963   0.26953   0.55142   0.00000  Uiso   1.00
N87    N     0.54205   0.44168   0.07975   0.00000  Uiso   1.00
N88    N     0.50165   0.24510   0.42791   0.00000  Uiso   1.00
N89    N     0.86894   0.31944   0.48715   0.00000  Uiso   1.00
N90    N     0.57679   0.35472   0.08286   0.00000  Uiso   1.00
N91    N     0.53639   0.15815   0.43102   0.00000  Uiso   1.00
N92    N     0.90368   0.23249   0.49026   0.00000  Uiso   1.00
C93    C     0.06954   0.72950   0.32133   0.00000  Uiso   1.00
C94    C     0.08591   0.66415   0.37202   0.00000  Uiso   1.00
C95    C     0.04440   0.63949   0.39086   0.00000  Uiso   1.00
C96    C     0.06855   0.57880   0.43800   0.00000  Uiso   1.00
C97    C     0.08434   0.48262   0.51257   0.00000  Uiso   1.00
C98    C     0.11962   0.75570   0.35753   0.00000  Uiso   1.00
C99    C     0.10646   0.80803   0.36419   0.00000  Uiso   1.00
C100   C     0.15898   0.82442   0.39912   0.00000  Uiso   1.00
C101   C     0.22711   0.87040   0.45117   0.00000  Uiso   1.00
C102   C     0.08306   0.72483   0.26885   0.00000  Uiso   1.00
C103   C     0.03916   0.75120   0.20094   0.00000  Uiso   1.00
C104   C     0.06091   0.74160   0.16121   0.00000  Uiso   1.00
C105   C     0.07226   0.73965   0.07557   0.00000  Uiso   1.00
C106   C     0.18624   0.66556   0.37153   0.00000  Uiso   1.00
C107   C     0.14930   0.62942   0.39928   0.00000  Uiso   1.00
C108   C     0.17351   0.56875   0.44640   0.00000  Uiso   1.00
C109   C     0.13205   0.54401   0.46531   0.00000  Uiso   1.00
C110   C     0.18301   0.72098   0.38480   0.00000  Uiso   1.00
C111   C     0.23557   0.73729   0.41973   0.00000  Uiso   1.00
C112   C     0.22249   0.78963   0.42644   0.00000  Uiso   1.00
C113   C     0.14645   0.69010   0.29612   0.00000  Uiso   1.00
C114   C     0.16827   0.68046   0.25648   0.00000  Uiso   1.00
C115   C     0.12441   0.70681   0.18853   0.00000  Uiso   1.00
H116   H     0.02019   0.75654   0.30010   0.00000  Uiso   1.00
H117   H     0.99535   0.66638   0.36975   0.00000  Uiso   1.00
H118   H     0.05740   0.83490   0.34308   0.00000  Uiso   1.00
H119   H     0.99011   0.77808   0.17986   0.00000  Uiso   1.00
H120   H     0.99577   0.55112   0.45901   0.00000  Uiso   1.00
H121   H     0.12660   0.90646   0.40275   0.00000  Uiso   1.00
H122   H     0.98471   0.78664   0.05857   0.00000  Uiso   1.00
H123   H     0.23559   0.63852   0.39276   0.00000  Uiso   1.00
H124   H     0.22257   0.54189   0.46749   0.00000  Uiso   1.00
H125   H     0.28461   0.71041   0.44082   0.00000  Uiso   1.00
H126   H     0.21733   0.65358   0.27760   0.00000  Uiso   1.00
H127   H     0.18019   0.45008   0.53834   0.00000  Uiso   1.00
H128   H     0.31102   0.80542   0.48208   0.00000  Uiso   1.00
H129   H     0.16913   0.68559   0.13790   0.00000  Uiso   1.00
O130   O     0.07554   0.43917   0.54618   0.00000  Uiso   1.00
O131   O     0.24717   0.90536   0.47236   0.00000  Uiso   1.00
O132   O     0.06102   0.74816   0.02080   0.00000  Uiso   1.00
N133   N     0.04096   0.54060   0.46742   0.00000  Uiso   1.00
N134   N     0.16327   0.87281   0.41482   0.00000  Uiso   1.00
N135   N     0.03062   0.76080   0.09304   0.00000  Uiso   1.00
N136   N     0.14019   0.48623   0.51010   0.00000  Uiso   1.00
N137   N     0.26251   0.81844   0.45751   0.00000  Uiso   1.00
N138   N     0.12986   0.70643   0.13573   0.00000  Uiso   1.00
C139   C     0.76750   0.56632   0.66659   0.00000  Uiso   1.00
C140   C     0.72013   0.55719   0.60819   0.00000  Uiso   1.00
C141   C     0.66395   0.54265   0.60027   0.00000  Uiso   1.00
C142   C     0.62713   0.53627   0.54337   0.00000  Uiso   1.00
C143   C     0.55071   0.52092   0.45985   0.00000  Uiso   1.00
C144   C     0.77303   0.62989   0.63634   0.00000  Uiso   1.00
C145   C     0.76135   0.67647   0.65210   0.00000  Uiso   1.00
C146   C     0.76907   0.73127   0.61890   0.00000  Uiso   1.00
C147   C     0.77483   0.82878   0.57912   0.00000  Uiso   1.00
C148   C     0.83298   0.52184   0.69565   0.00000  Uiso   1.00
C149   C     0.87170   0.47757   0.76129   0.00000  Uiso   1.00
C150   C     0.92990   0.44141   0.77803   0.00000  Uiso   1.00
C151   C     0.02874   0.37115   0.83033   0.00000  Uiso   1.00
C152   C     0.80201   0.58084   0.57961   0.00000  Uiso   1.00
C153   C     0.73887   0.56508   0.56094   0.00000  Uiso   1.00
C154   C     0.70213   0.55871   0.50404   0.00000  Uiso   1.00
C155   C     0.64591   0.54416   0.49605   0.00000  Uiso   1.00
C156   C     0.79178   0.63778   0.58909   0.00000  Uiso   1.00
C157   C     0.79952   0.69252   0.55587   0.00000  Uiso   1.00
C158   C     0.78785   0.73917   0.57157   0.00000  Uiso   1.00
C159   C     0.85172   0.52972   0.64840   0.00000  Uiso   1.00
C160   C     0.90988   0.49363   0.66505   0.00000  Uiso   1.00
C161   C     0.94868   0.44931   0.73070   0.00000  Uiso   1.00
H162   H     0.75291   0.56019   0.70337   0.00000  Uiso   1.00
H163   H     0.64946   0.53656   0.63684   0.00000  Uiso   1.00
H164   H     0.74685   0.67035   0.68867   0.00000  Uiso   1.00
H165   H     0.85718   0.47148   0.79783   0.00000  Uiso   1.00
H166   H     0.54302   0.51386   0.54224   0.00000  Uiso   1.00
H167   H     0.74839   0.79596   0.65152   0.00000  Uiso   1.00
H168   H     0.98106   0.37661   0.88172   0.00000  Uiso   1.00
H169   H     0.81660   0.58698   0.54283   0.00000  Uiso   1.00
H170   H     0.71665   0.56481   0.46749   0.00000  Uiso   1.00
H171   H     0.81403   0.69861   0.51931   0.00000  Uiso   1.00
H172   H     0.92437   0.49974   0.62848   0.00000  Uiso   1.00
H173   H     0.59755   0.53680   0.40478   0.00000  Uiso   1.00
H174   H     0.80292   0.81889   0.51407   0.00000  Uiso   1.00
H175   H     0.03559   0.39955   0.74426   0.00000  Uiso   1.00
O176   O     0.50338   0.51029   0.42683   0.00000  Uiso   1.00
O177   O     0.77282   0.88038   0.57023   0.00000  Uiso   1.00
O178   O     0.07807   0.33021   0.87223   0.00000  Uiso   1.00
N179   N     0.56958   0.52229   0.52023   0.00000  Uiso   1.00
N180   N     0.76157   0.78604   0.62240   0.00000  Uiso   1.00
N181   N     0.97911   0.39399   0.83762   0.00000  Uiso   1.00
N182   N     0.59892   0.53463   0.44627   0.00000  Uiso   1.00
N183   N     0.79092   0.79838   0.54844   0.00000  Uiso   1.00
N184   N     0.00845   0.40633   0.76366   0.00000  Uiso   1.00
C185   C     0.06691   0.73174   0.75673   0.00000  Uiso   1.00
C186   C     0.08535   0.77979   0.71461   0.00000  Uiso   1.00
C187   C     0.04432   0.83677   0.66306   0.00000  Uiso   1.00
C188   C     0.07045   0.87412   0.63064   0.00000  Uiso   1.00
C189   C     0.08923   0.95163   0.56244   0.00000  Uiso   1.00
C190   C     0.11322   0.71703   0.82890   0.00000  Uiso   1.00
C191   C     0.09562   0.72123   0.87344   0.00000  Uiso   1.00
C192   C     0.14521   0.70573   0.93722   0.00000  Uiso   1.00
C193   C     0.20726   0.68576   0.04647   0.00000  Uiso   1.00
C194   C     0.08396   0.67443   0.75005   0.00000  Uiso   1.00
C195   C     0.04176   0.64280   0.72831   0.00000  Uiso   1.00
C196   C     0.06673   0.59143   0.72573   0.00000  Uiso   1.00
C197   C     0.08334   0.50532   0.71256   0.00000  Uiso   1.00
C198   C     0.18629   0.69675   0.79083   0.00000  Uiso   1.00
C199   C     0.15020   0.76079   0.73314   0.00000  Uiso   1.00
C200   C     0.17639   0.79806   0.70078   0.00000  Uiso   1.00
C201   C     0.13540   0.85508   0.64918   0.00000  Uiso   1.00
C202   C     0.17806   0.69802   0.84742   0.00000  Uiso   1.00
C203   C     0.22769   0.68251   0.91116   0.00000  Uiso   1.00
C204   C     0.21017   0.68669   0.95578   0.00000  Uiso   1.00
C205   C     0.14880   0.65543   0.76857   0.00000  Uiso   1.00
C206   C     0.17384   0.60409   0.76603   0.00000  Uiso   1.00
C207   C     0.13168   0.57239   0.74428   0.00000  Uiso   1.00
H208   H     0.01643   0.74654   0.74232   0.00000  Uiso   1.00
H209   H     0.99414   0.85146   0.64875   0.00000  Uiso   1.00
H210   H     0.04544   0.73593   0.85909   0.00000  Uiso   1.00
H211   H     0.99159   0.65752   0.71398   0.00000  Uiso   1.00
H212   H     0.99803   0.95942   0.55319   0.00000  Uiso   1.00
H213   H     0.10619   0.71579   0.99672   0.00000  Uiso   1.00
H214   H     0.99264   0.55045   0.69073   0.00000  Uiso   1.00
H215   H     0.23677   0.68195   0.80525   0.00000  Uiso   1.00
H216   H     0.22657   0.78334   0.71512   0.00000  Uiso   1.00
H217   H     0.27787   0.66780   0.92547   0.00000  Uiso   1.00
H218   H     0.22402   0.58940   0.78036   0.00000  Uiso   1.00
H219   H     0.18668   0.90413   0.60706   0.00000  Uiso   1.00
H220   H     0.29484   0.66050   0.05060   0.00000  Uiso   1.00
H221   H     0.18129   0.49516   0.74461   0.00000  Uiso   1.00
O222   O     0.08168   0.99964   0.51972   0.00000  Uiso   1.00
O223   O     0.22357   0.68000   0.10161   0.00000  Uiso   1.00
O224   O     0.07460   0.46308   0.70017   0.00000  Uiso   1.00
N225   N     0.04383   0.93249   0.57822   0.00000  Uiso   1.00
N226   N     0.14495   0.70472   0.99290   0.00000  Uiso   1.00
N227   N     0.03879   0.55013   0.70684   0.00000  Uiso   1.00
N228   N     0.14534   0.90273   0.60722   0.00000  Uiso   1.00
N229   N     0.24646   0.67497   0.02189   0.00000  Uiso   1.00
N230   N     0.14030   0.52038   0.73583   0.00000  Uiso   1.00
C231   C     0.30342   0.17083   0.67268   0.00000  Uiso   1.00
C232   C     0.35167   0.11196   0.73417   0.00000  Uiso   1.00
C233   C     0.38046   0.10317   0.79954   0.00000  Uiso   1.00
C234   C     0.42328   0.04597   0.84874   0.00000  Uiso   1.00
C235   C     0.49613   0.96165   0.94660   0.00000  Uiso   1.00
C236   C     0.24359   0.15412   0.63653   0.00000  Uiso   1.00
C237   C     0.18150   0.18079   0.61979   0.00000  Uiso   1.00
C238   C     0.13333   0.15909   0.58679   0.00000  Uiso   1.00
C239   C     0.03836   0.14026   0.53302   0.00000  Uiso   1.00
C240   C     0.33203   0.18750   0.62757   0.00000  Uiso   1.00
C241   C     0.34430   0.24224   0.60329   0.00000  Uiso   1.00
C242   C     0.37058   0.24865   0.56274   0.00000  Uiso   1.00
C243   C     0.41294   0.28165   0.49506   0.00000  Uiso   1.00
C244   C     0.32828   0.08487   0.64382   0.00000  Uiso   1.00
C245   C     0.36518   0.06527   0.71849   0.00000  Uiso   1.00
C246   C     0.40797   0.00807   0.76760   0.00000  Uiso   1.00
C247   C     0.43682   0.99920   0.83304   0.00000  Uiso   1.00
C248   C     0.25709   0.10744   0.62085   0.00000  Uiso   1.00
C249   C     0.20900   0.08569   0.58786   0.00000  Uiso   1.00
C250   C     0.14686   0.11232   0.57109   0.00000  Uiso   1.00
C251   C     0.34554   0.14081   0.61190   0.00000  Uiso   1.00
C252   C     0.37181   0.14714   0.57136   0.00000  Uiso   1.00
C253   C     0.38411   0.20188   0.54703   0.00000  Uiso   1.00
H254   H     0.29290   0.20717   0.68489   0.00000  Uiso   1.00
H255   H     0.36999   0.13931   0.81165   0.00000  Uiso   1.00
H256   H     0.17106   0.21692   0.63193   0.00000  Uiso   1.00
H257   H     0.33384   0.27836   0.61544   0.00000  Uiso   1.00
H258   H     0.46140   0.04347   0.94528   0.00000  Uiso   1.00
H259   H     0.04193   0.20714   0.56631   0.00000  Uiso   1.00
H260   H     0.38518   0.33670   0.53152   0.00000  Uiso   1.00
H261   H     0.33879   0.04853   0.63161   0.00000  Uiso   1.00
H262   H     0.41841   0.97195   0.75546   0.00000  Uiso   1.00
H263   H     0.21947   0.04957   0.57573   0.00000  Uiso   1.00
H264   H     0.38225   0.11101   0.55924   0.00000  Uiso   1.00
H265   H     0.50069   0.90764   0.89967   0.00000  Uiso   1.00
H266   H     0.08122   0.07131   0.52069   0.00000  Uiso   1.00
H267   H     0.42447   0.20087   0.48591   0.00000  Uiso   1.00
O268   O     0.53257   0.92804   0.00491   0.00000  Uiso   1.00
O269   O     0.98224   0.14277   0.50770   0.00000  Uiso   1.00
O270   O     0.43258   0.31275   0.46207   0.00000  Uiso   1.00
N271   N     0.45973   0.02201   0.91755   0.00000  Uiso   1.00
N272   N     0.06755   0.17503   0.56324   0.00000  Uiso   1.00
N273   N     0.38845   0.29616   0.53071   0.00000  Uiso   1.00
N274   N     0.48088   0.94892   0.89301   0.00000  Uiso   1.00
N275   N     0.08870   0.10194   0.53870   0.00000  Uiso   1.00
N276   N     0.40959   0.22307   0.50617   0.00000  Uiso   1.00
C277   C     0.62092   0.12712   0.71127   0.00000  Uiso   1.00
C278   C     0.58386   0.08645   0.68694   0.00000  Uiso   1.00
C279   C     0.57383   0.07866   0.63156   0.00000  Uiso   1.00
C280   C     0.53868   0.03946   0.61763   0.00000  Uiso   1.00
C281   C     0.48485   0.98089   0.57377   0.00000  Uiso   1.00
C282   C     0.67386   0.08588   0.78330   0.00000  Uiso   1.00
C283   C     0.73949   0.07762   0.80896   0.00000  Uiso   1.00
C284   C     0.78009   0.03796   0.87614   0.00000  Uiso   1.00
C285   C     0.86598   0.97855   0.98191   0.00000  Uiso   1.00
C286   C     0.57450   0.17081   0.71410   0.00000  Uiso   1.00
C287   C     0.55661   0.23396   0.68158   0.00000  Uiso   1.00
C288   C     0.51358   0.26580   0.69052   0.00000  Uiso   1.00
C289   C     0.44520   0.33826   0.68883   0.00000  Uiso   1.00
C290   C     0.57635   0.07137   0.78499   0.00000  Uiso   1.00
C291   C     0.55965   0.05617   0.72698   0.00000  Uiso   1.00
C292   C     0.52451   0.01697   0.71312   0.00000  Uiso   1.00
C293   C     0.51442   0.00912   0.65774   0.00000  Uiso   1.00
C294   C     0.64965   0.05560   0.82334   0.00000  Uiso   1.00
C295   C     0.69017   0.01594   0.89051   0.00000  Uiso   1.00
C296   C     0.75584   0.00762   0.91626   0.00000  Uiso   1.00
C297   C     0.55029   0.14053   0.75414   0.00000  Uiso   1.00
C298   C     0.50728   0.17228   0.76313   0.00000  Uiso   1.00
C299   C     0.48932   0.23546   0.73063   0.00000  Uiso   1.00
H300   H     0.63978   0.15070   0.68011   0.00000  Uiso   1.00
H301   H     0.59258   0.10210   0.60059   0.00000  Uiso   1.00
H302   H     0.75821   0.10107   0.77796   0.00000  Uiso   1.00
H303   H     0.57535   0.25738   0.65060   0.00000  Uiso   1.00
H304   H     0.52959   0.03485   0.53011   0.00000  Uiso   1.00
H305   H     0.87883   0.03269   0.90410   0.00000  Uiso   1.00
H306   H     0.49325   0.36231   0.63554   0.00000  Uiso   1.00
H307   H     0.55750   0.04779   0.81616   0.00000  Uiso   1.00
H308   H     0.50578   0.99355   0.74411   0.00000  Uiso   1.00
H309   H     0.67141   0.99252   0.92148   0.00000  Uiso   1.00
H310   H     0.48856   0.14883   0.79412   0.00000  Uiso   1.00
H311   H     0.45914   0.94674   0.64660   0.00000  Uiso   1.00
H312   H     0.80839   0.94459   0.02059   0.00000  Uiso   1.00
H313   H     0.42280   0.27420   0.75203   0.00000  Uiso   1.00
O314   O     0.46185   0.95695   0.53852   0.00000  Uiso   1.00
O315   O     0.92004   0.95414   0.02918   0.00000  Uiso   1.00
O316   O     0.41416   0.38659   0.67683   0.00000  Uiso   1.00
N317   N     0.52010   0.02156   0.56741   0.00000  Uiso   1.00
N318   N     0.84662   0.01954   0.91706   0.00000  Uiso   1.00
N319   N     0.48614   0.32771   0.66599   0.00000  Uiso   1.00
N320   N     0.48219   0.97415   0.63009   0.00000  Uiso   1.00
N321   N     0.80871   0.97214   0.97974   0.00000  Uiso   1.00
N322   N     0.44824   0.28030   0.72868   0.00000  Uiso   1.00
C323   C     0.36550   0.65693   0.66870   0.00000  Uiso   1.00
C324   C     0.38248   0.65100   0.73726   0.00000  Uiso   1.00
C325   C     0.41612   0.59758   0.79665   0.00000  Uiso   1.00
C326   C     0.42679   0.60167   0.85405   0.00000  Uiso   1.00
C327   C     0.45656   0.58403   0.96082   0.00000  Uiso   1.00
C328   C     0.39362   0.70517   0.64132   0.00000  Uiso   1.00
C329   C     0.43662   0.69731   0.62002   0.00000  Uiso   1.00
C330   C     0.45667   0.74701   0.59665   0.00000  Uiso   1.00
C331   C     0.50371   0.81348   0.55441   0.00000  Uiso   1.00
C332   C     0.29240   0.68468   0.62500   0.00000  Uiso   1.00
C333   C     0.25029   0.65959   0.58997   0.00000  Uiso   1.00
C334   C     0.18511   0.69205   0.55285   0.00000  Uiso   1.00
C335   C     0.07498   0.72670   0.48529   0.00000  Uiso   1.00
C336   C     0.32464   0.75918   0.66503   0.00000  Uiso   1.00
C337   C     0.36029   0.70654   0.73527   0.00000  Uiso   1.00
C338   C     0.37091   0.71072   0.79260   0.00000  Uiso   1.00
C339   C     0.40456   0.65732   0.85206   0.00000  Uiso   1.00
C340   C     0.37143   0.76071   0.63933   0.00000  Uiso   1.00
C341   C     0.39142   0.81044   0.61597   0.00000  Uiso   1.00
C342   C     0.43444   0.80265   0.59465   0.00000  Uiso   1.00
C343   C     0.27021   0.74022   0.62301   0.00000  Uiso   1.00
C344   C     0.20509   0.77273   0.58593   0.00000  Uiso   1.00
C345   C     0.16288   0.74769   0.55085   0.00000  Uiso   1.00
H346   H     0.38278   0.61369   0.67024   0.00000  Uiso   1.00
H347   H     0.43329   0.55461   0.79817   0.00000  Uiso   1.00
H348   H     0.45378   0.65432   0.62156   0.00000  Uiso   1.00
H349   H     0.26748   0.61661   0.59152   0.00000  Uiso   1.00
H350   H     0.47952   0.51361   0.93912   0.00000  Uiso   1.00
H351   H     0.52272   0.72386   0.56672   0.00000  Uiso   1.00
H352   H     0.12986   0.64434   0.50337   0.00000  Uiso   1.00
H353   H     0.30736   0.80243   0.66349   0.00000  Uiso   1.00
H354   H     0.35374   0.75371   0.79104   0.00000  Uiso   1.00
H355   H     0.37423   0.85342   0.61444   0.00000  Uiso   1.00
H356   H     0.18793   0.81571   0.58440   0.00000  Uiso   1.00
H357   H     0.41496   0.67520   0.93334   0.00000  Uiso   1.00
H358   H     0.45816   0.88546   0.56093   0.00000  Uiso   1.00
H359   H     0.06530   0.80594   0.49759   0.00000  Uiso   1.00
O360   O     0.47912   0.55895   0.02027   0.00000  Uiso   1.00
O361   O     0.53579   0.83480   0.53168   0.00000  Uiso   1.00
O362   O     0.02037   0.73047   0.44858   0.00000  Uiso   1.00
N363   N     0.45795   0.55832   0.92025   0.00000  Uiso   1.00
N364   N     0.49835   0.75490   0.57209   0.00000  Uiso   1.00
N365   N     0.13106   0.68056   0.51285   0.00000  Uiso   1.00
N366   N     0.42321   0.64528   0.91714   0.00000  Uiso   1.00
N367   N     0.46361   0.84185   0.56898   0.00000  Uiso   1.00
N368   N     0.09632   0.76751   0.50974   0.00000  Uiso   1.00
C369   C     0.93046   0.27050   0.67867   0.00000  Uiso   1.00
C370   C     0.91409   0.33585   0.62798   0.00000  Uiso   1.00
C371   C     0.95560   0.36051   0.60914   0.00000  Uiso   1.00
C372   C     0.93145   0.42120   0.56200   0.00000  Uiso   1.00
C373   C     0.91566   0.51738   0.48743   0.00000  Uiso   1.00
C374   C     0.88038   0.24430   0.64247   0.00000  Uiso   1.00
C375   C     0.89354   0.19197   0.63581   0.00000  Uiso   1.00
C376   C     0.84102   0.17558   0.60088   0.00000  Uiso   1.00
C377   C     0.77289   0.12960   0.54883   0.00000  Uiso   1.00
C378   C     0.91694   0.27517   0.73115   0.00000  Uiso   1.00
C379   C     0.96084   0.24880   0.79906   0.00000  Uiso   1.00
C380   C     0.93909   0.25840   0.83879   0.00000  Uiso   1.00
C381   C     0.92774   0.26035   0.92443   0.00000  Uiso   1.00
C382   C     0.81376   0.33444   0.62847   0.00000  Uiso   1.00
C383   C     0.85070   0.37058   0.60072   0.00000  Uiso   1.00
C384   C     0.82649   0.43125   0.55360   0.00000  Uiso   1.00
C385   C     0.86795   0.45599   0.53469   0.00000  Uiso   1.00
C386   C     0.81699   0.27902   0.61520   0.00000  Uiso   1.00
C387   C     0.76443   0.26271   0.58027   0.00000  Uiso   1.00
C388   C     0.77751   0.21037   0.57356   0.00000  Uiso   1.00
C389   C     0.85355   0.30990   0.70388   0.00000  Uiso   1.00
C390   C     0.83173   0.31954   0.74352   0.00000  Uiso   1.00
C391   C     0.87559   0.29319   0.81147   0.00000  Uiso   1.00
H392   H     0.97981   0.24346   0.69990   0.00000  Uiso   1.00
H393   H     0.00465   0.33362   0.63025   0.00000  Uiso   1.00
H394   H     0.94260   0.16510   0.65692   0.00000  Uiso   1.00
H395   H     0.00989   0.22192   0.82014   0.00000  Uiso   1.00
H396   H     0.00423   0.44888   0.54099   0.00000  Uiso   1.00
H397   H     0.87340   0.09354   0.59725   0.00000  Uiso   1.00
H398   H     0.01529   0.21336   0.94143   0.00000  Uiso   1.00
H399   H     0.76441   0.36148   0.60724   0.00000  Uiso   1.00
H400   H     0.77743   0.45811   0.53251   0.00000  Uiso   1.00
H401   H     0.71539   0.28959   0.55918   0.00000  Uiso   1.00
H402   H     0.78267   0.34642   0.72240   0.00000  Uiso   1.00
H403   H     0.81981   0.54992   0.46166   0.00000  Uiso   1.00
H404   H     0.68898   0.19458   0.51792   0.00000  Uiso   1.00
H405   H     0.83087   0.31441   0.86210   0.00000  Uiso   1.00
O406   O     0.92446   0.56083   0.45382   0.00000  Uiso   1.00
O407   O     0.75283   0.09464   0.52764   0.00000  Uiso   1.00
O408   O     0.93898   0.25184   0.97920   0.00000  Uiso   1.00
N409   N     0.95904   0.45940   0.53258   0.00000  Uiso   1.00
N410   N     0.83673   0.12719   0.58518   0.00000  Uiso   1.00
N411   N     0.96938   0.23920   0.90696   0.00000  Uiso   1.00
N412   N     0.85981   0.51377   0.48990   0.00000  Uiso   1.00
N413   N     0.73749   0.18156   0.54249   0.00000  Uiso   1.00
N414   N     0.87014   0.29357   0.86427   0.00000  Uiso   1.00
C415   C     0.23250   0.43368   0.33341   0.00000  Uiso   1.00
C416   C     0.27987   0.44281   0.39181   0.00000  Uiso   1.00
C417   C     0.33605   0.45735   0.39973   0.00000  Uiso   1.00
C418   C     0.37287   0.46373   0.45663   0.00000  Uiso   1.00
C419   C     0.44929   0.47908   0.54015   0.00000  Uiso   1.00
C420   C     0.22697   0.37011   0.36366   0.00000  Uiso   1.00
C421   C     0.23865   0.32353   0.34790   0.00000  Uiso   1.00
C422   C     0.23093   0.26873   0.38110   0.00000  Uiso   1.00
C423   C     0.22517   0.17122   0.42088   0.00000  Uiso   1.00
C424   C     0.16702   0.47816   0.30435   0.00000  Uiso   1.00
C425   C     0.12830   0.52243   0.23871   0.00000  Uiso   1.00
C426   C     0.07010   0.55859   0.22197   0.00000  Uiso   1.00
C427   C     0.97126   0.62885   0.16967   0.00000  Uiso   1.00
C428   C     0.19799   0.41916   0.42039   0.00000  Uiso   1.00
C429   C     0.26113   0.43492   0.43906   0.00000  Uiso   1.00
C430   C     0.29787   0.44129   0.49596   0.00000  Uiso   1.00
C431   C     0.35409   0.45584   0.50395   0.00000  Uiso   1.00
C432   C     0.20822   0.36222   0.41091   0.00000  Uiso   1.00
C433   C     0.20048   0.30748   0.44413   0.00000  Uiso   1.00
C434   C     0.21215   0.26083   0.42843   0.00000  Uiso   1.00
C435   C     0.14828   0.47028   0.35160   0.00000  Uiso   1.00
C436   C     0.09012   0.50637   0.33495   0.00000  Uiso   1.00
C437   C     0.05132   0.55069   0.26930   0.00000  Uiso   1.00
H438   H     0.24709   0.43981   0.29663   0.00000  Uiso   1.00
H439   H     0.35054   0.46344   0.36316   0.00000  Uiso   1.00
H440   H     0.25315   0.32965   0.31133   0.00000  Uiso   1.00
H441   H     0.14282   0.52852   0.20217   0.00000  Uiso   1.00
H442   H     0.45698   0.48614   0.45776   0.00000  Uiso   1.00
H443   H     0.25161   0.20404   0.34848   0.00000  Uiso   1.00
H444   H     0.01894   0.62339   0.11828   0.00000  Uiso   1.00
H445   H     0.18340   0.41302   0.45717   0.00000  Uiso   1.00
H446   H     0.28335   0.43519   0.53251   0.00000  Uiso   1.00
H447   H     0.18597   0.30139   0.48069   0.00000  Uiso   1.00
H448   H     0.07563   0.50026   0.37152   0.00000  Uiso   1.00
H449   H     0.40245   0.46320   0.59522   0.00000  Uiso   1.00
H450   H     0.19708   0.18111   0.48593   0.00000  Uiso   1.00
H451   H     0.96441   0.60045   0.25574   0.00000  Uiso   1.00
O452   O     0.49662   0.48971   0.57317   0.00000  Uiso   1.00
O453   O     0.22718   0.11962   0.42977   0.00000  Uiso   1.00
O454   O     0.92193   0.66979   0.12777   0.00000  Uiso   1.00
N455   N     0.43042   0.47771   0.47977   0.00000  Uiso   1.00
N456   N     0.23843   0.21396   0.37760   0.00000  Uiso   1.00
N457   N     0.02089   0.60601   0.16238   0.00000  Uiso   1.00
N458   N     0.40108   0.46537   0.55373   0.00000  Uiso   1.00
N459   N     0.20908   0.20162   0.45156   0.00000  Uiso   1.00
N460   N     0.99155   0.59367   0.23634   0.00000  Uiso   1.00
C461   C     0.93309   0.26826   0.24327   0.00000  Uiso   1.00
C462   C     0.91465   0.22021   0.28539   0.00000  Uiso   1.00
C463   C     0.95568   0.16323   0.33694   0.00000  Uiso   1.00
C464   C     0.92955   0.12588   0.36936   0.00000  Uiso   1.00
C465   C     0.91077   0.04837   0.43756   0.00000  Uiso   1.00
C466   C     0.88678   0.28297   0.17110   0.00000  Uiso   1.00
C467   C     0.90438   0.27877   0.12656   0.00000  Uiso   1.00
C468   C     0.85479   0.29427   0.06278   0.00000  Uiso   1.00
C469   C     0.79274   0.31424   0.95353   0.00000  Uiso   1.00
C470   C     0.91604   0.32557   0.24995   0.00000  Uiso   1.00
C471   C     0.95824   0.35720   0.27169   0.00000  Uiso   1.00
C472   C     0.93327   0.40857   0.27427   0.00000  Uiso   1.00
C473   C     0.91666   0.49468   0.28744   0.00000  Uiso   1.00
C474   C     0.81371   0.30325   0.20917   0.00000  Uiso   1.00
C475   C     0.84980   0.23921   0.26686   0.00000  Uiso   1.00
C476   C     0.82361   0.20194   0.29922   0.00000  Uiso   1.00
C477   C     0.86460   0.14492   0.35082   0.00000  Uiso   1.00
C478   C     0.82194   0.30198   0.15258   0.00000  Uiso   1.00
C479   C     0.77231   0.31749   0.08884   0.00000  Uiso   1.00
C480   C     0.78983   0.31331   0.04422   0.00000  Uiso   1.00
C481   C     0.85120   0.34457   0.23143   0.00000  Uiso   1.00
C482   C     0.82616   0.39591   0.23397   0.00000  Uiso   1.00
C483   C     0.86832   0.42761   0.25572   0.00000  Uiso   1.00
H484   H     0.98357   0.25346   0.25768   0.00000  Uiso   1.00
H485   H     0.00586   0.14854   0.35125   0.00000  Uiso   1.00
H486   H     0.95456   0.26407   0.14091   0.00000  Uiso   1.00
H487   H     0.00841   0.34248   0.28602   0.00000  Uiso   1.00
H488   H     0.00197   0.04058   0.44681   0.00000  Uiso   1.00
H489   H     0.89381   0.28421   0.00328   0.00000  Uiso   1.00
H490   H     0.00736   0.44955   0.30927   0.00000  Uiso   1.00
H491   H     0.76323   0.31805   0.19475   0.00000  Uiso   1.00
H492   H     0.77343   0.21666   0.28488   0.00000  Uiso   1.00
H493   H     0.72213   0.33220   0.07453   0.00000  Uiso   1.00
H494   H     0.77598   0.41060   0.21964   0.00000  Uiso   1.00
H495   H     0.81332   0.09587   0.39294   0.00000  Uiso   1.00
H496   H     0.70516   0.33950   0.94940   0.00000  Uiso   1.00
H497   H     0.81871   0.50484   0.25539   0.00000  Uiso   1.00
O498   O     0.91832   0.00036   0.48028   0.00000  Uiso   1.00
O499   O     0.77643   0.32000   0.89839   0.00000  Uiso   1.00
O500   O     0.92540   0.53692   0.29983   0.00000  Uiso   1.00
N501   N     0.95617   0.06751   0.42178   0.00000  Uiso   1.00
N502   N     0.85505   0.29528   0.00710   0.00000  Uiso   1.00
N503   N     0.96121   0.44987   0.29316   0.00000  Uiso   1.00
N504   N     0.85466   0.09727   0.39278   0.00000  Uiso   1.00
N505   N     0.75354   0.32503   0.97811   0.00000  Uiso   1.00
N506   N     0.85970   0.47962   0.26417   0.00000  Uiso   1.00
C507   C     0.69658   0.82917   0.32732   0.00000  Uiso   1.00
C508   C     0.64833   0.88804   0.26583   0.00000  Uiso   1.00
C509   C     0.61954   0.89683   0.20046   0.00000  Uiso   1.00
C510   C     0.57672   0.95403   0.15126   0.00000  Uiso   1.00
C511   C     0.50387   0.03835   0.05340   0.00000  Uiso   1.00
C512   C     0.75641   0.84588   0.36347   0.00000  Uiso   1.00
C513   C     0.81850   0.81921   0.38021   0.00000  Uiso   1.00
C514   C     0.86667   0.84091   0.41321   0.00000  Uiso   1.00
C515   C     0.96164   0.85974   0.46698   0.00000  Uiso   1.00
C516   C     0.66797   0.81250   0.37243   0.00000  Uiso   1.00
C517   C     0.65570   0.75776   0.39671   0.00000  Uiso   1.00
C518   C     0.62942   0.75135   0.43726   0.00000  Uiso   1.00
C519   C     0.58706   0.71835   0.50494   0.00000  Uiso   1.00
C520   C     0.67172   0.91513   0.35618   0.00000  Uiso   1.00
C521   C     0.63482   0.93473   0.28151   0.00000  Uiso   1.00
C522   C     0.59203   0.99193   0.23240   0.00000  Uiso   1.00
C523   C     0.56318   0.00080   0.16696   0.00000  Uiso   1.00
C524   C     0.74291   0.89256   0.37915   0.00000  Uiso   1.00
C525   C     0.79100   0.91431   0.41214   0.00000  Uiso   1.00
C526   C     0.85314   0.88768   0.42891   0.00000  Uiso   1.00
C527   C     0.65446   0.85919   0.38810   0.00000  Uiso   1.00
C528   C     0.62819   0.85286   0.42864   0.00000  Uiso   1.00
C529   C     0.61589   0.79812   0.45297   0.00000  Uiso   1.00
H530   H     0.70710   0.79283   0.31511   0.00000  Uiso   1.00
H531   H     0.63001   0.86069   0.18835   0.00000  Uiso   1.00
H532   H     0.82894   0.78308   0.36807   0.00000  Uiso   1.00
H533   H     0.66616   0.72164   0.38456   0.00000  Uiso   1.00
H534   H     0.53860   0.95653   0.05472   0.00000  Uiso   1.00
H535   H     0.95807   0.79286   0.43369   0.00000  Uiso   1.00
H536   H     0.61482   0.66330   0.46848   0.00000  Uiso   1.00
H537   H     0.66121   0.95147   0.36839   0.00000  Uiso   1.00
H538   H     0.58159   0.02805   0.24454   0.00000  Uiso   1.00
H539   H     0.78053   0.95043   0.42427   0.00000  Uiso   1.00
H540   H     0.61775   0.88899   0.44076   0.00000  Uiso   1.00
H541   H     0.49931   0.09236   0.10033   0.00000  Uiso   1.00
H542   H     0.91878   0.92869   0.47931   0.00000  Uiso   1.00
H543   H     0.57553   0.79913   0.51409   0.00000  Uiso   1.00
O544   O     0.46743   0.07196   0.99509   0.00000  Uiso   1.00
O545   O     0.01776   0.85723   0.49230   0.00000  Uiso   1.00
O546   O     0.56742   0.68725   0.53793   0.00000  Uiso   1.00
N547   N     0.54027   0.97799   0.08245   0.00000  Uiso   1.00
N548   N     0.93245   0.82497   0.43676   0.00000  Uiso   1.00
N549   N     0.61155   0.70384   0.46929   0.00000  Uiso   1.00
N550   N     0.51912   0.05108   0.10699   0.00000  Uiso   1.00
N551   N     0.91130   0.89806   0.46130   0.00000  Uiso   1.00
N552   N     0.59041   0.77693   0.49383   0.00000  Uiso   1.00
