data_job_01077
_audit_creation_date              2018-12-19
_audit_creation_method            'Materials Studio'
_symmetry_space_group_name_H-M    'P1'
_symmetry_Int_Tables_number       1
_symmetry_cell_setting            triclinic
loop_
_symmetry_equiv_pos_as_xyz
  x,y,z
_cell_length_a                    35.3483
_cell_length_b                    8.4595
_cell_length_c                    16.6387
_cell_angle_alpha                 90.0000
_cell_angle_beta                  90.0000
_cell_angle_gamma                 90.0000
loop_
_atom_site_label
_atom_site_type_symbol
_atom_site_fract_x
_atom_site_fract_y
_atom_site_fract_z
_atom_site_U_iso_or_equiv
_atom_site_adp_type
_atom_site_occupancy
C1     C     0.11212   0.43296   0.25740   0.00000  Uiso   1.00
C2     C     0.14088   0.48995   0.31926   0.00000  Uiso   1.00
C3     C     0.17375   0.41127   0.34119   0.00000  Uiso   1.00
C4     C     0.19634   0.48297   0.39891   0.00000  Uiso   1.00
C5     C     0.24250   0.54934   0.48974   0.00000  Uiso   1.00
C6     C     0.07419   0.42687   0.30095   0.00000  Uiso   1.00
C7     C     0.05098   0.29517   0.30748   0.00000  Uiso   1.00
C8     C     0.01742   0.31378   0.34979   0.00000  Uiso   1.00
C9     C     0.96003   0.28225   0.41214   0.00000  Uiso   1.00
C10    C     0.10872   0.56517   0.19553   0.00000  Uiso   1.00
C11    C     0.11453   0.54976   0.11341   0.00000  Uiso   1.00
C12    C     0.11003   0.68481   0.06696   0.00000  Uiso   1.00
C13    C     0.10625   0.86802   0.96564   0.00000  Uiso   1.00
C14    C     0.09378   0.70019   0.32092   0.00000  Uiso   1.00
C15    C     0.13092   0.63509   0.35376   0.00000  Uiso   1.00
C16    C     0.15346   0.70693   0.41146   0.00000  Uiso   1.00
C17    C     0.18636   0.62838   0.43347   0.00000  Uiso   1.00
C18    C     0.06423   0.57201   0.33545   0.00000  Uiso   1.00
C19    C     0.03069   0.59083   0.37776   0.00000  Uiso   1.00
C20    C     0.00744   0.45919   0.38435   0.00000  Uiso   1.00
C21    C     0.09876   0.71033   0.23003   0.00000  Uiso   1.00
C22    C     0.09424   0.84542   0.18370   0.00000  Uiso   1.00
C23    C     0.10005   0.83021   0.10153   0.00000  Uiso   1.00
H24    H     0.11987   0.31995   0.23054   0.00000  Uiso   1.00
H25    H     0.18145   0.29894   0.31448   0.00000  Uiso   1.00
H26    H     0.05870   0.18286   0.28077   0.00000  Uiso   1.00
H27    H     0.12224   0.43742   0.08674   0.00000  Uiso   1.00
H28    H     0.24532   0.33963   0.42277   0.00000  Uiso   1.00
H29    H     0.98648   0.09489   0.35167   0.00000  Uiso   1.00
H30    H     0.12047   0.63166   0.94252   0.00000  Uiso   1.00
H31    H     0.08602   0.81319   0.34778   0.00000  Uiso   1.00
H32    H     0.14575   0.81926   0.43815   0.00000  Uiso   1.00
H33    H     0.02299   0.70317   0.40444   0.00000  Uiso   1.00
H34    H     0.08653   0.95772   0.21041   0.00000  Uiso   1.00
H35    H     0.21634   0.76193   0.52315   0.00000  Uiso   1.00
H36    H     0.95750   0.51719   0.45205   0.00000  Uiso   1.00
H37    H     0.09149   0.05396   0.04290   0.00000  Uiso   1.00
O38    O     0.27072   0.54584   0.53031   0.00000  Uiso   1.00
O39    O     0.93113   0.22475   0.43701   0.00000  Uiso   1.00
O40    O     0.10692   0.92898   0.90022   0.00000  Uiso   1.00
N41    N     0.23031   0.43820   0.43398   0.00000  Uiso   1.00
N42    N     0.98831   0.20937   0.36752   0.00000  Uiso   1.00
N43    N     0.11357   0.71120   0.98499   0.00000  Uiso   1.00
N44    N     0.21471   0.66544   0.48799   0.00000  Uiso   1.00
N45    N     0.97272   0.43661   0.42153   0.00000  Uiso   1.00
N46    N     0.09797   0.93844   0.03901   0.00000  Uiso   1.00
C47    C     0.38788   0.06704   0.75740   0.00000  Uiso   1.00
C48    C     0.35912   0.01005   0.81926   0.00000  Uiso   1.00
C49    C     0.32625   0.08873   0.84119   0.00000  Uiso   1.00
C50    C     0.30366   0.01703   0.89891   0.00000  Uiso   1.00
C51    C     0.25750   0.95066   0.98974   0.00000  Uiso   1.00
C52    C     0.42581   0.07313   0.80095   0.00000  Uiso   1.00
C53    C     0.44902   0.20483   0.80748   0.00000  Uiso   1.00
C54    C     0.48258   0.18622   0.84979   0.00000  Uiso   1.00
C55    C     0.53997   0.21775   0.91214   0.00000  Uiso   1.00
C56    C     0.39128   0.93483   0.69553   0.00000  Uiso   1.00
C57    C     0.38547   0.95024   0.61341   0.00000  Uiso   1.00
C58    C     0.38997   0.81519   0.56696   0.00000  Uiso   1.00
C59    C     0.39375   0.63198   0.46564   0.00000  Uiso   1.00
C60    C     0.40622   0.79981   0.82092   0.00000  Uiso   1.00
C61    C     0.36908   0.86491   0.85376   0.00000  Uiso   1.00
C62    C     0.34654   0.79307   0.91146   0.00000  Uiso   1.00
C63    C     0.31364   0.87162   0.93347   0.00000  Uiso   1.00
C64    C     0.43577   0.92799   0.83545   0.00000  Uiso   1.00
C65    C     0.46931   0.90917   0.87776   0.00000  Uiso   1.00
C66    C     0.49256   0.04081   0.88435   0.00000  Uiso   1.00
C67    C     0.40124   0.78967   0.73003   0.00000  Uiso   1.00
C68    C     0.40576   0.65458   0.68370   0.00000  Uiso   1.00
C69    C     0.39995   0.66979   0.60153   0.00000  Uiso   1.00
H70    H     0.38013   0.18005   0.73054   0.00000  Uiso   1.00
H71    H     0.31855   0.20106   0.81448   0.00000  Uiso   1.00
H72    H     0.44130   0.31714   0.78077   0.00000  Uiso   1.00
H73    H     0.37776   0.06258   0.58674   0.00000  Uiso   1.00
H74    H     0.25468   0.16037   0.92277   0.00000  Uiso   1.00
H75    H     0.51352   0.40511   0.85167   0.00000  Uiso   1.00
H76    H     0.37953   0.86834   0.44252   0.00000  Uiso   1.00
H77    H     0.41398   0.68681   0.84778   0.00000  Uiso   1.00
H78    H     0.35425   0.68074   0.93815   0.00000  Uiso   1.00
H79    H     0.47701   0.79683   0.90444   0.00000  Uiso   1.00
H80    H     0.41347   0.54228   0.71041   0.00000  Uiso   1.00
H81    H     0.28366   0.73807   0.02315   0.00000  Uiso   1.00
H82    H     0.54250   0.98281   0.95205   0.00000  Uiso   1.00
H83    H     0.40851   0.44604   0.54290   0.00000  Uiso   1.00
O84    O     0.22928   0.95416   0.03031   0.00000  Uiso   1.00
O85    O     0.56887   0.27525   0.93701   0.00000  Uiso   1.00
O86    O     0.39308   0.57102   0.40022   0.00000  Uiso   1.00
N87    N     0.26969   0.06180   0.93398   0.00000  Uiso   1.00
N88    N     0.51169   0.29063   0.86752   0.00000  Uiso   1.00
N89    N     0.38643   0.78880   0.48499   0.00000  Uiso   1.00
N90    N     0.28529   0.83456   0.98799   0.00000  Uiso   1.00
N91    N     0.52728   0.06339   0.92153   0.00000  Uiso   1.00
N92    N     0.40203   0.56156   0.53901   0.00000  Uiso   1.00
C93    C     0.88788   0.43296   0.24260   0.00000  Uiso   1.00
C94    C     0.85912   0.48995   0.18074   0.00000  Uiso   1.00
C95    C     0.82625   0.41127   0.15881   0.00000  Uiso   1.00
C96    C     0.80366   0.48297   0.10109   0.00000  Uiso   1.00
C97    C     0.75750   0.54934   0.01026   0.00000  Uiso   1.00
C98    C     0.92581   0.42687   0.19905   0.00000  Uiso   1.00
C99    C     0.94902   0.29517   0.19252   0.00000  Uiso   1.00
C100   C     0.98258   0.31378   0.15021   0.00000  Uiso   1.00
C101   C     0.03997   0.28225   0.08786   0.00000  Uiso   1.00
C102   C     0.89128   0.56517   0.30447   0.00000  Uiso   1.00
C103   C     0.88547   0.54976   0.38659   0.00000  Uiso   1.00
C104   C     0.88997   0.68481   0.43304   0.00000  Uiso   1.00
C105   C     0.89375   0.86802   0.53436   0.00000  Uiso   1.00
C106   C     0.90622   0.70019   0.17908   0.00000  Uiso   1.00
C107   C     0.86908   0.63509   0.14624   0.00000  Uiso   1.00
C108   C     0.84654   0.70693   0.08854   0.00000  Uiso   1.00
C109   C     0.81364   0.62838   0.06653   0.00000  Uiso   1.00
C110   C     0.93577   0.57201   0.16455   0.00000  Uiso   1.00
C111   C     0.96931   0.59083   0.12224   0.00000  Uiso   1.00
C112   C     0.99256   0.45919   0.11565   0.00000  Uiso   1.00
C113   C     0.90124   0.71033   0.26997   0.00000  Uiso   1.00
C114   C     0.90576   0.84542   0.31630   0.00000  Uiso   1.00
C115   C     0.89995   0.83021   0.39847   0.00000  Uiso   1.00
H116   H     0.88013   0.31995   0.26946   0.00000  Uiso   1.00
H117   H     0.81855   0.29894   0.18552   0.00000  Uiso   1.00
H118   H     0.94130   0.18286   0.21923   0.00000  Uiso   1.00
H119   H     0.87776   0.43742   0.41326   0.00000  Uiso   1.00
H120   H     0.75468   0.33963   0.07723   0.00000  Uiso   1.00
H121   H     0.01352   0.09489   0.14833   0.00000  Uiso   1.00
H122   H     0.87953   0.63166   0.55748   0.00000  Uiso   1.00
H123   H     0.91398   0.81319   0.15222   0.00000  Uiso   1.00
H124   H     0.85425   0.81926   0.06185   0.00000  Uiso   1.00
H125   H     0.97701   0.70317   0.09556   0.00000  Uiso   1.00
H126   H     0.91347   0.95772   0.28959   0.00000  Uiso   1.00
H127   H     0.78366   0.76193   0.97685   0.00000  Uiso   1.00
H128   H     0.04250   0.51719   0.04795   0.00000  Uiso   1.00
H129   H     0.90851   0.05396   0.45710   0.00000  Uiso   1.00
O130   O     0.72928   0.54584   0.96969   0.00000  Uiso   1.00
O131   O     0.06887   0.22475   0.06299   0.00000  Uiso   1.00
O132   O     0.89308   0.92898   0.59978   0.00000  Uiso   1.00
N133   N     0.76969   0.43820   0.06602   0.00000  Uiso   1.00
N134   N     0.01169   0.20937   0.13248   0.00000  Uiso   1.00
N135   N     0.88643   0.71120   0.51501   0.00000  Uiso   1.00
N136   N     0.78529   0.66544   0.01201   0.00000  Uiso   1.00
N137   N     0.02728   0.43661   0.07847   0.00000  Uiso   1.00
N138   N     0.90203   0.93844   0.46099   0.00000  Uiso   1.00
C139   C     0.61212   0.06704   0.74260   0.00000  Uiso   1.00
C140   C     0.64088   0.01005   0.68074   0.00000  Uiso   1.00
C141   C     0.67375   0.08873   0.65881   0.00000  Uiso   1.00
C142   C     0.69634   0.01703   0.60109   0.00000  Uiso   1.00
C143   C     0.74250   0.95066   0.51026   0.00000  Uiso   1.00
C144   C     0.57419   0.07313   0.69905   0.00000  Uiso   1.00
C145   C     0.55098   0.20483   0.69252   0.00000  Uiso   1.00
C146   C     0.51742   0.18622   0.65021   0.00000  Uiso   1.00
C147   C     0.46003   0.21775   0.58786   0.00000  Uiso   1.00
C148   C     0.60872   0.93483   0.80447   0.00000  Uiso   1.00
C149   C     0.61453   0.95024   0.88659   0.00000  Uiso   1.00
C150   C     0.61003   0.81519   0.93304   0.00000  Uiso   1.00
C151   C     0.60625   0.63198   0.03436   0.00000  Uiso   1.00
C152   C     0.59378   0.79981   0.67908   0.00000  Uiso   1.00
C153   C     0.63092   0.86491   0.64624   0.00000  Uiso   1.00
C154   C     0.65346   0.79307   0.58854   0.00000  Uiso   1.00
C155   C     0.68636   0.87162   0.56653   0.00000  Uiso   1.00
C156   C     0.56423   0.92799   0.66455   0.00000  Uiso   1.00
C157   C     0.53069   0.90917   0.62224   0.00000  Uiso   1.00
C158   C     0.50744   0.04081   0.61565   0.00000  Uiso   1.00
C159   C     0.59876   0.78967   0.76997   0.00000  Uiso   1.00
C160   C     0.59424   0.65458   0.81630   0.00000  Uiso   1.00
C161   C     0.60005   0.66979   0.89847   0.00000  Uiso   1.00
H162   H     0.61987   0.18005   0.76946   0.00000  Uiso   1.00
H163   H     0.68145   0.20106   0.68552   0.00000  Uiso   1.00
H164   H     0.55870   0.31714   0.71923   0.00000  Uiso   1.00
H165   H     0.62224   0.06258   0.91326   0.00000  Uiso   1.00
H166   H     0.74532   0.16037   0.57723   0.00000  Uiso   1.00
H167   H     0.48648   0.40511   0.64833   0.00000  Uiso   1.00
H168   H     0.62047   0.86834   0.05748   0.00000  Uiso   1.00
H169   H     0.58602   0.68681   0.65222   0.00000  Uiso   1.00
H170   H     0.64575   0.68074   0.56185   0.00000  Uiso   1.00
H171   H     0.52299   0.79683   0.59556   0.00000  Uiso   1.00
H172   H     0.58653   0.54228   0.78959   0.00000  Uiso   1.00
H173   H     0.71634   0.73807   0.47685   0.00000  Uiso   1.00
H174   H     0.45750   0.98281   0.54795   0.00000  Uiso   1.00
H175   H     0.59149   0.44604   0.95710   0.00000  Uiso   1.00
O176   O     0.77072   0.95416   0.46969   0.00000  Uiso   1.00
O177   O     0.43113   0.27525   0.56299   0.00000  Uiso   1.00
O178   O     0.60692   0.57102   0.09978   0.00000  Uiso   1.00
N179   N     0.73031   0.06180   0.56602   0.00000  Uiso   1.00
N180   N     0.48831   0.29063   0.63248   0.00000  Uiso   1.00
N181   N     0.61357   0.78880   0.01501   0.00000  Uiso   1.00
N182   N     0.71471   0.83456   0.51201   0.00000  Uiso   1.00
N183   N     0.47272   0.06339   0.57847   0.00000  Uiso   1.00
N184   N     0.59797   0.56156   0.96099   0.00000  Uiso   1.00
C185   C     0.88788   0.56704   0.74260   0.00000  Uiso   1.00
C186   C     0.85912   0.51005   0.68074   0.00000  Uiso   1.00
C187   C     0.82625   0.58873   0.65881   0.00000  Uiso   1.00
C188   C     0.80366   0.51703   0.60109   0.00000  Uiso   1.00
C189   C     0.75750   0.45066   0.51026   0.00000  Uiso   1.00
C190   C     0.92581   0.57313   0.69905   0.00000  Uiso   1.00
C191   C     0.94902   0.70483   0.69252   0.00000  Uiso   1.00
C192   C     0.98258   0.68622   0.65021   0.00000  Uiso   1.00
C193   C     0.03997   0.71775   0.58786   0.00000  Uiso   1.00
C194   C     0.89128   0.43483   0.80447   0.00000  Uiso   1.00
C195   C     0.88547   0.45024   0.88659   0.00000  Uiso   1.00
C196   C     0.88997   0.31519   0.93304   0.00000  Uiso   1.00
C197   C     0.89375   0.13198   0.03436   0.00000  Uiso   1.00
C198   C     0.90622   0.29981   0.67908   0.00000  Uiso   1.00
C199   C     0.86908   0.36491   0.64624   0.00000  Uiso   1.00
C200   C     0.84654   0.29307   0.58854   0.00000  Uiso   1.00
C201   C     0.81364   0.37162   0.56653   0.00000  Uiso   1.00
C202   C     0.93577   0.42799   0.66455   0.00000  Uiso   1.00
C203   C     0.96931   0.40917   0.62224   0.00000  Uiso   1.00
C204   C     0.99256   0.54081   0.61565   0.00000  Uiso   1.00
C205   C     0.90124   0.28967   0.76997   0.00000  Uiso   1.00
C206   C     0.90576   0.15458   0.81630   0.00000  Uiso   1.00
C207   C     0.89995   0.16979   0.89847   0.00000  Uiso   1.00
H208   H     0.88013   0.68005   0.76946   0.00000  Uiso   1.00
H209   H     0.81855   0.70106   0.68552   0.00000  Uiso   1.00
H210   H     0.94130   0.81714   0.71923   0.00000  Uiso   1.00
H211   H     0.87776   0.56258   0.91326   0.00000  Uiso   1.00
H212   H     0.75468   0.66037   0.57723   0.00000  Uiso   1.00
H213   H     0.01352   0.90511   0.64833   0.00000  Uiso   1.00
H214   H     0.87953   0.36834   0.05748   0.00000  Uiso   1.00
H215   H     0.91398   0.18681   0.65222   0.00000  Uiso   1.00
H216   H     0.85425   0.18074   0.56185   0.00000  Uiso   1.00
H217   H     0.97701   0.29683   0.59556   0.00000  Uiso   1.00
H218   H     0.91347   0.04228   0.78959   0.00000  Uiso   1.00
H219   H     0.78366   0.23807   0.47685   0.00000  Uiso   1.00
H220   H     0.04250   0.48281   0.54795   0.00000  Uiso   1.00
H221   H     0.90851   0.94604   0.95710   0.00000  Uiso   1.00
O222   O     0.72928   0.45416   0.46969   0.00000  Uiso   1.00
O223   O     0.06887   0.77525   0.56299   0.00000  Uiso   1.00
O224   O     0.89308   0.07102   0.09978   0.00000  Uiso   1.00
N225   N     0.76969   0.56180   0.56602   0.00000  Uiso   1.00
N226   N     0.01169   0.79063   0.63248   0.00000  Uiso   1.00
N227   N     0.88643   0.28880   0.01501   0.00000  Uiso   1.00
N228   N     0.78529   0.33456   0.51201   0.00000  Uiso   1.00
N229   N     0.02728   0.56339   0.57847   0.00000  Uiso   1.00
N230   N     0.90203   0.06156   0.96099   0.00000  Uiso   1.00
C231   C     0.61212   0.93296   0.24260   0.00000  Uiso   1.00
C232   C     0.64088   0.98995   0.18074   0.00000  Uiso   1.00
C233   C     0.67375   0.91127   0.15881   0.00000  Uiso   1.00
C234   C     0.69634   0.98297   0.10109   0.00000  Uiso   1.00
C235   C     0.74250   0.04934   0.01026   0.00000  Uiso   1.00
C236   C     0.57419   0.92687   0.19905   0.00000  Uiso   1.00
C237   C     0.55098   0.79517   0.19252   0.00000  Uiso   1.00
C238   C     0.51742   0.81378   0.15021   0.00000  Uiso   1.00
C239   C     0.46003   0.78225   0.08786   0.00000  Uiso   1.00
C240   C     0.60872   0.06517   0.30447   0.00000  Uiso   1.00
C241   C     0.61453   0.04976   0.38659   0.00000  Uiso   1.00
C242   C     0.61003   0.18481   0.43304   0.00000  Uiso   1.00
C243   C     0.60625   0.36802   0.53436   0.00000  Uiso   1.00
C244   C     0.59378   0.20019   0.17908   0.00000  Uiso   1.00
C245   C     0.63092   0.13509   0.14624   0.00000  Uiso   1.00
C246   C     0.65346   0.20693   0.08854   0.00000  Uiso   1.00
C247   C     0.68636   0.12838   0.06653   0.00000  Uiso   1.00
C248   C     0.56423   0.07201   0.16455   0.00000  Uiso   1.00
C249   C     0.53069   0.09083   0.12224   0.00000  Uiso   1.00
C250   C     0.50744   0.95919   0.11565   0.00000  Uiso   1.00
C251   C     0.59876   0.21033   0.26997   0.00000  Uiso   1.00
C252   C     0.59424   0.34542   0.31630   0.00000  Uiso   1.00
C253   C     0.60005   0.33021   0.39847   0.00000  Uiso   1.00
H254   H     0.61987   0.81995   0.26946   0.00000  Uiso   1.00
H255   H     0.68145   0.79894   0.18552   0.00000  Uiso   1.00
H256   H     0.55870   0.68286   0.21923   0.00000  Uiso   1.00
H257   H     0.62224   0.93742   0.41326   0.00000  Uiso   1.00
H258   H     0.74532   0.83963   0.07723   0.00000  Uiso   1.00
H259   H     0.48648   0.59489   0.14833   0.00000  Uiso   1.00
H260   H     0.62047   0.13166   0.55748   0.00000  Uiso   1.00
H261   H     0.58602   0.31319   0.15222   0.00000  Uiso   1.00
H262   H     0.64575   0.31926   0.06185   0.00000  Uiso   1.00
H263   H     0.52299   0.20317   0.09556   0.00000  Uiso   1.00
H264   H     0.58653   0.45772   0.28959   0.00000  Uiso   1.00
H265   H     0.71634   0.26193   0.97685   0.00000  Uiso   1.00
H266   H     0.45750   0.01719   0.04795   0.00000  Uiso   1.00
H267   H     0.59149   0.55396   0.45710   0.00000  Uiso   1.00
O268   O     0.77072   0.04584   0.96969   0.00000  Uiso   1.00
O269   O     0.43113   0.72475   0.06299   0.00000  Uiso   1.00
O270   O     0.60692   0.42898   0.59978   0.00000  Uiso   1.00
N271   N     0.73031   0.93820   0.06602   0.00000  Uiso   1.00
N272   N     0.48831   0.70937   0.13248   0.00000  Uiso   1.00
N273   N     0.61357   0.21120   0.51501   0.00000  Uiso   1.00
N274   N     0.71471   0.16544   0.01201   0.00000  Uiso   1.00
N275   N     0.47272   0.93661   0.07847   0.00000  Uiso   1.00
N276   N     0.59797   0.43844   0.46099   0.00000  Uiso   1.00
C277   C     0.11212   0.56704   0.75740   0.00000  Uiso   1.00
C278   C     0.14088   0.51005   0.81926   0.00000  Uiso   1.00
C279   C     0.17375   0.58873   0.84119   0.00000  Uiso   1.00
C280   C     0.19634   0.51703   0.89891   0.00000  Uiso   1.00
C281   C     0.24250   0.45066   0.98974   0.00000  Uiso   1.00
C282   C     0.07419   0.57313   0.80095   0.00000  Uiso   1.00
C283   C     0.05098   0.70483   0.80748   0.00000  Uiso   1.00
C284   C     0.01742   0.68622   0.84979   0.00000  Uiso   1.00
C285   C     0.96003   0.71775   0.91214   0.00000  Uiso   1.00
C286   C     0.10872   0.43483   0.69553   0.00000  Uiso   1.00
C287   C     0.11453   0.45024   0.61341   0.00000  Uiso   1.00
C288   C     0.11003   0.31519   0.56696   0.00000  Uiso   1.00
C289   C     0.10625   0.13198   0.46564   0.00000  Uiso   1.00
C290   C     0.09378   0.29981   0.82092   0.00000  Uiso   1.00
C291   C     0.13092   0.36491   0.85376   0.00000  Uiso   1.00
C292   C     0.15346   0.29307   0.91146   0.00000  Uiso   1.00
C293   C     0.18636   0.37162   0.93347   0.00000  Uiso   1.00
C294   C     0.06423   0.42799   0.83545   0.00000  Uiso   1.00
C295   C     0.03069   0.40917   0.87776   0.00000  Uiso   1.00
C296   C     0.00744   0.54081   0.88435   0.00000  Uiso   1.00
C297   C     0.09876   0.28967   0.73003   0.00000  Uiso   1.00
C298   C     0.09424   0.15458   0.68370   0.00000  Uiso   1.00
C299   C     0.10005   0.16979   0.60153   0.00000  Uiso   1.00
H300   H     0.11987   0.68005   0.73054   0.00000  Uiso   1.00
H301   H     0.18145   0.70106   0.81448   0.00000  Uiso   1.00
H302   H     0.05870   0.81714   0.78077   0.00000  Uiso   1.00
H303   H     0.12224   0.56258   0.58674   0.00000  Uiso   1.00
H304   H     0.24532   0.66037   0.92277   0.00000  Uiso   1.00
H305   H     0.98648   0.90511   0.85167   0.00000  Uiso   1.00
H306   H     0.12047   0.36834   0.44252   0.00000  Uiso   1.00
H307   H     0.08602   0.18681   0.84778   0.00000  Uiso   1.00
H308   H     0.14575   0.18074   0.93815   0.00000  Uiso   1.00
H309   H     0.02299   0.29683   0.90444   0.00000  Uiso   1.00
H310   H     0.08653   0.04228   0.71041   0.00000  Uiso   1.00
H311   H     0.21634   0.23807   0.02315   0.00000  Uiso   1.00
H312   H     0.95750   0.48281   0.95205   0.00000  Uiso   1.00
H313   H     0.09149   0.94604   0.54290   0.00000  Uiso   1.00
O314   O     0.27072   0.45416   0.03031   0.00000  Uiso   1.00
O315   O     0.93113   0.77525   0.93701   0.00000  Uiso   1.00
O316   O     0.10692   0.07102   0.40022   0.00000  Uiso   1.00
N317   N     0.23031   0.56180   0.93398   0.00000  Uiso   1.00
N318   N     0.98831   0.79063   0.86752   0.00000  Uiso   1.00
N319   N     0.11357   0.28880   0.48499   0.00000  Uiso   1.00
N320   N     0.21471   0.33456   0.98799   0.00000  Uiso   1.00
N321   N     0.97272   0.56339   0.92153   0.00000  Uiso   1.00
N322   N     0.09797   0.06156   0.53901   0.00000  Uiso   1.00
C323   C     0.38788   0.93296   0.25740   0.00000  Uiso   1.00
C324   C     0.35912   0.98995   0.31926   0.00000  Uiso   1.00
C325   C     0.32625   0.91127   0.34119   0.00000  Uiso   1.00
C326   C     0.30366   0.98297   0.39891   0.00000  Uiso   1.00
C327   C     0.25750   0.04934   0.48974   0.00000  Uiso   1.00
C328   C     0.42581   0.92687   0.30095   0.00000  Uiso   1.00
C329   C     0.44902   0.79517   0.30748   0.00000  Uiso   1.00
C330   C     0.48258   0.81378   0.34979   0.00000  Uiso   1.00
C331   C     0.53997   0.78225   0.41214   0.00000  Uiso   1.00
C332   C     0.39128   0.06517   0.19553   0.00000  Uiso   1.00
C333   C     0.38547   0.04976   0.11341   0.00000  Uiso   1.00
C334   C     0.38997   0.18481   0.06696   0.00000  Uiso   1.00
C335   C     0.39375   0.36802   0.96564   0.00000  Uiso   1.00
C336   C     0.40622   0.20019   0.32092   0.00000  Uiso   1.00
C337   C     0.36908   0.13509   0.35376   0.00000  Uiso   1.00
C338   C     0.34654   0.20693   0.41146   0.00000  Uiso   1.00
C339   C     0.31364   0.12838   0.43347   0.00000  Uiso   1.00
C340   C     0.43577   0.07201   0.33545   0.00000  Uiso   1.00
C341   C     0.46931   0.09083   0.37776   0.00000  Uiso   1.00
C342   C     0.49256   0.95919   0.38435   0.00000  Uiso   1.00
C343   C     0.40124   0.21033   0.23003   0.00000  Uiso   1.00
C344   C     0.40576   0.34542   0.18370   0.00000  Uiso   1.00
C345   C     0.39995   0.33021   0.10153   0.00000  Uiso   1.00
H346   H     0.38013   0.81995   0.23054   0.00000  Uiso   1.00
H347   H     0.31855   0.79894   0.31448   0.00000  Uiso   1.00
H348   H     0.44130   0.68286   0.28077   0.00000  Uiso   1.00
H349   H     0.37776   0.93742   0.08674   0.00000  Uiso   1.00
H350   H     0.25468   0.83963   0.42277   0.00000  Uiso   1.00
H351   H     0.51352   0.59489   0.35167   0.00000  Uiso   1.00
H352   H     0.37953   0.13166   0.94252   0.00000  Uiso   1.00
H353   H     0.41398   0.31319   0.34778   0.00000  Uiso   1.00
H354   H     0.35425   0.31926   0.43815   0.00000  Uiso   1.00
H355   H     0.47701   0.20317   0.40444   0.00000  Uiso   1.00
H356   H     0.41347   0.45772   0.21041   0.00000  Uiso   1.00
H357   H     0.28366   0.26193   0.52315   0.00000  Uiso   1.00
H358   H     0.54250   0.01719   0.45205   0.00000  Uiso   1.00
H359   H     0.40851   0.55396   0.04290   0.00000  Uiso   1.00
O360   O     0.22928   0.04584   0.53031   0.00000  Uiso   1.00
O361   O     0.56887   0.72475   0.43701   0.00000  Uiso   1.00
O362   O     0.39308   0.42898   0.90022   0.00000  Uiso   1.00
N363   N     0.26969   0.93820   0.43398   0.00000  Uiso   1.00
N364   N     0.51169   0.70937   0.36752   0.00000  Uiso   1.00
N365   N     0.38643   0.21120   0.98499   0.00000  Uiso   1.00
N366   N     0.28529   0.16544   0.48799   0.00000  Uiso   1.00
N367   N     0.52728   0.93661   0.42153   0.00000  Uiso   1.00
N368   N     0.40203   0.43844   0.03901   0.00000  Uiso   1.00
