data_job_05990
_audit_creation_date              2018-12-19
_audit_creation_method            'Materials Studio'
_symmetry_space_group_name_H-M    'P1'
_symmetry_Int_Tables_number       1
_symmetry_cell_setting            triclinic
loop_
_symmetry_equiv_pos_as_xyz
  x,y,z
_cell_length_a                    9.5635
_cell_length_b                    22.6201
_cell_length_c                    22.6788
_cell_angle_alpha                 61.5040
_cell_angle_beta                  83.7703
_cell_angle_gamma                 96.2271
loop_
_atom_site_label
_atom_site_type_symbol
_atom_site_fract_x
_atom_site_fract_y
_atom_site_fract_z
_atom_site_U_iso_or_equiv
_atom_site_adp_type
_atom_site_occupancy
C1     C     0.22415   0.13111   0.72308   0.00000  Uiso   1.00
C2     C     0.28516   0.20729   0.67819   0.00000  Uiso   1.00
C3     C     0.37552   0.24647   0.69550   0.00000  Uiso   1.00
C4     C     0.41953   0.31528   0.64739   0.00000  Uiso   1.00
C5     C     0.52102   0.42924   0.58731   0.00000  Uiso   1.00
C6     C     0.06200   0.12443   0.73016   0.00000  Uiso   1.00
C7     C     0.96473   0.09393   0.79117   0.00000  Uiso   1.00
C8     C     0.82089   0.09297   0.78681   0.00000  Uiso   1.00
C9     C     0.57591   0.07824   0.80742   0.00000  Uiso   1.00
C10    C     0.26874   0.09759   0.68124   0.00000  Uiso   1.00
C11    C     0.34527   0.04452   0.70112   0.00000  Uiso   1.00
C12    C     0.37546   0.02096   0.65558   0.00000  Uiso   1.00
C13    C     0.45148   0.96456   0.60024   0.00000  Uiso   1.00
C14    C     0.14163   0.18362   0.60686   0.00000  Uiso   1.00
C15    C     0.24033   0.23581   0.61507   0.00000  Uiso   1.00
C16    C     0.28422   0.30457   0.56692   0.00000  Uiso   1.00
C17    C     0.37464   0.34385   0.58416   0.00000  Uiso   1.00
C18    C     0.01717   0.15295   0.66704   0.00000  Uiso   1.00
C19    C     0.87343   0.15203   0.66259   0.00000  Uiso   1.00
C20    C     0.77598   0.12154   0.72358   0.00000  Uiso   1.00
C21    C     0.22392   0.12612   0.61812   0.00000  Uiso   1.00
C22    C     0.25398   0.10263   0.57254   0.00000  Uiso   1.00
C23    C     0.33055   0.04953   0.59235   0.00000  Uiso   1.00
H24    H     0.25904   0.10890   0.77222   0.00000  Uiso   1.00
H25    H     0.41017   0.22438   0.74436   0.00000  Uiso   1.00
H26    H     0.99945   0.07185   0.84001   0.00000  Uiso   1.00
H27    H     0.37994   0.02246   0.74997   0.00000  Uiso   1.00
H28    H     0.55793   0.36500   0.68563   0.00000  Uiso   1.00
H29    H     0.69190   0.04337   0.88733   0.00000  Uiso   1.00
H30    H     0.49422   0.93920   0.69747   0.00000  Uiso   1.00
H31    H     0.10673   0.20583   0.55772   0.00000  Uiso   1.00
H32    H     0.24951   0.32663   0.51808   0.00000  Uiso   1.00
H33    H     0.83879   0.17410   0.61374   0.00000  Uiso   1.00
H34    H     0.21927   0.12471   0.52370   0.00000  Uiso   1.00
H35    H     0.42752   0.44799   0.50198   0.00000  Uiso   1.00
H36    H     0.56149   0.12636   0.70368   0.00000  Uiso   1.00
H37    H     0.36382   0.02220   0.51382   0.00000  Uiso   1.00
O38    O     0.58936   0.48422   0.57161   0.00000  Uiso   1.00
O39    O     0.45316   0.06224   0.83623   0.00000  Uiso   1.00
O40    O     0.50580   0.92559   0.58714   0.00000  Uiso   1.00
N41    N     0.50766   0.36795   0.64784   0.00000  Uiso   1.00
N42    N     0.69798   0.06725   0.83642   0.00000  Uiso   1.00
N43    N     0.44805   0.96986   0.65893   0.00000  Uiso   1.00
N44    N     0.43749   0.41261   0.54902   0.00000  Uiso   1.00
N45    N     0.62781   0.11191   0.73760   0.00000  Uiso   1.00
N46    N     0.37789   0.01451   0.56011   0.00000  Uiso   1.00
C47    C     0.05530   0.14428   0.13160   0.00000  Uiso   1.00
C48    C     0.05220   0.11327   0.20810   0.00000  Uiso   1.00
C49    C     0.10921   0.05637   0.24832   0.00000  Uiso   1.00
C50    C     0.09539   0.03603   0.31724   0.00000  Uiso   1.00
C51    C     0.10091   0.98247   0.43182   0.00000  Uiso   1.00
C52    C     0.89988   0.14517   0.12226   0.00000  Uiso   1.00
C53    C     0.82884   0.11510   0.09030   0.00000  Uiso   1.00
C54    C     0.68681   0.12163   0.08695   0.00000  Uiso   1.00
C55    C     0.45588   0.11764   0.06822   0.00000  Uiso   1.00
C56    C     0.12753   0.21899   0.09931   0.00000  Uiso   1.00
C57    C     0.24787   0.25101   0.04804   0.00000  Uiso   1.00
C58    C     0.29748   0.31969   0.02536   0.00000  Uiso   1.00
C59    C     0.42001   0.43032   0.97099   0.00000  Uiso   1.00
C60    C     0.92938   0.20934   0.18246   0.00000  Uiso   1.00
C61    C     0.98380   0.14860   0.23572   0.00000  Uiso   1.00
C62    C     0.96989   0.12834   0.30459   0.00000  Uiso   1.00
C63    C     0.02688   0.07142   0.34491   0.00000  Uiso   1.00
C64    C     0.83148   0.18050   0.14988   0.00000  Uiso   1.00
C65    C     0.68953   0.18707   0.14657   0.00000  Uiso   1.00
C66    C     0.61829   0.15702   0.11462   0.00000  Uiso   1.00
C67    C     0.05913   0.25433   0.12693   0.00000  Uiso   1.00
C68    C     0.10856   0.32298   0.10431   0.00000  Uiso   1.00
C69    C     0.22896   0.35508   0.05303   0.00000  Uiso   1.00
H70    H     0.10854   0.11678   0.11010   0.00000  Uiso   1.00
H71    H     0.16212   0.02903   0.22693   0.00000  Uiso   1.00
H72    H     0.88180   0.08777   0.06893   0.00000  Uiso   1.00
H73    H     0.30077   0.22365   0.02668   0.00000  Uiso   1.00
H74    H     0.19131   0.94732   0.36865   0.00000  Uiso   1.00
H75    H     0.60026   0.07119   0.03547   0.00000  Uiso   1.00
H76    H     0.48374   0.35771   0.94638   0.00000  Uiso   1.00
H77    H     0.87613   0.23685   0.20396   0.00000  Uiso   1.00
H78    H     0.91696   0.15569   0.32595   0.00000  Uiso   1.00
H79    H     0.63664   0.21442   0.16794   0.00000  Uiso   1.00
H80    H     0.05560   0.35030   0.12570   0.00000  Uiso   1.00
H81    H     0.99232   0.05012   0.44901   0.00000  Uiso   1.00
H82    H     0.40127   0.17399   0.11583   0.00000  Uiso   1.00
H83    H     0.28474   0.46051   0.02675   0.00000  Uiso   1.00
O84    O     0.12283   0.94316   0.48739   0.00000  Uiso   1.00
O85    O     0.34740   0.10567   0.05026   0.00000  Uiso   1.00
O86    O     0.50650   0.48158   0.93339   0.00000  Uiso   1.00
N87    N     0.13890   0.98266   0.37082   0.00000  Uiso   1.00
N88    N     0.58630   0.09846   0.05933   0.00000  Uiso   1.00
N89    N     0.41225   0.36634   0.97603   0.00000  Uiso   1.00
N90    N     0.03183   0.03798   0.41406   0.00000  Uiso   1.00
N91    N     0.47922   0.15377   0.10257   0.00000  Uiso   1.00
N92    N     0.30518   0.42165   0.01927   0.00000  Uiso   1.00
C93    C     0.92597   0.72437   0.14556   0.00000  Uiso   1.00
C94    C     0.94887   0.67852   0.11463   0.00000  Uiso   1.00
C95    C     0.05305   0.69411   0.05921   0.00000  Uiso   1.00
C96    C     0.05639   0.64537   0.03868   0.00000  Uiso   1.00
C97    C     0.10672   0.58363   0.98551   0.00000  Uiso   1.00
C98    C     0.77090   0.73416   0.14385   0.00000  Uiso   1.00
C99    C     0.72544   0.79653   0.11300   0.00000  Uiso   1.00
C100   C     0.57896   0.79462   0.11708   0.00000  Uiso   1.00
C101   C     0.35298   0.81926   0.10931   0.00000  Uiso   1.00
C102   C     0.93524   0.68211   0.22075   0.00000  Uiso   1.00
C103   C     0.02795   0.70072   0.25456   0.00000  Uiso   1.00
C104   C     0.01981   0.65500   0.32339   0.00000  Uiso   1.00
C105   C     0.04901   0.59883   0.43501   0.00000  Uiso   1.00
C106   C     0.74665   0.61008   0.20766   0.00000  Uiso   1.00
C107   C     0.85146   0.61644   0.14837   0.00000  Uiso   1.00
C108   C     0.85465   0.56766   0.12792   0.00000  Uiso   1.00
C109   C     0.95882   0.58317   0.07247   0.00000  Uiso   1.00
C110   C     0.67350   0.67208   0.17758   0.00000  Uiso   1.00
C111   C     0.52705   0.67008   0.18171   0.00000  Uiso   1.00
C112   C     0.48138   0.73243   0.15087   0.00000  Uiso   1.00
C113   C     0.83785   0.62003   0.25448   0.00000  Uiso   1.00
C114   C     0.82956   0.57427   0.32327   0.00000  Uiso   1.00
C115   C     0.92224   0.59281   0.35718   0.00000  Uiso   1.00
H116   H     0.00179   0.77270   0.11930   0.00000  Uiso   1.00
H117   H     0.12839   0.74216   0.03311   0.00000  Uiso   1.00
H118   H     0.80084   0.84456   0.08691   0.00000  Uiso   1.00
H119   H     0.10330   0.74876   0.22844   0.00000  Uiso   1.00
H120   H     0.22577   0.68093   0.95242   0.00000  Uiso   1.00
H121   H     0.53510   0.89685   0.06586   0.00000  Uiso   1.00
H122   H     0.17291   0.69485   0.36433   0.00000  Uiso   1.00
H123   H     0.67082   0.56174   0.23393   0.00000  Uiso   1.00
H124   H     0.77927   0.51963   0.15403   0.00000  Uiso   1.00
H125   H     0.45171   0.62203   0.20782   0.00000  Uiso   1.00
H126   H     0.75418   0.52624   0.34936   0.00000  Uiso   1.00
H127   H     0.94240   0.50032   0.05056   0.00000  Uiso   1.00
H128   H     0.25173   0.71624   0.16400   0.00000  Uiso   1.00
H129   H     0.88954   0.51424   0.46246   0.00000  Uiso   1.00
O130   O     0.16137   0.56674   0.94685   0.00000  Uiso   1.00
O131   O     0.25524   0.85001   0.09569   0.00000  Uiso   1.00
O132   O     0.09203   0.58499   0.48726   0.00000  Uiso   1.00
N133   N     0.14422   0.64420   0.98649   0.00000  Uiso   1.00
N134   N     0.49848   0.84607   0.09254   0.00000  Uiso   1.00
N135   N     0.09475   0.65723   0.37158   0.00000  Uiso   1.00
N136   N     0.99174   0.54701   0.03930   0.00000  Uiso   1.00
N137   N     0.34601   0.74888   0.14535   0.00000  Uiso   1.00
N138   N     0.94228   0.56004   0.42439   0.00000  Uiso   1.00
C139   C     0.77585   0.86889   0.27692   0.00000  Uiso   1.00
C140   C     0.71484   0.79271   0.32181   0.00000  Uiso   1.00
C141   C     0.62448   0.75353   0.30450   0.00000  Uiso   1.00
C142   C     0.58047   0.68472   0.35261   0.00000  Uiso   1.00
C143   C     0.47898   0.57076   0.41269   0.00000  Uiso   1.00
C144   C     0.93800   0.87557   0.26984   0.00000  Uiso   1.00
C145   C     0.03527   0.90607   0.20883   0.00000  Uiso   1.00
C146   C     0.17911   0.90703   0.21319   0.00000  Uiso   1.00
C147   C     0.42409   0.92176   0.19258   0.00000  Uiso   1.00
C148   C     0.73126   0.90241   0.31876   0.00000  Uiso   1.00
C149   C     0.65473   0.95548   0.29888   0.00000  Uiso   1.00
C150   C     0.62454   0.97904   0.34442   0.00000  Uiso   1.00
C151   C     0.54853   0.03544   0.39976   0.00000  Uiso   1.00
C152   C     0.85837   0.81638   0.39314   0.00000  Uiso   1.00
C153   C     0.75967   0.76419   0.38493   0.00000  Uiso   1.00
C154   C     0.71578   0.69543   0.43308   0.00000  Uiso   1.00
C155   C     0.62536   0.65615   0.41584   0.00000  Uiso   1.00
C156   C     0.98283   0.84705   0.33296   0.00000  Uiso   1.00
C157   C     0.12657   0.84797   0.33741   0.00000  Uiso   1.00
C158   C     0.22402   0.87846   0.27642   0.00000  Uiso   1.00
C159   C     0.77608   0.87388   0.38188   0.00000  Uiso   1.00
C160   C     0.74602   0.89737   0.42746   0.00000  Uiso   1.00
C161   C     0.66945   0.95047   0.40765   0.00000  Uiso   1.00
H162   H     0.74096   0.89110   0.22778   0.00000  Uiso   1.00
H163   H     0.58983   0.77562   0.25564   0.00000  Uiso   1.00
H164   H     0.00055   0.92815   0.15999   0.00000  Uiso   1.00
H165   H     0.62006   0.97754   0.25003   0.00000  Uiso   1.00
H166   H     0.44207   0.63500   0.31437   0.00000  Uiso   1.00
H167   H     0.30810   0.95663   0.11267   0.00000  Uiso   1.00
H168   H     0.50578   0.06080   0.30253   0.00000  Uiso   1.00
H169   H     0.89327   0.79417   0.44228   0.00000  Uiso   1.00
H170   H     0.75049   0.67337   0.48192   0.00000  Uiso   1.00
H171   H     0.16121   0.82590   0.38626   0.00000  Uiso   1.00
H172   H     0.78073   0.87529   0.47630   0.00000  Uiso   1.00
H173   H     0.57248   0.55201   0.49802   0.00000  Uiso   1.00
H174   H     0.43851   0.87364   0.29632   0.00000  Uiso   1.00
H175   H     0.63618   0.97780   0.48618   0.00000  Uiso   1.00
O176   O     0.41064   0.51578   0.42839   0.00000  Uiso   1.00
O177   O     0.54684   0.93776   0.16377   0.00000  Uiso   1.00
O178   O     0.49420   0.07441   0.41286   0.00000  Uiso   1.00
N179   N     0.49234   0.63205   0.35216   0.00000  Uiso   1.00
N180   N     0.30202   0.93275   0.16358   0.00000  Uiso   1.00
N181   N     0.55195   0.03014   0.34107   0.00000  Uiso   1.00
N182   N     0.56251   0.58739   0.45098   0.00000  Uiso   1.00
N183   N     0.37219   0.88809   0.26240   0.00000  Uiso   1.00
N184   N     0.62211   0.98549   0.43989   0.00000  Uiso   1.00
C185   C     0.94470   0.85572   0.86840   0.00000  Uiso   1.00
C186   C     0.94780   0.88673   0.79190   0.00000  Uiso   1.00
C187   C     0.89079   0.94363   0.75168   0.00000  Uiso   1.00
C188   C     0.90461   0.96398   0.68276   0.00000  Uiso   1.00
C189   C     0.89909   0.01753   0.56818   0.00000  Uiso   1.00
C190   C     0.10012   0.85483   0.87774   0.00000  Uiso   1.00
C191   C     0.17116   0.88490   0.90970   0.00000  Uiso   1.00
C192   C     0.31319   0.87837   0.91305   0.00000  Uiso   1.00
C193   C     0.54412   0.88236   0.93178   0.00000  Uiso   1.00
C194   C     0.87247   0.78101   0.90069   0.00000  Uiso   1.00
C195   C     0.75213   0.74899   0.95196   0.00000  Uiso   1.00
C196   C     0.70252   0.68031   0.97464   0.00000  Uiso   1.00
C197   C     0.57999   0.56968   0.02901   0.00000  Uiso   1.00
C198   C     0.07062   0.79066   0.81754   0.00000  Uiso   1.00
C199   C     0.01620   0.85140   0.76428   0.00000  Uiso   1.00
C200   C     0.03011   0.87166   0.69541   0.00000  Uiso   1.00
C201   C     0.97312   0.92858   0.65509   0.00000  Uiso   1.00
C202   C     0.16852   0.81950   0.85012   0.00000  Uiso   1.00
C203   C     0.31047   0.81292   0.85343   0.00000  Uiso   1.00
C204   C     0.38171   0.84298   0.88538   0.00000  Uiso   1.00
C205   C     0.94087   0.74567   0.87307   0.00000  Uiso   1.00
C206   C     0.89144   0.67702   0.89569   0.00000  Uiso   1.00
C207   C     0.77104   0.64492   0.94697   0.00000  Uiso   1.00
H208   H     0.89146   0.88322   0.88990   0.00000  Uiso   1.00
H209   H     0.83788   0.97097   0.77307   0.00000  Uiso   1.00
H210   H     0.11820   0.91223   0.93107   0.00000  Uiso   1.00
H211   H     0.69923   0.77635   0.97332   0.00000  Uiso   1.00
H212   H     0.80869   0.05268   0.63135   0.00000  Uiso   1.00
H213   H     0.39974   0.92881   0.96453   0.00000  Uiso   1.00
H214   H     0.51626   0.64229   0.05362   0.00000  Uiso   1.00
H215   H     0.12387   0.76315   0.79604   0.00000  Uiso   1.00
H216   H     0.08304   0.84431   0.67405   0.00000  Uiso   1.00
H217   H     0.36336   0.78558   0.83205   0.00000  Uiso   1.00
H218   H     0.94440   0.64970   0.87430   0.00000  Uiso   1.00
H219   H     0.00768   0.94988   0.55099   0.00000  Uiso   1.00
H220   H     0.59873   0.82601   0.88417   0.00000  Uiso   1.00
H221   H     0.71526   0.53949   0.97325   0.00000  Uiso   1.00
O222   O     0.87717   0.05684   0.51261   0.00000  Uiso   1.00
O223   O     0.65260   0.89433   0.94974   0.00000  Uiso   1.00
O224   O     0.49350   0.51842   0.06661   0.00000  Uiso   1.00
N225   N     0.86110   0.01734   0.62918   0.00000  Uiso   1.00
N226   N     0.41370   0.90154   0.94067   0.00000  Uiso   1.00
N227   N     0.58775   0.63366   0.02397   0.00000  Uiso   1.00
N228   N     0.96817   0.96202   0.58594   0.00000  Uiso   1.00
N229   N     0.52078   0.84623   0.89743   0.00000  Uiso   1.00
N230   N     0.69482   0.57835   0.98073   0.00000  Uiso   1.00
C231   C     0.07403   0.27563   0.85444   0.00000  Uiso   1.00
C232   C     0.05113   0.32148   0.88537   0.00000  Uiso   1.00
C233   C     0.94695   0.30589   0.94079   0.00000  Uiso   1.00
C234   C     0.94361   0.35463   0.96132   0.00000  Uiso   1.00
C235   C     0.89328   0.41637   0.01449   0.00000  Uiso   1.00
C236   C     0.22910   0.26584   0.85615   0.00000  Uiso   1.00
C237   C     0.27456   0.20347   0.88700   0.00000  Uiso   1.00
C238   C     0.42104   0.20538   0.88292   0.00000  Uiso   1.00
C239   C     0.64702   0.18074   0.89069   0.00000  Uiso   1.00
C240   C     0.06476   0.31789   0.77925   0.00000  Uiso   1.00
C241   C     0.97205   0.29928   0.74544   0.00000  Uiso   1.00
C242   C     0.98019   0.34500   0.67661   0.00000  Uiso   1.00
C243   C     0.95099   0.40117   0.56499   0.00000  Uiso   1.00
C244   C     0.25335   0.38992   0.79234   0.00000  Uiso   1.00
C245   C     0.14854   0.38356   0.85163   0.00000  Uiso   1.00
C246   C     0.14535   0.43234   0.87208   0.00000  Uiso   1.00
C247   C     0.04118   0.41683   0.92753   0.00000  Uiso   1.00
C248   C     0.32650   0.32792   0.82242   0.00000  Uiso   1.00
C249   C     0.47295   0.32992   0.81829   0.00000  Uiso   1.00
C250   C     0.51862   0.26757   0.84913   0.00000  Uiso   1.00
C251   C     0.16215   0.37997   0.74552   0.00000  Uiso   1.00
C252   C     0.17044   0.42573   0.67673   0.00000  Uiso   1.00
C253   C     0.07776   0.40719   0.64282   0.00000  Uiso   1.00
H254   H     0.99821   0.22730   0.88070   0.00000  Uiso   1.00
H255   H     0.87161   0.25784   0.96689   0.00000  Uiso   1.00
H256   H     0.19916   0.15544   0.91309   0.00000  Uiso   1.00
H257   H     0.89670   0.25124   0.77156   0.00000  Uiso   1.00
H258   H     0.77423   0.31907   0.04758   0.00000  Uiso   1.00
H259   H     0.46490   0.10315   0.93413   0.00000  Uiso   1.00
H260   H     0.82709   0.30515   0.63567   0.00000  Uiso   1.00
H261   H     0.32918   0.43826   0.76607   0.00000  Uiso   1.00
H262   H     0.22073   0.48037   0.84597   0.00000  Uiso   1.00
H263   H     0.54829   0.37797   0.79218   0.00000  Uiso   1.00
H264   H     0.24582   0.47376   0.65064   0.00000  Uiso   1.00
H265   H     0.05760   0.49968   0.94944   0.00000  Uiso   1.00
H266   H     0.74827   0.28376   0.83600   0.00000  Uiso   1.00
H267   H     0.11046   0.48576   0.53754   0.00000  Uiso   1.00
O268   O     0.83863   0.43326   0.05315   0.00000  Uiso   1.00
O269   O     0.74476   0.14999   0.90431   0.00000  Uiso   1.00
O270   O     0.90797   0.41501   0.51274   0.00000  Uiso   1.00
N271   N     0.85578   0.35580   0.01351   0.00000  Uiso   1.00
N272   N     0.50152   0.15393   0.90746   0.00000  Uiso   1.00
N273   N     0.90525   0.34277   0.62842   0.00000  Uiso   1.00
N274   N     0.00826   0.45299   0.96070   0.00000  Uiso   1.00
N275   N     0.65399   0.25112   0.85465   0.00000  Uiso   1.00
N276   N     0.05772   0.43996   0.57561   0.00000  Uiso   1.00
