data_job_05307
_audit_creation_date              2018-12-19
_audit_creation_method            'Materials Studio'
_symmetry_space_group_name_H-M    'P1'
_symmetry_Int_Tables_number       1
_symmetry_cell_setting            triclinic
loop_
_symmetry_equiv_pos_as_xyz
  x,y,z
_cell_length_a                    19.1934
_cell_length_b                    17.0005
_cell_length_c                    17.8718
_cell_angle_alpha                 90.0000
_cell_angle_beta                  90.0000
_cell_angle_gamma                 90.0000
loop_
_atom_site_label
_atom_site_type_symbol
_atom_site_fract_x
_atom_site_fract_y
_atom_site_fract_z
_atom_site_U_iso_or_equiv
_atom_site_adp_type
_atom_site_occupancy
C1     C     0.47531   0.99387   0.73218   0.00000  Uiso   1.00
C2     C     0.42492   0.97304   0.66925   0.00000  Uiso   1.00
C3     C     0.35303   0.96770   0.67576   0.00000  Uiso   1.00
C4     C     0.31614   0.94787   0.61164   0.00000  Uiso   1.00
C5     C     0.23276   0.91763   0.52430   0.00000  Uiso   1.00
C6     C     0.52715   0.92605   0.73657   0.00000  Uiso   1.00
C7     C     0.54121   0.88120   0.79967   0.00000  Uiso   1.00
C8     C     0.59039   0.82182   0.79223   0.00000  Uiso   1.00
C9     C     0.66575   0.71865   0.80941   0.00000  Uiso   1.00
C10    C     0.51658   0.06489   0.70477   0.00000  Uiso   1.00
C11    C     0.52177   0.13677   0.74115   0.00000  Uiso   1.00
C12    C     0.56207   0.19428   0.70694   0.00000  Uiso   1.00
C13    C     0.62102   0.30667   0.67476   0.00000  Uiso   1.00
C14    C     0.53765   0.96817   0.60675   0.00000  Uiso   1.00
C15    C     0.45879   0.95908   0.60113   0.00000  Uiso   1.00
C16    C     0.42200   0.93927   0.53698   0.00000  Uiso   1.00
C17    C     0.35007   0.93389   0.54339   0.00000  Uiso   1.00
C18    C     0.56101   0.91209   0.66844   0.00000  Uiso   1.00
C19    C     0.61019   0.85277   0.66090   0.00000  Uiso   1.00
C20    C     0.62432   0.80784   0.72398   0.00000  Uiso   1.00
C21    C     0.55044   0.05093   0.63664   0.00000  Uiso   1.00
C22    C     0.59075   0.10834   0.60238   0.00000  Uiso   1.00
C23    C     0.59600   0.18029   0.63870   0.00000  Uiso   1.00
H24    H     0.44895   0.00473   0.78522   0.00000  Uiso   1.00
H25    H     0.32684   0.97850   0.72849   0.00000  Uiso   1.00
H26    H     0.51500   0.89202   0.85239   0.00000  Uiso   1.00
H27    H     0.49556   0.14755   0.79387   0.00000  Uiso   1.00
H28    H     0.20640   0.94323   0.63556   0.00000  Uiso   1.00
H29    H     0.60316   0.76090   0.89681   0.00000  Uiso   1.00
H30    H     0.56217   0.29974   0.77342   0.00000  Uiso   1.00
H31    H     0.56402   0.95730   0.55371   0.00000  Uiso   1.00
H32    H     0.44822   0.92847   0.48427   0.00000  Uiso   1.00
H33    H     0.63639   0.84199   0.60817   0.00000  Uiso   1.00
H34    H     0.61694   0.09752   0.54966   0.00000  Uiso   1.00
H35    H     0.30492   0.90262   0.43734   0.00000  Uiso   1.00
H36    H     0.70169   0.72030   0.69859   0.00000  Uiso   1.00
H37    H     0.66069   0.25913   0.57520   0.00000  Uiso   1.00
O38    O     0.17741   0.90479   0.49495   0.00000  Uiso   1.00
O39    O     0.69796   0.66560   0.83771   0.00000  Uiso   1.00
O40    O     0.64417   0.37253   0.67582   0.00000  Uiso   1.00
N41    N     0.24547   0.93764   0.59843   0.00000  Uiso   1.00
N42    N     0.61642   0.76717   0.84268   0.00000  Uiso   1.00
N43    N     0.57811   0.27093   0.72734   0.00000  Uiso   1.00
N44    N     0.29849   0.91579   0.49177   0.00000  Uiso   1.00
N45    N     0.66943   0.74532   0.73602   0.00000  Uiso   1.00
N46    N     0.63112   0.24908   0.62068   0.00000  Uiso   1.00
C47    C     0.97814   0.44513   0.72984   0.00000  Uiso   1.00
C48    C     0.92975   0.42461   0.66504   0.00000  Uiso   1.00
C49    C     0.85763   0.42020   0.66870   0.00000  Uiso   1.00
C50    C     0.82278   0.40051   0.60325   0.00000  Uiso   1.00
C51    C     0.74216   0.37085   0.51278   0.00000  Uiso   1.00
C52    C     0.02911   0.37669   0.73657   0.00000  Uiso   1.00
C53    C     0.04055   0.33200   0.80038   0.00000  Uiso   1.00
C54    C     0.08935   0.27197   0.79515   0.00000  Uiso   1.00
C55    C     0.16304   0.16796   0.81576   0.00000  Uiso   1.00
C56    C     0.02103   0.51549   0.70379   0.00000  Uiso   1.00
C57    C     0.02568   0.58749   0.74004   0.00000  Uiso   1.00
C58    C     0.06770   0.64431   0.70721   0.00000  Uiso   1.00
C59    C     0.12883   0.75580   0.67691   0.00000  Uiso   1.00
C60    C     0.04450   0.41801   0.60709   0.00000  Uiso   1.00
C61    C     0.96579   0.40988   0.59836   0.00000  Uiso   1.00
C62    C     0.93105   0.39019   0.53289   0.00000  Uiso   1.00
C63    C     0.85889   0.38575   0.53645   0.00000  Uiso   1.00
C64    C     0.06516   0.36196   0.66990   0.00000  Uiso   1.00
C65    C     0.11397   0.30199   0.66457   0.00000  Uiso   1.00
C66    C     0.12547   0.25721   0.72836   0.00000  Uiso   1.00
C67    C     0.05707   0.50076   0.63711   0.00000  Uiso   1.00
C68    C     0.09910   0.55748   0.60422   0.00000  Uiso   1.00
C69    C     0.10381   0.62956   0.64042   0.00000  Uiso   1.00
H70    H     0.95008   0.45659   0.78175   0.00000  Uiso   1.00
H71    H     0.82975   0.43160   0.72031   0.00000  Uiso   1.00
H72    H     0.01265   0.34341   0.85197   0.00000  Uiso   1.00
H73    H     0.99778   0.59886   0.79163   0.00000  Uiso   1.00
H74    H     0.71225   0.39736   0.62280   0.00000  Uiso   1.00
H75    H     0.09791   0.21144   0.90042   0.00000  Uiso   1.00
H76    H     0.06656   0.75011   0.77319   0.00000  Uiso   1.00
H77    H     0.07256   0.40654   0.55518   0.00000  Uiso   1.00
H78    H     0.95896   0.37880   0.48130   0.00000  Uiso   1.00
H79    H     0.14185   0.29061   0.61297   0.00000  Uiso   1.00
H80    H     0.12698   0.54606   0.55263   0.00000  Uiso   1.00
H81    H     0.81711   0.35450   0.42881   0.00000  Uiso   1.00
H82    H     0.20278   0.16858   0.70644   0.00000  Uiso   1.00
H83    H     0.17143   0.70725   0.57921   0.00000  Uiso   1.00
O84    O     0.68774   0.35856   0.48131   0.00000  Uiso   1.00
O85    O     0.19372   0.11465   0.84554   0.00000  Uiso   1.00
O86    O     0.15259   0.82137   0.67862   0.00000  Uiso   1.00
N87    N     0.75252   0.39109   0.58728   0.00000  Uiso   1.00
N88    N     0.11308   0.21726   0.84684   0.00000  Uiso   1.00
N89    N     0.08379   0.72086   0.72790   0.00000  Uiso   1.00
N90    N     0.80895   0.36803   0.48290   0.00000  Uiso   1.00
N91    N     0.16951   0.19420   0.74246   0.00000  Uiso   1.00
N92    N     0.14021   0.69780   0.62352   0.00000  Uiso   1.00
C93    C     0.02469   0.00613   0.23218   0.00000  Uiso   1.00
C94    C     0.07508   0.02696   0.16925   0.00000  Uiso   1.00
C95    C     0.14697   0.03230   0.17576   0.00000  Uiso   1.00
C96    C     0.18386   0.05213   0.11164   0.00000  Uiso   1.00
C97    C     0.26724   0.08237   0.02430   0.00000  Uiso   1.00
C98    C     0.97285   0.07395   0.23657   0.00000  Uiso   1.00
C99    C     0.95879   0.11880   0.29967   0.00000  Uiso   1.00
C100   C     0.90961   0.17818   0.29223   0.00000  Uiso   1.00
C101   C     0.83425   0.28135   0.30941   0.00000  Uiso   1.00
C102   C     0.98342   0.93511   0.20477   0.00000  Uiso   1.00
C103   C     0.97823   0.86323   0.24115   0.00000  Uiso   1.00
C104   C     0.93793   0.80572   0.20694   0.00000  Uiso   1.00
C105   C     0.87898   0.69333   0.17476   0.00000  Uiso   1.00
C106   C     0.96235   0.03183   0.10675   0.00000  Uiso   1.00
C107   C     0.04121   0.04092   0.10113   0.00000  Uiso   1.00
C108   C     0.07800   0.06073   0.03698   0.00000  Uiso   1.00
C109   C     0.14993   0.06611   0.04339   0.00000  Uiso   1.00
C110   C     0.93899   0.08791   0.16844   0.00000  Uiso   1.00
C111   C     0.88981   0.14723   0.16090   0.00000  Uiso   1.00
C112   C     0.87568   0.19216   0.22398   0.00000  Uiso   1.00
C113   C     0.94956   0.94907   0.13664   0.00000  Uiso   1.00
C114   C     0.90925   0.89166   0.10238   0.00000  Uiso   1.00
C115   C     0.90400   0.81971   0.13870   0.00000  Uiso   1.00
H116   H     0.05105   0.99527   0.28522   0.00000  Uiso   1.00
H117   H     0.17316   0.02150   0.22849   0.00000  Uiso   1.00
H118   H     0.98500   0.10798   0.35239   0.00000  Uiso   1.00
H119   H     0.00444   0.85245   0.29387   0.00000  Uiso   1.00
H120   H     0.29360   0.05677   0.13556   0.00000  Uiso   1.00
H121   H     0.89684   0.23910   0.39681   0.00000  Uiso   1.00
H122   H     0.93783   0.70026   0.27342   0.00000  Uiso   1.00
H123   H     0.93598   0.04270   0.05371   0.00000  Uiso   1.00
H124   H     0.05178   0.07153   0.98427   0.00000  Uiso   1.00
H125   H     0.86361   0.15801   0.10817   0.00000  Uiso   1.00
H126   H     0.88306   0.90248   0.04966   0.00000  Uiso   1.00
H127   H     0.19508   0.09738   0.93734   0.00000  Uiso   1.00
H128   H     0.79831   0.27970   0.19859   0.00000  Uiso   1.00
H129   H     0.83931   0.74087   0.07520   0.00000  Uiso   1.00
O130   O     0.32259   0.09521   0.99495   0.00000  Uiso   1.00
O131   O     0.80204   0.33440   0.33771   0.00000  Uiso   1.00
O132   O     0.85583   0.62747   0.17582   0.00000  Uiso   1.00
N133   N     0.25453   0.06236   0.09843   0.00000  Uiso   1.00
N134   N     0.88358   0.23283   0.34268   0.00000  Uiso   1.00
N135   N     0.92189   0.72907   0.22734   0.00000  Uiso   1.00
N136   N     0.20151   0.08421   0.99177   0.00000  Uiso   1.00
N137   N     0.83057   0.25468   0.23602   0.00000  Uiso   1.00
N138   N     0.86888   0.75092   0.12068   0.00000  Uiso   1.00
C139   C     0.52186   0.55487   0.22984   0.00000  Uiso   1.00
C140   C     0.57025   0.57539   0.16504   0.00000  Uiso   1.00
C141   C     0.64237   0.57980   0.16870   0.00000  Uiso   1.00
C142   C     0.67722   0.59949   0.10325   0.00000  Uiso   1.00
C143   C     0.75784   0.62915   0.01278   0.00000  Uiso   1.00
C144   C     0.47089   0.62331   0.23657   0.00000  Uiso   1.00
C145   C     0.45945   0.66800   0.30038   0.00000  Uiso   1.00
C146   C     0.41065   0.72803   0.29515   0.00000  Uiso   1.00
C147   C     0.33696   0.83204   0.31576   0.00000  Uiso   1.00
C148   C     0.47897   0.48451   0.20379   0.00000  Uiso   1.00
C149   C     0.47432   0.41251   0.24004   0.00000  Uiso   1.00
C150   C     0.43230   0.35569   0.20721   0.00000  Uiso   1.00
C151   C     0.37117   0.24420   0.17691   0.00000  Uiso   1.00
C152   C     0.45550   0.58199   0.10709   0.00000  Uiso   1.00
C153   C     0.53421   0.59012   0.09836   0.00000  Uiso   1.00
C154   C     0.56895   0.60981   0.03289   0.00000  Uiso   1.00
C155   C     0.64111   0.61425   0.03645   0.00000  Uiso   1.00
C156   C     0.43484   0.63804   0.16990   0.00000  Uiso   1.00
C157   C     0.38603   0.69801   0.16457   0.00000  Uiso   1.00
C158   C     0.37453   0.74279   0.22836   0.00000  Uiso   1.00
C159   C     0.44293   0.49924   0.13711   0.00000  Uiso   1.00
C160   C     0.40090   0.44252   0.10422   0.00000  Uiso   1.00
C161   C     0.39619   0.37044   0.14042   0.00000  Uiso   1.00
H162   H     0.54992   0.54341   0.28175   0.00000  Uiso   1.00
H163   H     0.67025   0.56840   0.22031   0.00000  Uiso   1.00
H164   H     0.48735   0.65659   0.35197   0.00000  Uiso   1.00
H165   H     0.50222   0.40114   0.29163   0.00000  Uiso   1.00
H166   H     0.78775   0.60264   0.12280   0.00000  Uiso   1.00
H167   H     0.40209   0.78856   0.40042   0.00000  Uiso   1.00
H168   H     0.43344   0.24989   0.27319   0.00000  Uiso   1.00
H169   H     0.42744   0.59346   0.05518   0.00000  Uiso   1.00
H170   H     0.54104   0.62120   0.98130   0.00000  Uiso   1.00
H171   H     0.35815   0.70939   0.11297   0.00000  Uiso   1.00
H172   H     0.37302   0.45394   0.05263   0.00000  Uiso   1.00
H173   H     0.68289   0.64550   0.92881   0.00000  Uiso   1.00
H174   H     0.29722   0.83142   0.20644   0.00000  Uiso   1.00
H175   H     0.32857   0.29275   0.07921   0.00000  Uiso   1.00
O176   O     0.81226   0.64144   0.98131   0.00000  Uiso   1.00
O177   O     0.30628   0.88535   0.34554   0.00000  Uiso   1.00
O178   O     0.34741   0.17863   0.17862   0.00000  Uiso   1.00
N179   N     0.74748   0.60891   0.08728   0.00000  Uiso   1.00
N180   N     0.38692   0.78274   0.34684   0.00000  Uiso   1.00
N181   N     0.41621   0.27914   0.22790   0.00000  Uiso   1.00
N182   N     0.69105   0.63197   0.98290   0.00000  Uiso   1.00
N183   N     0.33049   0.80580   0.24246   0.00000  Uiso   1.00
N184   N     0.35979   0.30220   0.12352   0.00000  Uiso   1.00
C185   C     0.52469   0.49387   0.76782   0.00000  Uiso   1.00
C186   C     0.57508   0.47304   0.83075   0.00000  Uiso   1.00
C187   C     0.64697   0.46770   0.82424   0.00000  Uiso   1.00
C188   C     0.68386   0.44787   0.88836   0.00000  Uiso   1.00
C189   C     0.76724   0.41763   0.97570   0.00000  Uiso   1.00
C190   C     0.47285   0.42605   0.76343   0.00000  Uiso   1.00
C191   C     0.45879   0.38120   0.70033   0.00000  Uiso   1.00
C192   C     0.40961   0.32182   0.70777   0.00000  Uiso   1.00
C193   C     0.33425   0.21865   0.69059   0.00000  Uiso   1.00
C194   C     0.48342   0.56489   0.79523   0.00000  Uiso   1.00
C195   C     0.47823   0.63677   0.75885   0.00000  Uiso   1.00
C196   C     0.43793   0.69428   0.79306   0.00000  Uiso   1.00
C197   C     0.37898   0.80667   0.82524   0.00000  Uiso   1.00
C198   C     0.46235   0.46817   0.89325   0.00000  Uiso   1.00
C199   C     0.54121   0.45908   0.89887   0.00000  Uiso   1.00
C200   C     0.57800   0.43927   0.96302   0.00000  Uiso   1.00
C201   C     0.64993   0.43389   0.95661   0.00000  Uiso   1.00
C202   C     0.43899   0.41209   0.83156   0.00000  Uiso   1.00
C203   C     0.38981   0.35277   0.83910   0.00000  Uiso   1.00
C204   C     0.37568   0.30784   0.77602   0.00000  Uiso   1.00
C205   C     0.44956   0.55093   0.86336   0.00000  Uiso   1.00
C206   C     0.40925   0.60834   0.89762   0.00000  Uiso   1.00
C207   C     0.40400   0.68029   0.86130   0.00000  Uiso   1.00
H208   H     0.55105   0.50473   0.71478   0.00000  Uiso   1.00
H209   H     0.67316   0.47850   0.77151   0.00000  Uiso   1.00
H210   H     0.48500   0.39202   0.64761   0.00000  Uiso   1.00
H211   H     0.50444   0.64755   0.70613   0.00000  Uiso   1.00
H212   H     0.79360   0.44323   0.86444   0.00000  Uiso   1.00
H213   H     0.39684   0.26090   0.60319   0.00000  Uiso   1.00
H214   H     0.43783   0.79974   0.72658   0.00000  Uiso   1.00
H215   H     0.43598   0.45730   0.94629   0.00000  Uiso   1.00
H216   H     0.55178   0.42847   0.01573   0.00000  Uiso   1.00
H217   H     0.36361   0.34199   0.89183   0.00000  Uiso   1.00
H218   H     0.38306   0.59752   0.95034   0.00000  Uiso   1.00
H219   H     0.69508   0.40262   0.06266   0.00000  Uiso   1.00
H220   H     0.29831   0.22030   0.80141   0.00000  Uiso   1.00
H221   H     0.33931   0.75913   0.92480   0.00000  Uiso   1.00
O222   O     0.82259   0.40479   0.00505   0.00000  Uiso   1.00
O223   O     0.30204   0.16560   0.66229   0.00000  Uiso   1.00
O224   O     0.35583   0.87253   0.82418   0.00000  Uiso   1.00
N225   N     0.75453   0.43764   0.90157   0.00000  Uiso   1.00
N226   N     0.38358   0.26717   0.65732   0.00000  Uiso   1.00
N227   N     0.42189   0.77093   0.77266   0.00000  Uiso   1.00
N228   N     0.70151   0.41579   0.00823   0.00000  Uiso   1.00
N229   N     0.33057   0.24532   0.76398   0.00000  Uiso   1.00
N230   N     0.36888   0.74908   0.87932   0.00000  Uiso   1.00
C231   C     0.02186   0.94513   0.77016   0.00000  Uiso   1.00
C232   C     0.07025   0.92461   0.83496   0.00000  Uiso   1.00
C233   C     0.14237   0.92020   0.83130   0.00000  Uiso   1.00
C234   C     0.17722   0.90051   0.89675   0.00000  Uiso   1.00
C235   C     0.25784   0.87085   0.98722   0.00000  Uiso   1.00
C236   C     0.97089   0.87669   0.76343   0.00000  Uiso   1.00
C237   C     0.95945   0.83200   0.69962   0.00000  Uiso   1.00
C238   C     0.91065   0.77197   0.70485   0.00000  Uiso   1.00
C239   C     0.83696   0.66796   0.68424   0.00000  Uiso   1.00
C240   C     0.97897   0.01549   0.79621   0.00000  Uiso   1.00
C241   C     0.97432   0.08749   0.75996   0.00000  Uiso   1.00
C242   C     0.93230   0.14431   0.79279   0.00000  Uiso   1.00
C243   C     0.87117   0.25580   0.82309   0.00000  Uiso   1.00
C244   C     0.95550   0.91801   0.89291   0.00000  Uiso   1.00
C245   C     0.03421   0.90988   0.90164   0.00000  Uiso   1.00
C246   C     0.06895   0.89019   0.96711   0.00000  Uiso   1.00
C247   C     0.14111   0.88575   0.96355   0.00000  Uiso   1.00
C248   C     0.93484   0.86196   0.83010   0.00000  Uiso   1.00
C249   C     0.88603   0.80199   0.83543   0.00000  Uiso   1.00
C250   C     0.87453   0.75721   0.77164   0.00000  Uiso   1.00
C251   C     0.94293   0.00076   0.86289   0.00000  Uiso   1.00
C252   C     0.90090   0.05748   0.89578   0.00000  Uiso   1.00
C253   C     0.89619   0.12956   0.85958   0.00000  Uiso   1.00
H254   H     0.04992   0.95659   0.71825   0.00000  Uiso   1.00
H255   H     0.17025   0.93160   0.77969   0.00000  Uiso   1.00
H256   H     0.98735   0.84341   0.64803   0.00000  Uiso   1.00
H257   H     0.00222   0.09886   0.70837   0.00000  Uiso   1.00
H258   H     0.28775   0.89736   0.87720   0.00000  Uiso   1.00
H259   H     0.90209   0.71144   0.59958   0.00000  Uiso   1.00
H260   H     0.93344   0.25011   0.72681   0.00000  Uiso   1.00
H261   H     0.92744   0.90654   0.94482   0.00000  Uiso   1.00
H262   H     0.04104   0.87880   0.01870   0.00000  Uiso   1.00
H263   H     0.85815   0.79061   0.88703   0.00000  Uiso   1.00
H264   H     0.87302   0.04606   0.94737   0.00000  Uiso   1.00
H265   H     0.18289   0.85450   0.07119   0.00000  Uiso   1.00
H266   H     0.79722   0.66858   0.79356   0.00000  Uiso   1.00
H267   H     0.82857   0.20725   0.92079   0.00000  Uiso   1.00
O268   O     0.31226   0.85856   0.01869   0.00000  Uiso   1.00
O269   O     0.80628   0.61465   0.65446   0.00000  Uiso   1.00
O270   O     0.84741   0.32137   0.82138   0.00000  Uiso   1.00
N271   N     0.24748   0.89109   0.91272   0.00000  Uiso   1.00
N272   N     0.88692   0.71726   0.65316   0.00000  Uiso   1.00
N273   N     0.91621   0.22086   0.77210   0.00000  Uiso   1.00
N274   N     0.19105   0.86803   0.01710   0.00000  Uiso   1.00
N275   N     0.83049   0.69420   0.75754   0.00000  Uiso   1.00
N276   N     0.85979   0.19780   0.87648   0.00000  Uiso   1.00
C277   C     0.97531   0.50613   0.26782   0.00000  Uiso   1.00
C278   C     0.92492   0.52696   0.33075   0.00000  Uiso   1.00
C279   C     0.85303   0.53230   0.32424   0.00000  Uiso   1.00
C280   C     0.81614   0.55213   0.38836   0.00000  Uiso   1.00
C281   C     0.73276   0.58237   0.47570   0.00000  Uiso   1.00
C282   C     0.02715   0.57395   0.26343   0.00000  Uiso   1.00
C283   C     0.04121   0.61880   0.20033   0.00000  Uiso   1.00
C284   C     0.09039   0.67818   0.20777   0.00000  Uiso   1.00
C285   C     0.16575   0.78135   0.19059   0.00000  Uiso   1.00
C286   C     0.01658   0.43511   0.29523   0.00000  Uiso   1.00
C287   C     0.02177   0.36323   0.25885   0.00000  Uiso   1.00
C288   C     0.06207   0.30572   0.29306   0.00000  Uiso   1.00
C289   C     0.12102   0.19333   0.32524   0.00000  Uiso   1.00
C290   C     0.03765   0.53183   0.39325   0.00000  Uiso   1.00
C291   C     0.95879   0.54092   0.39887   0.00000  Uiso   1.00
C292   C     0.92200   0.56073   0.46302   0.00000  Uiso   1.00
C293   C     0.85007   0.56611   0.45661   0.00000  Uiso   1.00
C294   C     0.06101   0.58791   0.33156   0.00000  Uiso   1.00
C295   C     0.11019   0.64723   0.33910   0.00000  Uiso   1.00
C296   C     0.12432   0.69216   0.27602   0.00000  Uiso   1.00
C297   C     0.05044   0.44907   0.36336   0.00000  Uiso   1.00
C298   C     0.09075   0.39166   0.39762   0.00000  Uiso   1.00
C299   C     0.09600   0.31971   0.36130   0.00000  Uiso   1.00
H300   H     0.94895   0.49527   0.21478   0.00000  Uiso   1.00
H301   H     0.82684   0.52150   0.27151   0.00000  Uiso   1.00
H302   H     0.01500   0.60798   0.14761   0.00000  Uiso   1.00
H303   H     0.99556   0.35245   0.20613   0.00000  Uiso   1.00
H304   H     0.70640   0.55677   0.36444   0.00000  Uiso   1.00
H305   H     0.10316   0.73910   0.10319   0.00000  Uiso   1.00
H306   H     0.06217   0.20026   0.22658   0.00000  Uiso   1.00
H307   H     0.06402   0.54270   0.44629   0.00000  Uiso   1.00
H308   H     0.94822   0.57153   0.51573   0.00000  Uiso   1.00
H309   H     0.13639   0.65801   0.39183   0.00000  Uiso   1.00
H310   H     0.11694   0.40248   0.45034   0.00000  Uiso   1.00
H311   H     0.80492   0.59738   0.56266   0.00000  Uiso   1.00
H312   H     0.20169   0.77970   0.30141   0.00000  Uiso   1.00
H313   H     0.16069   0.24087   0.42480   0.00000  Uiso   1.00
O314   O     0.67741   0.59521   0.50505   0.00000  Uiso   1.00
O315   O     0.19796   0.83440   0.16229   0.00000  Uiso   1.00
O316   O     0.14417   0.12747   0.32418   0.00000  Uiso   1.00
N317   N     0.74547   0.56236   0.40157   0.00000  Uiso   1.00
N318   N     0.11642   0.73283   0.15732   0.00000  Uiso   1.00
N319   N     0.07811   0.22907   0.27266   0.00000  Uiso   1.00
N320   N     0.79849   0.58421   0.50823   0.00000  Uiso   1.00
N321   N     0.16943   0.75468   0.26398   0.00000  Uiso   1.00
N322   N     0.13112   0.25092   0.37932   0.00000  Uiso   1.00
C323   C     0.47814   0.05487   0.27016   0.00000  Uiso   1.00
C324   C     0.42975   0.07539   0.33496   0.00000  Uiso   1.00
C325   C     0.35763   0.07980   0.33130   0.00000  Uiso   1.00
C326   C     0.32278   0.09949   0.39675   0.00000  Uiso   1.00
C327   C     0.24216   0.12915   0.48722   0.00000  Uiso   1.00
C328   C     0.52911   0.12331   0.26343   0.00000  Uiso   1.00
C329   C     0.54055   0.16800   0.19962   0.00000  Uiso   1.00
C330   C     0.58935   0.22803   0.20485   0.00000  Uiso   1.00
C331   C     0.66304   0.33204   0.18424   0.00000  Uiso   1.00
C332   C     0.52103   0.98451   0.29621   0.00000  Uiso   1.00
C333   C     0.52568   0.91251   0.25996   0.00000  Uiso   1.00
C334   C     0.56770   0.85569   0.29279   0.00000  Uiso   1.00
C335   C     0.62883   0.74420   0.32309   0.00000  Uiso   1.00
C336   C     0.54450   0.08199   0.39291   0.00000  Uiso   1.00
C337   C     0.46579   0.09012   0.40164   0.00000  Uiso   1.00
C338   C     0.43105   0.10981   0.46711   0.00000  Uiso   1.00
C339   C     0.35889   0.11425   0.46355   0.00000  Uiso   1.00
C340   C     0.56516   0.13804   0.33010   0.00000  Uiso   1.00
C341   C     0.61397   0.19801   0.33543   0.00000  Uiso   1.00
C342   C     0.62547   0.24279   0.27164   0.00000  Uiso   1.00
C343   C     0.55707   0.99924   0.36289   0.00000  Uiso   1.00
C344   C     0.59910   0.94252   0.39578   0.00000  Uiso   1.00
C345   C     0.60381   0.87044   0.35958   0.00000  Uiso   1.00
H346   H     0.45008   0.04341   0.21825   0.00000  Uiso   1.00
H347   H     0.32975   0.06840   0.27969   0.00000  Uiso   1.00
H348   H     0.51265   0.15659   0.14803   0.00000  Uiso   1.00
H349   H     0.49778   0.90114   0.20837   0.00000  Uiso   1.00
H350   H     0.21225   0.10264   0.37720   0.00000  Uiso   1.00
H351   H     0.59791   0.28856   0.09958   0.00000  Uiso   1.00
H352   H     0.56656   0.74989   0.22681   0.00000  Uiso   1.00
H353   H     0.57256   0.09346   0.44482   0.00000  Uiso   1.00
H354   H     0.45896   0.12120   0.51870   0.00000  Uiso   1.00
H355   H     0.64185   0.20939   0.38703   0.00000  Uiso   1.00
H356   H     0.62698   0.95394   0.44737   0.00000  Uiso   1.00
H357   H     0.31711   0.14550   0.57119   0.00000  Uiso   1.00
H358   H     0.70278   0.33142   0.29356   0.00000  Uiso   1.00
H359   H     0.67143   0.79275   0.42079   0.00000  Uiso   1.00
O360   O     0.18774   0.14144   0.51869   0.00000  Uiso   1.00
O361   O     0.69372   0.38535   0.15446   0.00000  Uiso   1.00
O362   O     0.65259   0.67863   0.32138   0.00000  Uiso   1.00
N363   N     0.25252   0.10891   0.41272   0.00000  Uiso   1.00
N364   N     0.61308   0.28274   0.15316   0.00000  Uiso   1.00
N365   N     0.58379   0.77914   0.27210   0.00000  Uiso   1.00
N366   N     0.30895   0.13197   0.51710   0.00000  Uiso   1.00
N367   N     0.66951   0.30580   0.25754   0.00000  Uiso   1.00
N368   N     0.64021   0.80220   0.37648   0.00000  Uiso   1.00
