data_job_07071
_audit_creation_date              2018-12-19
_audit_creation_method            'Materials Studio'
_symmetry_space_group_name_H-M    'P1'
_symmetry_Int_Tables_number       1
_symmetry_cell_setting            triclinic
loop_
_symmetry_equiv_pos_as_xyz
  x,y,z
_cell_length_a                    28.5268
_cell_length_b                    24.3805
_cell_length_c                    25.1007
_cell_angle_alpha                 117.2140
_cell_angle_beta                  76.8217
_cell_angle_gamma                 93.4818
loop_
_atom_site_label
_atom_site_type_symbol
_atom_site_fract_x
_atom_site_fract_y
_atom_site_fract_z
_atom_site_U_iso_or_equiv
_atom_site_adp_type
_atom_site_occupancy
C1     C     0.64718   0.92634   0.34062   0.00000  Uiso   1.00
C2     C     0.69267   0.89328   0.33618   0.00000  Uiso   1.00
C3     C     0.69700   0.83192   0.32362   0.00000  Uiso   1.00
C4     C     0.74166   0.81038   0.32155   0.00000  Uiso   1.00
C5     C     0.80638   0.75321   0.31314   0.00000  Uiso   1.00
C6     C     0.63688   0.98213   0.40404   0.00000  Uiso   1.00
C7     C     0.59428   0.99548   0.44852   0.00000  Uiso   1.00
C8     C     0.59197   0.04875   0.50357   0.00000  Uiso   1.00
C9     C     0.57004   0.12954   0.60049   0.00000  Uiso   1.00
C10    C     0.66107   0.95217   0.29444   0.00000  Uiso   1.00
C11    C     0.63881   0.94034   0.24678   0.00000  Uiso   1.00
C12    C     0.65686   0.96840   0.20957   0.00000  Uiso   1.00
C13    C     0.67250   0.00267   0.13633   0.00000  Uiso   1.00
C14    C     0.71881   0.99721   0.35929   0.00000  Uiso   1.00
C15    C     0.73158   0.93178   0.34633   0.00000  Uiso   1.00
C16    C     0.77625   0.91033   0.34427   0.00000  Uiso   1.00
C17    C     0.78063   0.84895   0.33170   0.00000  Uiso   1.00
C18    C     0.67578   0.02063   0.41418   0.00000  Uiso   1.00
C19    C     0.67353   0.07389   0.46917   0.00000  Uiso   1.00
C20    C     0.63094   0.08731   0.51373   0.00000  Uiso   1.00
C21    C     0.69998   0.99067   0.30458   0.00000  Uiso   1.00
C22    C     0.71806   0.01875   0.26744   0.00000  Uiso   1.00
C23    C     0.69584   0.00696   0.21973   0.00000  Uiso   1.00
H24    H     0.61689   0.89637   0.33273   0.00000  Uiso   1.00
H25    H     0.66688   0.80214   0.31578   0.00000  Uiso   1.00
H26    H     0.56418   0.96568   0.44066   0.00000  Uiso   1.00
H27    H     0.60870   0.91055   0.23895   0.00000  Uiso   1.00
H28    H     0.73945   0.71466   0.30148   0.00000  Uiso   1.00
H29    H     0.52290   0.05950   0.56478   0.00000  Uiso   1.00
H30    H     0.61679   0.94325   0.13945   0.00000  Uiso   1.00
H31    H     0.74910   0.02718   0.36719   0.00000  Uiso   1.00
H32    H     0.80635   0.94013   0.35212   0.00000  Uiso   1.00
H33    H     0.70364   0.10367   0.47700   0.00000  Uiso   1.00
H34    H     0.74817   0.04854   0.27530   0.00000  Uiso   1.00
H35    H     0.85265   0.82665   0.33098   0.00000  Uiso   1.00
H36    H     0.63609   0.17150   0.59429   0.00000  Uiso   1.00
H37    H     0.72999   0.05524   0.16895   0.00000  Uiso   1.00
O38    O     0.83132   0.71104   0.30572   0.00000  Uiso   1.00
O39    O     0.54720   0.16346   0.65116   0.00000  Uiso   1.00
O40    O     0.67039   0.01093   0.09313   0.00000  Uiso   1.00
N41    N     0.75824   0.75296   0.31047   0.00000  Uiso   1.00
N42    N     0.55578   0.07536   0.55666   0.00000  Uiso   1.00
N43    N     0.64355   0.96669   0.15901   0.00000  Uiso   1.00
N44    N     0.81915   0.81322   0.32635   0.00000  Uiso   1.00
N45    N     0.61669   0.13563   0.57253   0.00000  Uiso   1.00
N46    N     0.70446   0.02695   0.17489   0.00000  Uiso   1.00
C47    C     0.34832   0.56102   0.99529   0.00000  Uiso   1.00
C48    C     0.35018   0.60106   0.96276   0.00000  Uiso   1.00
C49    C     0.33561   0.58435   0.90846   0.00000  Uiso   1.00
C50    C     0.34021   0.62749   0.88612   0.00000  Uiso   1.00
C51    C     0.34031   0.68086   0.83089   0.00000  Uiso   1.00
C52    C     0.39959   0.55614   0.00168   0.00000  Uiso   1.00
C53    C     0.42657   0.50166   0.98013   0.00000  Uiso   1.00
C54    C     0.47276   0.50700   0.99056   0.00000  Uiso   1.00
C55    C     0.54957   0.49064   0.99581   0.00000  Uiso   1.00
C56    C     0.31854   0.59874   0.06039   0.00000  Uiso   1.00
C57    C     0.27736   0.58007   0.08820   0.00000  Uiso   1.00
C58    C     0.25532   0.62127   0.14807   0.00000  Uiso   1.00
C59    C     0.20627   0.67104   0.24447   0.00000  Uiso   1.00
C60    C     0.38240   0.66738   0.05216   0.00000  Uiso   1.00
C61    C     0.36869   0.65883   0.99365   0.00000  Uiso   1.00
C62    C     0.37331   0.70201   0.97139   0.00000  Uiso   1.00
C63    C     0.35875   0.68537   0.91707   0.00000  Uiso   1.00
C64    C     0.41811   0.61391   0.03257   0.00000  Uiso   1.00
C65    C     0.46427   0.61933   0.04305   0.00000  Uiso   1.00
C66    C     0.49131   0.56487   0.02151   0.00000  Uiso   1.00
C67    C     0.33705   0.65651   0.09128   0.00000  Uiso   1.00
C68    C     0.31507   0.69774   0.15112   0.00000  Uiso   1.00
C69    C     0.27387   0.67914   0.17902   0.00000  Uiso   1.00
H70    H     0.33391   0.51605   0.97124   0.00000  Uiso   1.00
H71    H     0.32129   0.53963   0.88457   0.00000  Uiso   1.00
H72    H     0.41223   0.45697   0.95623   0.00000  Uiso   1.00
H73    H     0.26305   0.53536   0.06428   0.00000  Uiso   1.00
H74    H     0.31548   0.59125   0.80209   0.00000  Uiso   1.00
H75    H     0.50723   0.41694   0.95321   0.00000  Uiso   1.00
H76    H     0.19265   0.58225   0.18107   0.00000  Uiso   1.00
H77    H     0.39681   0.71235   0.07621   0.00000  Uiso   1.00
H78    H     0.38764   0.74671   0.99530   0.00000  Uiso   1.00
H79    H     0.47859   0.66404   0.06696   0.00000  Uiso   1.00
H80    H     0.32940   0.74244   0.17502   0.00000  Uiso   1.00
H81    H     0.36933   0.75932   0.89196   0.00000  Uiso   1.00
H82    H     0.56109   0.58501   0.04308   0.00000  Uiso   1.00
H83    H     0.24650   0.75033   0.27094   0.00000  Uiso   1.00
O84    O     0.33525   0.69434   0.79189   0.00000  Uiso   1.00
O85    O     0.58682   0.46565   0.99017   0.00000  Uiso   1.00
O86    O     0.17410   0.68254   0.28911   0.00000  Uiso   1.00
N87    N     0.32940   0.62610   0.83435   0.00000  Uiso   1.00
N88    N     0.50868   0.46312   0.97563   0.00000  Uiso   1.00
N89    N     0.21458   0.61767   0.18866   0.00000  Uiso   1.00
N90    N     0.35838   0.71653   0.88271   0.00000  Uiso   1.00
N91    N     0.53766   0.55356   0.02399   0.00000  Uiso   1.00
N92    N     0.24356   0.70811   0.23702   0.00000  Uiso   1.00
C93    C     0.00385   0.25636   0.64807   0.00000  Uiso   1.00
C94    C     0.97217   0.29017   0.71267   0.00000  Uiso   1.00
C95    C     0.92290   0.28486   0.72927   0.00000  Uiso   1.00
C96    C     0.90047   0.31966   0.79073   0.00000  Uiso   1.00
C97    C     0.84733   0.36629   0.88446   0.00000  Uiso   1.00
C98    C     0.02843   0.30631   0.63272   0.00000  Uiso   1.00
C99    C     0.02647   0.31456   0.58209   0.00000  Uiso   1.00
C100   C     0.05141   0.36294   0.57624   0.00000  Uiso   1.00
C101   C     0.08565   0.43460   0.54581   0.00000  Uiso   1.00
C102   C     0.04369   0.22142   0.65338   0.00000  Uiso   1.00
C103   C     0.05456   0.15830   0.62011   0.00000  Uiso   1.00
C104   C     0.09236   0.13522   0.63164   0.00000  Uiso   1.00
C105   C     0.15028   0.07508   0.63329   0.00000  Uiso   1.00
C106   C     0.05163   0.32759   0.72768   0.00000  Uiso   1.00
C107   C     0.99812   0.32886   0.75591   0.00000  Uiso   1.00
C108   C     0.97576   0.36367   0.81736   0.00000  Uiso   1.00
C109   C     0.92647   0.35841   0.83405   0.00000  Uiso   1.00
C110   C     0.05438   0.34499   0.67596   0.00000  Uiso   1.00
C111   C     0.07933   0.39337   0.67018   0.00000  Uiso   1.00
C112   C     0.07741   0.40170   0.61956   0.00000  Uiso   1.00
C113   C     0.06964   0.26011   0.69662   0.00000  Uiso   1.00
C114   C     0.10742   0.23711   0.70820   0.00000  Uiso   1.00
C115   C     0.11835   0.17398   0.67496   0.00000  Uiso   1.00
H116   H     0.98365   0.22624   0.61440   0.00000  Uiso   1.00
H117   H     0.90283   0.25492   0.69579   0.00000  Uiso   1.00
H118   H     0.00639   0.28461   0.54863   0.00000  Uiso   1.00
H119   H     0.03447   0.12838   0.58665   0.00000  Uiso   1.00
H120   H     0.82467   0.30379   0.80510   0.00000  Uiso   1.00
H121   H     0.04305   0.36639   0.49479   0.00000  Uiso   1.00
H122   H     0.10227   0.03694   0.57495   0.00000  Uiso   1.00
H123   H     0.07183   0.35771   0.76135   0.00000  Uiso   1.00
H124   H     0.99585   0.39360   0.85082   0.00000  Uiso   1.00
H125   H     0.09941   0.42330   0.70365   0.00000  Uiso   1.00
H126   H     0.12750   0.26707   0.74167   0.00000  Uiso   1.00
H127   H     0.90017   0.41636   0.93092   0.00000  Uiso   1.00
H128   H     0.11855   0.47895   0.62061   0.00000  Uiso   1.00
H129   H     0.17777   0.14951   0.70078   0.00000  Uiso   1.00
O130   O     0.81085   0.38133   0.92421   0.00000  Uiso   1.00
O131   O     0.09736   0.46344   0.51708   0.00000  Uiso   1.00
O132   O     0.17505   0.03122   0.62226   0.00000  Uiso   1.00
N133   N     0.85287   0.32535   0.82244   0.00000  Uiso   1.00
N134   N     0.05703   0.38388   0.53232   0.00000  Uiso   1.00
N135   N     0.11241   0.07588   0.60725   0.00000  Uiso   1.00
N136   N     0.89350   0.38592   0.89014   0.00000  Uiso   1.00
N137   N     0.09766   0.44445   0.60002   0.00000  Uiso   1.00
N138   N     0.15303   0.13645   0.67496   0.00000  Uiso   1.00
C139   C     0.21174   0.66818   0.42556   0.00000  Uiso   1.00
C140   C     0.26580   0.66447   0.39890   0.00000  Uiso   1.00
C141   C     0.28910   0.62713   0.33839   0.00000  Uiso   1.00
C142   C     0.33876   0.63043   0.32307   0.00000  Uiso   1.00
C143   C     0.41883   0.61873   0.27501   0.00000  Uiso   1.00
C144   C     0.19536   0.73594   0.45327   0.00000  Uiso   1.00
C145   C     0.15944   0.75867   0.43848   0.00000  Uiso   1.00
C146   C     0.14980   0.82214   0.46895   0.00000  Uiso   1.00
C147   C     0.12050   0.92137   0.50534   0.00000  Uiso   1.00
C148   C     0.20611   0.65367   0.47963   0.00000  Uiso   1.00
C149   C     0.17920   0.60725   0.48701   0.00000  Uiso   1.00
C150   C     0.17860   0.60145   0.53967   0.00000  Uiso   1.00
C151   C     0.16598   0.57295   0.61698   0.00000  Uiso   1.00
C152   C     0.25851   0.74045   0.50597   0.00000  Uiso   1.00
C153   C     0.29120   0.70373   0.44257   0.00000  Uiso   1.00
C154   C     0.34084   0.70709   0.42734   0.00000  Uiso   1.00
C155   C     0.36421   0.66976   0.36682   0.00000  Uiso   1.00
C156   C     0.22077   0.77519   0.49694   0.00000  Uiso   1.00
C157   C     0.21118   0.83863   0.52744   0.00000  Uiso   1.00
C158   C     0.17525   0.86146   0.51270   0.00000  Uiso   1.00
C159   C     0.23151   0.69292   0.52330   0.00000  Uiso   1.00
C160   C     0.23095   0.68720   0.57596   0.00000  Uiso   1.00
C161   C     0.20405   0.64078   0.58342   0.00000  Uiso   1.00
H162   H     0.19196   0.63763   0.39157   0.00000  Uiso   1.00
H163   H     0.26942   0.59676   0.30460   0.00000  Uiso   1.00
H164   H     0.13978   0.72829   0.40469   0.00000  Uiso   1.00
H165   H     0.15954   0.57688   0.45321   0.00000  Uiso   1.00
H166   H     0.36651   0.56879   0.22744   0.00000  Uiso   1.00
H167   H     0.09314   0.84611   0.43850   0.00000  Uiso   1.00
H168   H     0.13481   0.52684   0.54080   0.00000  Uiso   1.00
H169   H     0.27829   0.77102   0.53997   0.00000  Uiso   1.00
H170   H     0.36049   0.73747   0.46115   0.00000  Uiso   1.00
H171   H     0.23085   0.86900   0.56123   0.00000  Uiso   1.00
H172   H     0.25061   0.71759   0.60975   0.00000  Uiso   1.00
H173   H     0.44042   0.68299   0.35450   0.00000  Uiso   1.00
H174   H     0.16705   0.96031   0.56555   0.00000  Uiso   1.00
H175   H     0.20873   0.64104   0.66786   0.00000  Uiso   1.00
O176   O     0.45598   0.60143   0.23643   0.00000  Uiso   1.00
O177   O     0.09732   0.96526   0.51334   0.00000  Uiso   1.00
O178   O     0.15200   0.54639   0.64756   0.00000  Uiso   1.00
N179   N     0.37262   0.60026   0.26816   0.00000  Uiso   1.00
N180   N     0.11704   0.85954   0.46548   0.00000  Uiso   1.00
N181   N     0.15599   0.56106   0.56114   0.00000  Uiso   1.00
N182   N     0.41240   0.66171   0.33653   0.00000  Uiso   1.00
N183   N     0.15682   0.92099   0.53385   0.00000  Uiso   1.00
N184   N     0.19577   0.62251   0.62950   0.00000  Uiso   1.00
C185   C     0.86551   0.34509   0.07876   0.00000  Uiso   1.00
C186   C     0.87252   0.31920   0.12155   0.00000  Uiso   1.00
C187   C     0.85239   0.26657   0.12318   0.00000  Uiso   1.00
C188   C     0.86317   0.25055   0.16563   0.00000  Uiso   1.00
C189   C     0.86953   0.20495   0.22607   0.00000  Uiso   1.00
C190   C     0.91593   0.34922   0.04417   0.00000  Uiso   1.00
C191   C     0.93229   0.32182   0.98072   0.00000  Uiso   1.00
C192   C     0.97962   0.33108   0.95804   0.00000  Uiso   1.00
C193   C     0.05336   0.33211   0.89832   0.00000  Uiso   1.00
C194   C     0.84575   0.41151   0.12026   0.00000  Uiso   1.00
C195   C     0.80312   0.43650   0.12079   0.00000  Uiso   1.00
C196   C     0.79136   0.49821   0.16216   0.00000  Uiso   1.00
C197   C     0.75614   0.59596   0.22059   0.00000  Uiso   1.00
C198   C     0.92046   0.41025   0.15128   0.00000  Uiso   1.00
C199   C     0.90236   0.35459   0.16094   0.00000  Uiso   1.00
C200   C     0.91318   0.33865   0.20341   0.00000  Uiso   1.00
C201   C     0.89307   0.28600   0.20510   0.00000  Uiso   1.00
C202   C     0.94577   0.38460   0.08355   0.00000  Uiso   1.00
C203   C     0.99308   0.39391   0.06096   0.00000  Uiso   1.00
C204   C     0.00952   0.36653   0.99750   0.00000  Uiso   1.00
C205   C     0.87560   0.44690   0.15965   0.00000  Uiso   1.00
C206   C     0.86391   0.50859   0.20102   0.00000  Uiso   1.00
C207   C     0.82126   0.53366   0.20162   0.00000  Uiso   1.00
H208   H     0.84228   0.31754   0.04809   0.00000  Uiso   1.00
H209   H     0.82930   0.23919   0.09268   0.00000  Uiso   1.00
H210   H     0.90919   0.29444   0.95025   0.00000  Uiso   1.00
H211   H     0.78003   0.40910   0.09030   0.00000  Uiso   1.00
H212   H     0.82808   0.16791   0.15947   0.00000  Uiso   1.00
H213   H     0.99653   0.28443   0.85915   0.00000  Uiso   1.00
H214   H     0.72417   0.52622   0.15446   0.00000  Uiso   1.00
H215   H     0.94370   0.43780   0.18195   0.00000  Uiso   1.00
H216   H     0.93628   0.36605   0.23389   0.00000  Uiso   1.00
H217   H     0.01617   0.42130   0.09145   0.00000  Uiso   1.00
H218   H     0.88701   0.53596   0.23150   0.00000  Uiso   1.00
H219   H     0.91491   0.27087   0.27408   0.00000  Uiso   1.00
H220   H     0.08336   0.38740   0.97375   0.00000  Uiso   1.00
H221   H     0.81100   0.62918   0.26907   0.00000  Uiso   1.00
O222   O     0.86479   0.17001   0.24851   0.00000  Uiso   1.00
O223   O     0.08579   0.32289   0.85450   0.00000  Uiso   1.00
O224   O     0.72847   0.64010   0.24194   0.00000  Uiso   1.00
N225   N     0.84952   0.20200   0.17932   0.00000  Uiso   1.00
N226   N     0.00702   0.31093   0.89854   0.00000  Uiso   1.00
N227   N     0.75239   0.53698   0.17462   0.00000  Uiso   1.00
N228   N     0.89625   0.25740   0.24099   0.00000  Uiso   1.00
N229   N     0.05374   0.36633   0.96021   0.00000  Uiso   1.00
N230   N     0.79912   0.59239   0.23629   0.00000  Uiso   1.00
C231   C     0.62177   0.85596   0.78785   0.00000  Uiso   1.00
C232   C     0.58486   0.88874   0.84854   0.00000  Uiso   1.00
C233   C     0.54386   0.86338   0.86838   0.00000  Uiso   1.00
C234   C     0.51466   0.90090   0.92533   0.00000  Uiso   1.00
C235   C     0.45562   0.94256   0.01414   0.00000  Uiso   1.00
C236   C     0.67033   0.85944   0.80471   0.00000  Uiso   1.00
C237   C     0.70120   0.80945   0.78768   0.00000  Uiso   1.00
C238   C     0.74395   0.82230   0.80772   0.00000  Uiso   1.00
C239   C     0.81763   0.81848   0.82843   0.00000  Uiso   1.00
C240   C     0.62453   0.89625   0.75544   0.00000  Uiso   1.00
C241   C     0.61691   0.87720   0.69698   0.00000  Uiso   1.00
C242   C     0.62112   0.92104   0.67554   0.00000  Uiso   1.00
C243   C     0.62369   0.97437   0.61976   0.00000  Uiso   1.00
C244   C     0.64280   0.96768   0.85371   0.00000  Uiso   1.00
C245   C     0.59628   0.94942   0.88432   0.00000  Uiso   1.00
C246   C     0.56714   0.98699   0.94125   0.00000  Uiso   1.00
C247   C     0.52610   0.96169   0.96117   0.00000  Uiso   1.00
C248   C     0.68175   0.92012   0.84048   0.00000  Uiso   1.00
C249   C     0.72447   0.93306   0.86055   0.00000  Uiso   1.00
C250   C     0.75540   0.88310   0.84356   0.00000  Uiso   1.00
C251   C     0.63596   0.95693   0.79122   0.00000  Uiso   1.00
C252   C     0.64018   0.00081   0.76985   0.00000  Uiso   1.00
C253   C     0.63257   0.98184   0.71138   0.00000  Uiso   1.00
H254   H     0.61287   0.80871   0.76000   0.00000  Uiso   1.00
H255   H     0.53503   0.81642   0.84069   0.00000  Uiso   1.00
H256   H     0.69235   0.76249   0.75999   0.00000  Uiso   1.00
H257   H     0.60807   0.83024   0.66931   0.00000  Uiso   1.00
H258   H     0.45378   0.85171   0.94592   0.00000  Uiso   1.00
H259   H     0.78550   0.73801   0.77576   0.00000  Uiso   1.00
H260   H     0.60778   0.88086   0.58454   0.00000  Uiso   1.00
H261   H     0.65170   0.01493   0.88157   0.00000  Uiso   1.00
H262   H     0.57599   0.03395   0.96892   0.00000  Uiso   1.00
H263   H     0.73330   0.98002   0.88823   0.00000  Uiso   1.00
H264   H     0.64902   0.04777   0.79755   0.00000  Uiso   1.00
H265   H     0.48702   0.02827   0.05001   0.00000  Uiso   1.00
H266   H     0.81874   0.91457   0.87984   0.00000  Uiso   1.00
H267   H     0.64102   0.05742   0.68863   0.00000  Uiso   1.00
O268   O     0.41991   0.94878   0.05325   0.00000  Uiso   1.00
O269   O     0.85511   0.79961   0.82998   0.00000  Uiso   1.00
O270   O     0.62194   0.98702   0.57912   0.00000  Uiso   1.00
N271   N     0.47199   0.89066   0.95843   0.00000  Uiso   1.00
N272   N     0.78212   0.78436   0.79934   0.00000  Uiso   1.00
N273   N     0.61598   0.91790   0.62056   0.00000  Uiso   1.00
N274   N     0.48988   0.98566   0.01443   0.00000  Uiso   1.00
N275   N     0.80001   0.87936   0.85534   0.00000  Uiso   1.00
N276   N     0.63387   0.01291   0.67657   0.00000  Uiso   1.00
C277   C     0.42798   0.98340   0.70961   0.00000  Uiso   1.00
C278   C     0.38017   0.00753   0.70886   0.00000  Uiso   1.00
C279   C     0.36479   0.06919   0.73560   0.00000  Uiso   1.00
C280   C     0.31990   0.08175   0.72983   0.00000  Uiso   1.00
C281   C     0.25001   0.12645   0.73342   0.00000  Uiso   1.00
C282   C     0.45270   0.94351   0.64248   0.00000  Uiso   1.00
C283   C     0.49831   0.95134   0.61340   0.00000  Uiso   1.00
C284   C     0.51448   0.91001   0.55175   0.00000  Uiso   1.00
C285   C     0.55721   0.85528   0.45228   0.00000  Uiso   1.00
C286   C     0.41516   0.93930   0.73789   0.00000  Uiso   1.00
C287   C     0.42921   0.94357   0.78902   0.00000  Uiso   1.00
C288   C     0.41377   0.89868   0.80769   0.00000  Uiso   1.00
C289   C     0.39821   0.83741   0.85636   0.00000  Uiso   1.00
C290   C     0.37560   0.89606   0.65182   0.00000  Uiso   1.00
C291   C     0.35172   0.96009   0.67747   0.00000  Uiso   1.00
C292   C     0.30684   0.97256   0.67166   0.00000  Uiso   1.00
C293   C     0.29140   0.03423   0.69839   0.00000  Uiso   1.00
C294   C     0.42426   0.89607   0.61109   0.00000  Uiso   1.00
C295   C     0.44036   0.85471   0.54946   0.00000  Uiso   1.00
C296   C     0.48598   0.86248   0.52030   0.00000  Uiso   1.00
C297   C     0.38671   0.89186   0.70650   0.00000  Uiso   1.00
C298   C     0.37125   0.84695   0.72509   0.00000  Uiso   1.00
C299   C     0.38527   0.85115   0.77624   0.00000  Uiso   1.00
H300   H     0.45013   0.02033   0.73404   0.00000  Uiso   1.00
H301   H     0.38682   0.10589   0.75988   0.00000  Uiso   1.00
H302   H     0.52032   0.98805   0.63770   0.00000  Uiso   1.00
H303   H     0.45122   0.98029   0.81330   0.00000  Uiso   1.00
H304   H     0.30410   0.17983   0.77467   0.00000  Uiso   1.00
H305   H     0.58560   0.93136   0.51705   0.00000  Uiso   1.00
H306   H     0.43989   0.91498   0.88733   0.00000  Uiso   1.00
H307   H     0.35345   0.85912   0.62738   0.00000  Uiso   1.00
H308   H     0.28483   0.93584   0.64737   0.00000  Uiso   1.00
H309   H     0.41833   0.81801   0.52519   0.00000  Uiso   1.00
H310   H     0.34924   0.81024   0.70078   0.00000  Uiso   1.00
H311   H     0.22132   0.04182   0.68335   0.00000  Uiso   1.00
H312   H     0.50282   0.79334   0.42573   0.00000  Uiso   1.00
H313   H     0.35711   0.77696   0.79601   0.00000  Uiso   1.00
O314   O     0.21933   0.16420   0.74406   0.00000  Uiso   1.00
O315   O     0.58864   0.83820   0.40609   0.00000  Uiso   1.00
O316   O     0.39748   0.81672   0.89188   0.00000  Uiso   1.00
N317   N     0.29403   0.13682   0.75044   0.00000  Uiso   1.00
N318   N     0.55721   0.90452   0.50958   0.00000  Uiso   1.00
N319   N     0.42100   0.88920   0.85575   0.00000  Uiso   1.00
N320   N     0.24949   0.06256   0.70130   0.00000  Uiso   1.00
N321   N     0.51267   0.83025   0.46045   0.00000  Uiso   1.00
N322   N     0.37646   0.81493   0.80661   0.00000  Uiso   1.00
C323   C     0.74202   0.24102   0.94401   0.00000  Uiso   1.00
C324   C     0.73472   0.20747   0.98355   0.00000  Uiso   1.00
C325   C     0.74662   0.22901   0.04017   0.00000  Uiso   1.00
C326   C     0.73709   0.19144   0.06908   0.00000  Uiso   1.00
C327   C     0.72888   0.14803   0.13456   0.00000  Uiso   1.00
C328   C     0.69258   0.24696   0.93301   0.00000  Uiso   1.00
C329   C     0.66905   0.30172   0.94712   0.00000  Uiso   1.00
C330   C     0.62404   0.29739   0.93348   0.00000  Uiso   1.00
C331   C     0.55043   0.31530   0.92045   0.00000  Uiso   1.00
C332   C     0.77265   0.19665   0.88168   0.00000  Uiso   1.00
C333   C     0.81644   0.20911   0.85262   0.00000  Uiso   1.00
C334   C     0.83885   0.16243   0.79575   0.00000  Uiso   1.00
C335   C     0.88955   0.10222   0.70302   0.00000  Uiso   1.00
C336   C     0.70393   0.13598   0.89469   0.00000  Uiso   1.00
C337   C     0.71403   0.15041   0.95676   0.00000  Uiso   1.00
C338   C     0.70448   0.11279   0.98560   0.00000  Uiso   1.00
C339   C     0.71636   0.13428   0.04224   0.00000  Uiso   1.00
C340   C     0.67189   0.18991   0.90622   0.00000  Uiso   1.00
C341   C     0.62691   0.18550   0.89255   0.00000  Uiso   1.00
C342   C     0.60332   0.24023   0.90664   0.00000  Uiso   1.00
C343   C     0.75196   0.13960   0.85489   0.00000  Uiso   1.00
C344   C     0.77430   0.09289   0.79805   0.00000  Uiso   1.00
C345   C     0.81812   0.10527   0.76891   0.00000  Uiso   1.00
H346   H     0.75812   0.28544   0.96487   0.00000  Uiso   1.00
H347   H     0.76263   0.27317   0.06089   0.00000  Uiso   1.00
H348   H     0.68507   0.34587   0.96785   0.00000  Uiso   1.00
H349   H     0.83244   0.25327   0.87336   0.00000  Uiso   1.00
H350   H     0.75848   0.23442   0.15553   0.00000  Uiso   1.00
H351   H     0.59496   0.38769   0.95934   0.00000  Uiso   1.00
H352   H     0.90572   0.19244   0.76009   0.00000  Uiso   1.00
H353   H     0.68782   0.09156   0.87383   0.00000  Uiso   1.00
H354   H     0.68847   0.06864   0.96485   0.00000  Uiso   1.00
H355   H     0.61091   0.14134   0.87182   0.00000  Uiso   1.00
H356   H     0.75828   0.04874   0.77733   0.00000  Uiso   1.00
H357   H     0.69829   0.06841   0.07759   0.00000  Uiso   1.00
H358   H     0.53477   0.22169   0.88139   0.00000  Uiso   1.00
H359   H     0.84552   0.02644   0.68215   0.00000  Uiso   1.00
O360   O     0.73006   0.13985   0.17809   0.00000  Uiso   1.00
O361   O     0.51553   0.34094   0.92068   0.00000  Uiso   1.00
O362   O     0.92324   0.08477   0.65928   0.00000  Uiso   1.00
N363   N     0.74423   0.19849   0.12469   0.00000  Uiso   1.00
N364   N     0.59135   0.34179   0.94127   0.00000  Uiso   1.00
N365   N     0.88187   0.15925   0.75499   0.00000  Uiso   1.00
N366   N     0.71184   0.10916   0.08275   0.00000  Uiso   1.00
N367   N     0.55896   0.25247   0.89933   0.00000  Uiso   1.00
N368   N     0.84949   0.06993   0.71304   0.00000  Uiso   1.00
C369   C     0.11783   0.53281   0.28756   0.00000  Uiso   1.00
C370   C     0.14784   0.49393   0.22286   0.00000  Uiso   1.00
C371   C     0.19747   0.49440   0.20407   0.00000  Uiso   1.00
C372   C     0.21817   0.45544   0.14294   0.00000  Uiso   1.00
C373   C     0.26903   0.40082   0.04870   0.00000  Uiso   1.00
C374   C     0.09036   0.48730   0.30765   0.00000  Uiso   1.00
C375   C     0.09166   0.48221   0.36016   0.00000  Uiso   1.00
C376   C     0.06395   0.43768   0.37040   0.00000  Uiso   1.00
C377   C     0.02555   0.37282   0.40782   0.00000  Uiso   1.00
C378   C     0.07998   0.56920   0.28065   0.00000  Uiso   1.00
C379   C     0.07255   0.63298   0.31046   0.00000  Uiso   1.00
C380   C     0.03611   0.65740   0.29798   0.00000  Uiso   1.00
C381   C     0.98159   0.71970   0.29348   0.00000  Uiso   1.00
C382   C     0.06632   0.46278   0.21239   0.00000  Uiso   1.00
C383   C     0.11986   0.45588   0.18203   0.00000  Uiso   1.00
C384   C     0.14048   0.41691   0.12091   0.00000  Uiso   1.00
C385   C     0.19014   0.41733   0.10203   0.00000  Uiso   1.00
C386   C     0.06238   0.44926   0.26682   0.00000  Uiso   1.00
C387   C     0.03467   0.40473   0.27699   0.00000  Uiso   1.00
C388   C     0.03593   0.39957   0.32949   0.00000  Uiso   1.00
C389   C     0.05200   0.53116   0.23982   0.00000  Uiso   1.00
C390   C     0.01556   0.55549   0.22729   0.00000  Uiso   1.00
C391   C     0.00808   0.61929   0.25708   0.00000  Uiso   1.00
H392   H     0.13961   0.56242   0.31935   0.00000  Uiso   1.00
H393   H     0.21912   0.52384   0.23569   0.00000  Uiso   1.00
H394   H     0.11331   0.51166   0.39175   0.00000  Uiso   1.00
H395   H     0.09421   0.66240   0.34206   0.00000  Uiso   1.00
H396   H     0.29493   0.46427   0.12494   0.00000  Uiso   1.00
H397   H     0.07181   0.43861   0.45401   0.00000  Uiso   1.00
H398   H     0.03154   0.75647   0.34923   0.00000  Uiso   1.00
H399   H     0.04453   0.43316   0.18060   0.00000  Uiso   1.00
H400   H     0.11882   0.38748   0.08932   0.00000  Uiso   1.00
H401   H     0.01302   0.37530   0.24538   0.00000  Uiso   1.00
H402   H     0.99392   0.52604   0.19569   0.00000  Uiso   1.00
H403   H     0.21353   0.35359   0.00614   0.00000  Uiso   1.00
H404   H     0.99041   0.32793   0.33521   0.00000  Uiso   1.00
H405   H     0.95014   0.64579   0.23043   0.00000  Uiso   1.00
O406   O     0.30482   0.38120   0.00800   0.00000  Uiso   1.00
O407   O     0.01209   0.34754   0.43974   0.00000  Uiso   1.00
O408   O     0.95925   0.76457   0.30226   0.00000  Uiso   1.00
N409   N     0.26557   0.44450   0.10950   0.00000  Uiso   1.00
N410   N     0.05698   0.42050   0.41716   0.00000  Uiso   1.00
N411   N     0.01932   0.71767   0.31921   0.00000  Uiso   1.00
N412   N     0.22177   0.38495   0.04558   0.00000  Uiso   1.00
N413   N     0.01318   0.36095   0.35323   0.00000  Uiso   1.00
N414   N     0.97552   0.65812   0.25529   0.00000  Uiso   1.00
C415   C     0.90650   0.11634   0.52194   0.00000  Uiso   1.00
C416   C     0.85362   0.10989   0.54703   0.00000  Uiso   1.00
C417   C     0.82958   0.13832   0.60846   0.00000  Uiso   1.00
C418   C     0.78124   0.12654   0.62203   0.00000  Uiso   1.00
C419   C     0.70270   0.12241   0.66803   0.00000  Uiso   1.00
C420   C     0.92932   0.05090   0.48589   0.00000  Uiso   1.00
C421   C     0.96894   0.02972   0.49589   0.00000  Uiso   1.00
C422   C     0.98433   0.96828   0.45798   0.00000  Uiso   1.00
C423   C     0.02335   0.87257   0.40902   0.00000  Uiso   1.00
C424   C     0.90700   0.13924   0.47456   0.00000  Uiso   1.00
C425   C     0.92787   0.19234   0.47503   0.00000  Uiso   1.00
C426   C     0.92447   0.20528   0.42757   0.00000  Uiso   1.00
C427   C     0.92883   0.24674   0.36102   0.00000  Uiso   1.00
C428   C     0.86338   0.04487   0.43681   0.00000  Uiso   1.00
C429   C     0.83020   0.07108   0.50079   0.00000  Uiso   1.00
C430   C     0.78188   0.05925   0.51427   0.00000  Uiso   1.00
C431   C     0.75777   0.08766   0.57570   0.00000  Uiso   1.00
C432   C     0.90590   0.01208   0.43965   0.00000  Uiso   1.00
C433   C     0.92124   0.95066   0.40171   0.00000  Uiso   1.00
C434   C     0.96087   0.92939   0.41166   0.00000  Uiso   1.00
C435   C     0.88358   0.10043   0.42832   0.00000  Uiso   1.00
C436   C     0.88016   0.11328   0.38084   0.00000  Uiso   1.00
C437   C     0.90101   0.16639   0.38124   0.00000  Uiso   1.00
H438   H     0.92473   0.14655   0.55794   0.00000  Uiso   1.00
H439   H     0.84772   0.16835   0.64423   0.00000  Uiso   1.00
H440   H     0.98706   0.05977   0.53168   0.00000  Uiso   1.00
H441   H     0.94599   0.22237   0.51082   0.00000  Uiso   1.00
H442   H     0.75202   0.17538   0.71951   0.00000  Uiso   1.00
H443   H     0.04584   0.94644   0.48218   0.00000  Uiso   1.00
H444   H     0.95922   0.28931   0.43819   0.00000  Uiso   1.00
H445   H     0.84514   0.01465   0.40081   0.00000  Uiso   1.00
H446   H     0.76376   0.02921   0.47848   0.00000  Uiso   1.00
H447   H     0.90311   0.92063   0.36593   0.00000  Uiso   1.00
H448   H     0.86203   0.08323   0.34507   0.00000  Uiso   1.00
H449   H     0.68387   0.06245   0.58498   0.00000  Uiso   1.00
H450   H     0.97770   0.83351   0.34765   0.00000  Uiso   1.00
H451   H     0.89108   0.17638   0.30366   0.00000  Uiso   1.00
O452   O     0.66585   0.13085   0.70618   0.00000  Uiso   1.00
O453   O     0.05134   0.83051   0.39480   0.00000  Uiso   1.00
O454   O     0.93770   0.28034   0.33709   0.00000  Uiso   1.00
N455   N     0.74714   0.14681   0.67719   0.00000  Uiso   1.00
N456   N     0.02185   0.93277   0.45530   0.00000  Uiso   1.00
N457   N     0.94088   0.25331   0.41417   0.00000  Uiso   1.00
N458   N     0.71048   0.08605   0.60480   0.00000  Uiso   1.00
N459   N     0.98518   0.87200   0.38291   0.00000  Uiso   1.00
N460   N     0.90421   0.19255   0.34178   0.00000  Uiso   1.00
C461   C     0.18076   0.54088   0.94779   0.00000  Uiso   1.00
C462   C     0.18261   0.55805   0.89608   0.00000  Uiso   1.00
C463   C     0.20712   0.60645   0.88979   0.00000  Uiso   1.00
C464   C     0.20436   0.61454   0.83930   0.00000  Uiso   1.00
C465   C     0.21121   0.64715   0.76552   0.00000  Uiso   1.00
C466   C     0.12747   0.54199   0.97686   0.00000  Uiso   1.00
C467   C     0.10563   0.57688   0.03849   0.00000  Uiso   1.00
C468   C     0.05646   0.57145   0.05600   0.00000  Uiso   1.00
C469   C     0.97772   0.57910   0.10764   0.00000  Uiso   1.00
C470   C     0.19898   0.47347   0.91664   0.00000  Uiso   1.00
C471   C     0.23725   0.45075   0.92763   0.00000  Uiso   1.00
C472   C     0.24828   0.38763   0.89445   0.00000  Uiso   1.00
C473   C     0.28057   0.28889   0.85257   0.00000  Uiso   1.00
C474   C     0.13228   0.46920   0.86930   0.00000  Uiso   1.00
C475   C     0.15627   0.51911   0.85346   0.00000  Uiso   1.00
C476   C     0.15348   0.52714   0.80296   0.00000  Uiso   1.00
C477   C     0.17798   0.57554   0.79659   0.00000  Uiso   1.00
C478   C     0.10114   0.50306   0.93424   0.00000  Uiso   1.00
C479   C     0.05199   0.49757   0.95166   0.00000  Uiso   1.00
C480   C     0.03008   0.53245   0.01329   0.00000  Uiso   1.00
C481   C     0.17265   0.43454   0.87401   0.00000  Uiso   1.00
C482   C     0.18362   0.37144   0.84080   0.00000  Uiso   1.00
C483   C     0.22190   0.34862   0.85174   0.00000  Uiso   1.00
H484   H     0.20126   0.57119   0.98098   0.00000  Uiso   1.00
H485   H     0.22749   0.63657   0.92279   0.00000  Uiso   1.00
H486   H     0.12602   0.60700   0.07147   0.00000  Uiso   1.00
H487   H     0.25762   0.48089   0.96063   0.00000  Uiso   1.00
H488   H     0.24494   0.69190   0.83950   0.00000  Uiso   1.00
H489   H     0.03098   0.62954   0.15299   0.00000  Uiso   1.00
H490   H     0.30850   0.36361   0.91926   0.00000  Uiso   1.00
H491   H     0.11178   0.43888   0.83612   0.00000  Uiso   1.00
H492   H     0.13310   0.49700   0.76998   0.00000  Uiso   1.00
H493   H     0.03163   0.46744   0.91866   0.00000  Uiso   1.00
H494   H     0.16323   0.34132   0.80781   0.00000  Uiso   1.00
H495   H     0.16833   0.57862   0.71547   0.00000  Uiso   1.00
H496   H     0.95437   0.51626   0.02897   0.00000  Uiso   1.00
H497   H     0.23189   0.25033   0.79523   0.00000  Uiso   1.00
O498   O     0.22226   0.67589   0.73660   0.00000  Uiso   1.00
O499   O     0.94156   0.59407   0.14790   0.00000  Uiso   1.00
O500   O     0.30565   0.24518   0.84125   0.00000  Uiso   1.00
N501   N     0.22399   0.65725   0.81938   0.00000  Uiso   1.00
N502   N     0.02395   0.59896   0.11248   0.00000  Uiso   1.00
N503   N     0.28340   0.35033   0.89397   0.00000  Uiso   1.00
N504   N     0.18277   0.59630   0.75264   0.00000  Uiso   1.00
N505   N     0.98273   0.53801   0.04574   0.00000  Uiso   1.00
N506   N     0.24217   0.28938   0.82723   0.00000  Uiso   1.00
C507   C     0.69635   0.70779   0.10461   0.00000  Uiso   1.00
C508   C     0.73080   0.65164   0.07919   0.00000  Uiso   1.00
C509   C     0.77851   0.65310   0.08364   0.00000  Uiso   1.00
C510   C     0.80400   0.59671   0.05739   0.00000  Uiso   1.00
C511   C     0.86076   0.51801   0.02240   0.00000  Uiso   1.00
C512   C     0.67824   0.70336   0.05017   0.00000  Uiso   1.00
C513   C     0.68175   0.74830   0.03024   0.00000  Uiso   1.00
C514   C     0.66299   0.73544   0.97957   0.00000  Uiso   1.00
C515   C     0.63813   0.73706   0.89956   0.00000  Uiso   1.00
C516   C     0.65290   0.69797   0.14707   0.00000  Uiso   1.00
C517   C     0.63509   0.73839   0.20862   0.00000  Uiso   1.00
C518   C     0.59499   0.72100   0.23953   0.00000  Uiso   1.00
C519   C     0.53077   0.71424   0.30997   0.00000  Uiso   1.00
C520   C     0.65678   0.60505   0.05006   0.00000  Uiso   1.00
C521   C     0.70931   0.59584   0.04956   0.00000  Uiso   1.00
C522   C     0.73473   0.53943   0.02329   0.00000  Uiso   1.00
C523   C     0.78247   0.54080   0.02771   0.00000  Uiso   1.00
C524   C     0.65675   0.64756   0.02055   0.00000  Uiso   1.00
C525   C     0.63797   0.63463   0.96989   0.00000  Uiso   1.00
C526   C     0.64146   0.67954   0.94989   0.00000  Uiso   1.00
C527   C     0.63141   0.64216   0.11745   0.00000  Uiso   1.00
C528   C     0.59132   0.62471   0.14827   0.00000  Uiso   1.00
C529   C     0.57345   0.66509   0.20984   0.00000  Uiso   1.00
H530   H     0.71308   0.75124   0.12767   0.00000  Uiso   1.00
H531   H     0.79513   0.69630   0.10657   0.00000  Uiso   1.00
H532   H     0.69838   0.79149   0.05318   0.00000  Uiso   1.00
H533   H     0.65173   0.78157   0.23153   0.00000  Uiso   1.00
H534   H     0.87662   0.61078   0.07009   0.00000  Uiso   1.00
H535   H     0.67261   0.81149   0.95753   0.00000  Uiso   1.00
H536   H     0.57424   0.79058   0.33361   0.00000  Uiso   1.00
H537   H     0.64005   0.56160   0.02699   0.00000  Uiso   1.00
H538   H     0.71809   0.49625   0.00037   0.00000  Uiso   1.00
H539   H     0.62134   0.59144   0.94698   0.00000  Uiso   1.00
H540   H     0.57469   0.58152   0.12533   0.00000  Uiso   1.00
H541   H     0.81409   0.44841   0.98389   0.00000  Uiso   1.00
H542   H     0.61008   0.64913   0.87133   0.00000  Uiso   1.00
H543   H     0.51171   0.62821   0.24741   0.00000  Uiso   1.00
O544   O     0.89801   0.49002   0.01127   0.00000  Uiso   1.00
O545   O     0.63036   0.75336   0.86361   0.00000  Uiso   1.00
O546   O     0.50130   0.72592   0.35702   0.00000  Uiso   1.00
N547   N     0.85119   0.58153   0.05347   0.00000  Uiso   1.00
N548   N     0.66046   0.76919   0.94823   0.00000  Uiso   1.00
N549   N     0.56848   0.74964   0.29982   0.00000  Uiso   1.00
N550   N     0.81754   0.49416   0.00709   0.00000  Uiso   1.00
N551   N     0.62682   0.68182   0.90184   0.00000  Uiso   1.00
N552   N     0.53484   0.66227   0.25344   0.00000  Uiso   1.00
