data_job_03743
_audit_creation_date              2018-12-19
_audit_creation_method            'Materials Studio'
_symmetry_space_group_name_H-M    'P1'
_symmetry_Int_Tables_number       1
_symmetry_cell_setting            triclinic
loop_
_symmetry_equiv_pos_as_xyz
  x,y,z
_cell_length_a                    23.3643
_cell_length_b                    7.7163
_cell_length_c                    41.8332
_cell_angle_alpha                 90.0000
_cell_angle_beta                  139.8543
_cell_angle_gamma                 90.0000
loop_
_atom_site_label
_atom_site_type_symbol
_atom_site_fract_x
_atom_site_fract_y
_atom_site_fract_z
_atom_site_U_iso_or_equiv
_atom_site_adp_type
_atom_site_occupancy
C1     C     0.91188   0.64103   0.61823   0.00000  Uiso   1.00
C2     C     0.84119   0.53216   0.60471   0.00000  Uiso   1.00
C3     C     0.75410   0.58228   0.57315   0.00000  Uiso   1.00
C4     C     0.69978   0.46409   0.56556   0.00000  Uiso   1.00
C5     C     0.58521   0.31979   0.54107   0.00000  Uiso   1.00
C6     C     0.98921   0.65405   0.67465   0.00000  Uiso   1.00
C7     C     0.02657   0.80666   0.70188   0.00000  Uiso   1.00
C8     C     0.09685   0.79107   0.75316   0.00000  Uiso   1.00
C9     C     0.21211   0.83601   0.83724   0.00000  Uiso   1.00
C10    C     0.94527   0.53195   0.60457   0.00000  Uiso   1.00
C11    C     0.94571   0.58191   0.57289   0.00000  Uiso   1.00
C12    C     0.97903   0.46353   0.56518   0.00000  Uiso   1.00
C13    C     0.02607   0.31889   0.54045   0.00000  Uiso   1.00
C14    C     0.97028   0.34200   0.66088   0.00000  Uiso   1.00
C15    C     0.87292   0.36975   0.62788   0.00000  Uiso   1.00
C16    C     0.81871   0.25144   0.62034   0.00000  Uiso   1.00
C17    C     0.73155   0.30137   0.58877   0.00000  Uiso   1.00
C18    C     0.02093   0.49164   0.69781   0.00000  Uiso   1.00
C19    C     0.09117   0.47582   0.74907   0.00000  Uiso   1.00
C20    C     0.12863   0.62836   0.77638   0.00000  Uiso   1.00
C21    C     0.97699   0.36953   0.62773   0.00000  Uiso   1.00
C22    C     0.01031   0.25106   0.62008   0.00000  Uiso   1.00
C23    C     0.01080   0.30082   0.58839   0.00000  Uiso   1.00
H24    H     0.88720   0.76748   0.60020   0.00000  Uiso   1.00
H25    H     0.72959   0.70800   0.55523   0.00000  Uiso   1.00
H26    H     0.00202   0.93233   0.68394   0.00000  Uiso   1.00
H27    H     0.92116   0.70761   0.55496   0.00000  Uiso   1.00
H28    H     0.56884   0.57044   0.51561   0.00000  Uiso   1.00
H29    H     0.14329   0.04346   0.78700   0.00000  Uiso   1.00
H30    H     0.97281   0.56960   0.51503   0.00000  Uiso   1.00
H31    H     0.99497   0.21555   0.67892   0.00000  Uiso   1.00
H32    H     0.84327   0.12576   0.63828   0.00000  Uiso   1.00
H33    H     0.11570   0.35011   0.76699   0.00000  Uiso   1.00
H34    H     0.03485   0.12538   0.63801   0.00000  Uiso   1.00
H35    H     0.66112   0.09788   0.58301   0.00000  Uiso   1.00
H36    H     0.23557   0.57091   0.85441   0.00000  Uiso   1.00
H37    H     0.06508   0.09704   0.58244   0.00000  Uiso   1.00
O38    O     0.51325   0.28508   0.52117   0.00000  Uiso   1.00
O39    O     0.26692   0.90567   0.87722   0.00000  Uiso   1.00
O40    O     0.04324   0.28397   0.52040   0.00000  Uiso   1.00
N41    N     0.61137   0.47153   0.53704   0.00000  Uiso   1.00
N42    N     0.14844   0.91378   0.79078   0.00000  Uiso   1.00
N43    N     0.98907   0.47077   0.53652   0.00000  Uiso   1.00
N44    N     0.66103   0.21725   0.57331   0.00000  Uiso   1.00
N45    N     0.19809   0.65950   0.82705   0.00000  Uiso   1.00
N46    N     0.03873   0.21649   0.57279   0.00000  Uiso   1.00
C47    C     0.08812   0.64103   0.88177   0.00000  Uiso   1.00
C48    C     0.15881   0.53216   0.89529   0.00000  Uiso   1.00
C49    C     0.24590   0.58228   0.92685   0.00000  Uiso   1.00
C50    C     0.30022   0.46409   0.93444   0.00000  Uiso   1.00
C51    C     0.41479   0.31979   0.95893   0.00000  Uiso   1.00
C52    C     0.01079   0.65405   0.82535   0.00000  Uiso   1.00
C53    C     0.97343   0.80666   0.79812   0.00000  Uiso   1.00
C54    C     0.90315   0.79107   0.74684   0.00000  Uiso   1.00
C55    C     0.78789   0.83601   0.66276   0.00000  Uiso   1.00
C56    C     0.05473   0.53195   0.89543   0.00000  Uiso   1.00
C57    C     0.05429   0.58191   0.92711   0.00000  Uiso   1.00
C58    C     0.02097   0.46353   0.93482   0.00000  Uiso   1.00
C59    C     0.97393   0.31889   0.95955   0.00000  Uiso   1.00
C60    C     0.02972   0.34200   0.83912   0.00000  Uiso   1.00
C61    C     0.12708   0.36975   0.87212   0.00000  Uiso   1.00
C62    C     0.18129   0.25144   0.87966   0.00000  Uiso   1.00
C63    C     0.26845   0.30137   0.91123   0.00000  Uiso   1.00
C64    C     0.97907   0.49164   0.80219   0.00000  Uiso   1.00
C65    C     0.90883   0.47582   0.75093   0.00000  Uiso   1.00
C66    C     0.87137   0.62836   0.72362   0.00000  Uiso   1.00
C67    C     0.02301   0.36953   0.87227   0.00000  Uiso   1.00
C68    C     0.98969   0.25106   0.87992   0.00000  Uiso   1.00
C69    C     0.98920   0.30082   0.91161   0.00000  Uiso   1.00
H70    H     0.11280   0.76748   0.89980   0.00000  Uiso   1.00
H71    H     0.27041   0.70800   0.94477   0.00000  Uiso   1.00
H72    H     0.99798   0.93233   0.81606   0.00000  Uiso   1.00
H73    H     0.07884   0.70761   0.94504   0.00000  Uiso   1.00
H74    H     0.43116   0.57044   0.98439   0.00000  Uiso   1.00
H75    H     0.85671   0.04346   0.71300   0.00000  Uiso   1.00
H76    H     0.02719   0.56960   0.98497   0.00000  Uiso   1.00
H77    H     0.00503   0.21555   0.82108   0.00000  Uiso   1.00
H78    H     0.15673   0.12576   0.86172   0.00000  Uiso   1.00
H79    H     0.88430   0.35011   0.73301   0.00000  Uiso   1.00
H80    H     0.96515   0.12538   0.86199   0.00000  Uiso   1.00
H81    H     0.33888   0.09788   0.91699   0.00000  Uiso   1.00
H82    H     0.76443   0.57091   0.64559   0.00000  Uiso   1.00
H83    H     0.93492   0.09704   0.91756   0.00000  Uiso   1.00
O84    O     0.48675   0.28508   0.97883   0.00000  Uiso   1.00
O85    O     0.73308   0.90567   0.62278   0.00000  Uiso   1.00
O86    O     0.95676   0.28397   0.97960   0.00000  Uiso   1.00
N87    N     0.38863   0.47153   0.96296   0.00000  Uiso   1.00
N88    N     0.85156   0.91378   0.70922   0.00000  Uiso   1.00
N89    N     0.01093   0.47077   0.96348   0.00000  Uiso   1.00
N90    N     0.33897   0.21725   0.92669   0.00000  Uiso   1.00
N91    N     0.80191   0.65950   0.67295   0.00000  Uiso   1.00
N92    N     0.96127   0.21649   0.92721   0.00000  Uiso   1.00
C93    C     0.08812   0.35897   0.38177   0.00000  Uiso   1.00
C94    C     0.15881   0.46784   0.39529   0.00000  Uiso   1.00
C95    C     0.24590   0.41772   0.42685   0.00000  Uiso   1.00
C96    C     0.30022   0.53591   0.43444   0.00000  Uiso   1.00
C97    C     0.41479   0.68021   0.45893   0.00000  Uiso   1.00
C98    C     0.01079   0.34595   0.32535   0.00000  Uiso   1.00
C99    C     0.97343   0.19334   0.29812   0.00000  Uiso   1.00
C100   C     0.90315   0.20893   0.24684   0.00000  Uiso   1.00
C101   C     0.78789   0.16399   0.16276   0.00000  Uiso   1.00
C102   C     0.05473   0.46805   0.39543   0.00000  Uiso   1.00
C103   C     0.05429   0.41809   0.42711   0.00000  Uiso   1.00
C104   C     0.02097   0.53647   0.43482   0.00000  Uiso   1.00
C105   C     0.97393   0.68111   0.45955   0.00000  Uiso   1.00
C106   C     0.02972   0.65800   0.33912   0.00000  Uiso   1.00
C107   C     0.12708   0.63025   0.37212   0.00000  Uiso   1.00
C108   C     0.18129   0.74856   0.37966   0.00000  Uiso   1.00
C109   C     0.26845   0.69863   0.41123   0.00000  Uiso   1.00
C110   C     0.97907   0.50836   0.30219   0.00000  Uiso   1.00
C111   C     0.90883   0.52418   0.25093   0.00000  Uiso   1.00
C112   C     0.87137   0.37164   0.22362   0.00000  Uiso   1.00
C113   C     0.02301   0.63047   0.37227   0.00000  Uiso   1.00
C114   C     0.98969   0.74894   0.37992   0.00000  Uiso   1.00
C115   C     0.98920   0.69918   0.41161   0.00000  Uiso   1.00
H116   H     0.11280   0.23252   0.39980   0.00000  Uiso   1.00
H117   H     0.27041   0.29200   0.44477   0.00000  Uiso   1.00
H118   H     0.99798   0.06767   0.31606   0.00000  Uiso   1.00
H119   H     0.07884   0.29239   0.44504   0.00000  Uiso   1.00
H120   H     0.43116   0.42956   0.48439   0.00000  Uiso   1.00
H121   H     0.85671   0.95654   0.21300   0.00000  Uiso   1.00
H122   H     0.02719   0.43040   0.48497   0.00000  Uiso   1.00
H123   H     0.00503   0.78445   0.32108   0.00000  Uiso   1.00
H124   H     0.15673   0.87424   0.36172   0.00000  Uiso   1.00
H125   H     0.88430   0.64989   0.23301   0.00000  Uiso   1.00
H126   H     0.96515   0.87462   0.36199   0.00000  Uiso   1.00
H127   H     0.33888   0.90212   0.41699   0.00000  Uiso   1.00
H128   H     0.76443   0.42909   0.14559   0.00000  Uiso   1.00
H129   H     0.93492   0.90296   0.41756   0.00000  Uiso   1.00
O130   O     0.48675   0.71492   0.47883   0.00000  Uiso   1.00
O131   O     0.73308   0.09433   0.12278   0.00000  Uiso   1.00
O132   O     0.95676   0.71603   0.47960   0.00000  Uiso   1.00
N133   N     0.38863   0.52847   0.46296   0.00000  Uiso   1.00
N134   N     0.85156   0.08622   0.20922   0.00000  Uiso   1.00
N135   N     0.01093   0.52923   0.46348   0.00000  Uiso   1.00
N136   N     0.33897   0.78275   0.42669   0.00000  Uiso   1.00
N137   N     0.80191   0.34050   0.17295   0.00000  Uiso   1.00
N138   N     0.96127   0.78351   0.42721   0.00000  Uiso   1.00
C139   C     0.91188   0.35897   0.11823   0.00000  Uiso   1.00
C140   C     0.84119   0.46784   0.10471   0.00000  Uiso   1.00
C141   C     0.75410   0.41772   0.07315   0.00000  Uiso   1.00
C142   C     0.69978   0.53591   0.06556   0.00000  Uiso   1.00
C143   C     0.58521   0.68021   0.04107   0.00000  Uiso   1.00
C144   C     0.98921   0.34595   0.17465   0.00000  Uiso   1.00
C145   C     0.02657   0.19334   0.20188   0.00000  Uiso   1.00
C146   C     0.09685   0.20893   0.25316   0.00000  Uiso   1.00
C147   C     0.21211   0.16399   0.33724   0.00000  Uiso   1.00
C148   C     0.94527   0.46805   0.10457   0.00000  Uiso   1.00
C149   C     0.94571   0.41809   0.07289   0.00000  Uiso   1.00
C150   C     0.97903   0.53647   0.06518   0.00000  Uiso   1.00
C151   C     0.02607   0.68111   0.04045   0.00000  Uiso   1.00
C152   C     0.97028   0.65800   0.16088   0.00000  Uiso   1.00
C153   C     0.87292   0.63025   0.12788   0.00000  Uiso   1.00
C154   C     0.81871   0.74856   0.12034   0.00000  Uiso   1.00
C155   C     0.73155   0.69863   0.08877   0.00000  Uiso   1.00
C156   C     0.02093   0.50836   0.19781   0.00000  Uiso   1.00
C157   C     0.09117   0.52418   0.24907   0.00000  Uiso   1.00
C158   C     0.12863   0.37164   0.27638   0.00000  Uiso   1.00
C159   C     0.97699   0.63047   0.12773   0.00000  Uiso   1.00
C160   C     0.01031   0.74894   0.12008   0.00000  Uiso   1.00
C161   C     0.01080   0.69918   0.08839   0.00000  Uiso   1.00
H162   H     0.88720   0.23252   0.10020   0.00000  Uiso   1.00
H163   H     0.72959   0.29200   0.05523   0.00000  Uiso   1.00
H164   H     0.00202   0.06767   0.18394   0.00000  Uiso   1.00
H165   H     0.92116   0.29239   0.05496   0.00000  Uiso   1.00
H166   H     0.56884   0.42956   0.01561   0.00000  Uiso   1.00
H167   H     0.14329   0.95654   0.28700   0.00000  Uiso   1.00
H168   H     0.97281   0.43040   0.01503   0.00000  Uiso   1.00
H169   H     0.99497   0.78445   0.17892   0.00000  Uiso   1.00
H170   H     0.84327   0.87424   0.13828   0.00000  Uiso   1.00
H171   H     0.11570   0.64989   0.26699   0.00000  Uiso   1.00
H172   H     0.03485   0.87462   0.13801   0.00000  Uiso   1.00
H173   H     0.66112   0.90212   0.08301   0.00000  Uiso   1.00
H174   H     0.23557   0.42909   0.35441   0.00000  Uiso   1.00
H175   H     0.06508   0.90296   0.08244   0.00000  Uiso   1.00
O176   O     0.51325   0.71492   0.02117   0.00000  Uiso   1.00
O177   O     0.26692   0.09433   0.37722   0.00000  Uiso   1.00
O178   O     0.04324   0.71603   0.02040   0.00000  Uiso   1.00
N179   N     0.61137   0.52847   0.03704   0.00000  Uiso   1.00
N180   N     0.14844   0.08622   0.29078   0.00000  Uiso   1.00
N181   N     0.98907   0.52923   0.03652   0.00000  Uiso   1.00
N182   N     0.66103   0.78275   0.07331   0.00000  Uiso   1.00
N183   N     0.19809   0.34050   0.32705   0.00000  Uiso   1.00
N184   N     0.03873   0.78351   0.07279   0.00000  Uiso   1.00
