data_job_03419
_audit_creation_date              2018-12-19
_audit_creation_method            'Materials Studio'
_symmetry_space_group_name_H-M    'P1'
_symmetry_Int_Tables_number       1
_symmetry_cell_setting            triclinic
loop_
_symmetry_equiv_pos_as_xyz
  x,y,z
_cell_length_a                    12.0113
_cell_length_b                    12.8251
_cell_length_c                    14.1032
_cell_angle_alpha                 106.5031
_cell_angle_beta                  99.8998
_cell_angle_gamma                 102.5281
loop_
_atom_site_label
_atom_site_type_symbol
_atom_site_fract_x
_atom_site_fract_y
_atom_site_fract_z
_atom_site_U_iso_or_equiv
_atom_site_adp_type
_atom_site_occupancy
C1     C     0.55881   0.22447   0.37876   0.00000  Uiso   1.00
C2     C     0.57264   0.12598   0.29517   0.00000  Uiso   1.00
C3     C     0.66951   0.08339   0.29841   0.00000  Uiso   1.00
C4     C     0.66519   0.99294   0.21425   0.00000  Uiso   1.00
C5     C     0.70156   0.84705   0.09726   0.00000  Uiso   1.00
C6     C     0.53516   0.31062   0.32814   0.00000  Uiso   1.00
C7     C     0.60052   0.42328   0.35912   0.00000  Uiso   1.00
C8     C     0.56464   0.48827   0.30272   0.00000  Uiso   1.00
C9     C     0.54278   0.62906   0.23697   0.00000  Uiso   1.00
C10    C     0.44531   0.17865   0.40658   0.00000  Uiso   1.00
C11    C     0.43510   0.18037   0.50351   0.00000  Uiso   1.00
C12    C     0.32355   0.13427   0.51315   0.00000  Uiso   1.00
C13    C     0.16218   0.07016   0.56919   0.00000  Uiso   1.00
C14    C     0.37886   0.13957   0.22353   0.00000  Uiso   1.00
C15    C     0.47490   0.07987   0.21085   0.00000  Uiso   1.00
C16    C     0.47042   0.98945   0.12666   0.00000  Uiso   1.00
C17    C     0.56727   0.94674   0.12978   0.00000  Uiso   1.00
C18    C     0.43743   0.26451   0.24383   0.00000  Uiso   1.00
C19    C     0.40143   0.32935   0.18737   0.00000  Uiso   1.00
C20    C     0.46672   0.44207   0.21825   0.00000  Uiso   1.00
C21    C     0.34757   0.13253   0.32226   0.00000  Uiso   1.00
C22    C     0.23601   0.08643   0.33176   0.00000  Uiso   1.00
C23    C     0.22564   0.08808   0.42869   0.00000  Uiso   1.00
H24    H     0.63490   0.26038   0.44440   0.00000  Uiso   1.00
H25    H     0.74514   0.11911   0.36367   0.00000  Uiso   1.00
H26    H     0.67614   0.45895   0.42437   0.00000  Uiso   1.00
H27    H     0.51075   0.21606   0.56874   0.00000  Uiso   1.00
H28    H     0.82427   0.94217   0.23697   0.00000  Uiso   1.00
H29    H     0.67878   0.65875   0.36499   0.00000  Uiso   1.00
H30    H     0.33001   0.14659   0.66942   0.00000  Uiso   1.00
H31    H     0.30277   0.10367   0.15788   0.00000  Uiso   1.00
H32    H     0.39478   0.95379   0.06143   0.00000  Uiso   1.00
H33    H     0.32579   0.29363   0.12213   0.00000  Uiso   1.00
H34    H     0.16040   0.05075   0.26650   0.00000  Uiso   1.00
H35    H     0.53991   0.80799   0.99165   0.00000  Uiso   1.00
H36    H     0.39441   0.52458   0.11968   0.00000  Uiso   1.00
H37    H     0.04565   0.01242   0.42410   0.00000  Uiso   1.00
O38    O     0.74863   0.77933   0.05602   0.00000  Uiso   1.00
O39    O     0.55773   0.71946   0.22399   0.00000  Uiso   1.00
O40    O     0.10017   0.04752   0.62339   0.00000  Uiso   1.00
N41    N     0.74471   0.93114   0.19248   0.00000  Uiso   1.00
N42    N     0.60869   0.60110   0.31216   0.00000  Uiso   1.00
N43    N     0.28262   0.12230   0.59678   0.00000  Uiso   1.00
N44    N     0.59169   0.85894   0.06048   0.00000  Uiso   1.00
N45    N     0.45568   0.52890   0.18016   0.00000  Uiso   1.00
N46    N     0.12961   0.05010   0.46478   0.00000  Uiso   1.00
C47    C     0.44119   0.77553   0.62124   0.00000  Uiso   1.00
C48    C     0.42736   0.87402   0.70483   0.00000  Uiso   1.00
C49    C     0.33049   0.91661   0.70159   0.00000  Uiso   1.00
C50    C     0.33481   0.00706   0.78575   0.00000  Uiso   1.00
C51    C     0.29844   0.15295   0.90274   0.00000  Uiso   1.00
C52    C     0.46484   0.68938   0.67186   0.00000  Uiso   1.00
C53    C     0.39948   0.57672   0.64088   0.00000  Uiso   1.00
C54    C     0.43536   0.51173   0.69728   0.00000  Uiso   1.00
C55    C     0.45722   0.37094   0.76303   0.00000  Uiso   1.00
C56    C     0.55469   0.82135   0.59342   0.00000  Uiso   1.00
C57    C     0.56490   0.81963   0.49649   0.00000  Uiso   1.00
C58    C     0.67645   0.86573   0.48685   0.00000  Uiso   1.00
C59    C     0.83782   0.92984   0.43081   0.00000  Uiso   1.00
C60    C     0.62114   0.86043   0.77647   0.00000  Uiso   1.00
C61    C     0.52510   0.92013   0.78915   0.00000  Uiso   1.00
C62    C     0.52958   0.01055   0.87334   0.00000  Uiso   1.00
C63    C     0.43273   0.05326   0.87022   0.00000  Uiso   1.00
C64    C     0.56257   0.73549   0.75617   0.00000  Uiso   1.00
C65    C     0.59857   0.67065   0.81263   0.00000  Uiso   1.00
C66    C     0.53328   0.55793   0.78175   0.00000  Uiso   1.00
C67    C     0.65243   0.86747   0.67774   0.00000  Uiso   1.00
C68    C     0.76399   0.91357   0.66824   0.00000  Uiso   1.00
C69    C     0.77436   0.91192   0.57131   0.00000  Uiso   1.00
H70    H     0.36510   0.73962   0.55560   0.00000  Uiso   1.00
H71    H     0.25486   0.88089   0.63633   0.00000  Uiso   1.00
H72    H     0.32386   0.54105   0.57563   0.00000  Uiso   1.00
H73    H     0.48925   0.78394   0.43126   0.00000  Uiso   1.00
H74    H     0.17573   0.05783   0.76303   0.00000  Uiso   1.00
H75    H     0.32122   0.34125   0.63501   0.00000  Uiso   1.00
H76    H     0.66999   0.85341   0.33058   0.00000  Uiso   1.00
H77    H     0.69723   0.89633   0.84212   0.00000  Uiso   1.00
H78    H     0.60522   0.04621   0.93857   0.00000  Uiso   1.00
H79    H     0.67421   0.70637   0.87787   0.00000  Uiso   1.00
H80    H     0.83960   0.94925   0.73350   0.00000  Uiso   1.00
H81    H     0.46009   0.19201   0.00835   0.00000  Uiso   1.00
H82    H     0.60559   0.47542   0.88032   0.00000  Uiso   1.00
H83    H     0.95435   0.98758   0.57590   0.00000  Uiso   1.00
O84    O     0.25137   0.22067   0.94398   0.00000  Uiso   1.00
O85    O     0.44227   0.28054   0.77601   0.00000  Uiso   1.00
O86    O     0.89983   0.95248   0.37661   0.00000  Uiso   1.00
N87    N     0.25529   0.06886   0.80752   0.00000  Uiso   1.00
N88    N     0.39131   0.39890   0.68784   0.00000  Uiso   1.00
N89    N     0.71738   0.87770   0.40322   0.00000  Uiso   1.00
N90    N     0.40831   0.14106   0.93952   0.00000  Uiso   1.00
N91    N     0.54432   0.47110   0.81984   0.00000  Uiso   1.00
N92    N     0.87039   0.94990   0.53522   0.00000  Uiso   1.00
