data_job_01803
_audit_creation_date              2018-12-19
_audit_creation_method            'Materials Studio'
_symmetry_space_group_name_H-M    'P1'
_symmetry_Int_Tables_number       1
_symmetry_cell_setting            triclinic
loop_
_symmetry_equiv_pos_as_xyz
  x,y,z
_cell_length_a                    12.0010
_cell_length_b                    12.7819
_cell_length_c                    14.7531
_cell_angle_alpha                 115.1976
_cell_angle_beta                  111.4550
_cell_angle_gamma                 77.5150
loop_
_atom_site_label
_atom_site_type_symbol
_atom_site_fract_x
_atom_site_fract_y
_atom_site_fract_z
_atom_site_U_iso_or_equiv
_atom_site_adp_type
_atom_site_occupancy
C1     C     0.04961   0.67796   0.37441   0.00000  Uiso   1.00
C2     C     0.02226   0.55072   0.32238   0.00000  Uiso   1.00
C3     C     0.09029   0.46278   0.35437   0.00000  Uiso   1.00
C4     C     0.05021   0.35209   0.29636   0.00000  Uiso   1.00
C5     C     0.02365   0.15783   0.22875   0.00000  Uiso   1.00
C6     C     0.05670   0.70942   0.28798   0.00000  Uiso   1.00
C7     C     0.15367   0.75493   0.29107   0.00000  Uiso   1.00
C8     C     0.14257   0.77784   0.20410   0.00000  Uiso   1.00
C9     C     0.16944   0.83005   0.08313   0.00000  Uiso   1.00
C10    C     0.93821   0.74618   0.40326   0.00000  Uiso   1.00
C11    C     0.93556   0.82263   0.50327   0.00000  Uiso   1.00
C12    C     0.82470   0.87652   0.51336   0.00000  Uiso   1.00
C13    C     0.66760   0.98581   0.57138   0.00000  Uiso   1.00
C14    C     0.85747   0.63776   0.21449   0.00000  Uiso   1.00
C15    C     0.91790   0.52889   0.23551   0.00000  Uiso   1.00
C16    C     0.87771   0.41830   0.17744   0.00000  Uiso   1.00
C17    C     0.94566   0.33021   0.20934   0.00000  Uiso   1.00
C18    C     0.95234   0.68759   0.20112   0.00000  Uiso   1.00
C19    C     0.94109   0.71045   0.11414   0.00000  Uiso   1.00
C20    C     0.03802   0.75597   0.11708   0.00000  Uiso   1.00
C21    C     0.83384   0.72435   0.31640   0.00000  Uiso   1.00
C22    C     0.72298   0.77814   0.32634   0.00000  Uiso   1.00
C23    C     0.72015   0.85465   0.42634   0.00000  Uiso   1.00
H24    H     0.13086   0.69496   0.44203   0.00000  Uiso   1.00
H25    H     0.17105   0.47971   0.42159   0.00000  Uiso   1.00
H26    H     0.23441   0.77182   0.35830   0.00000  Uiso   1.00
H27    H     0.01633   0.83950   0.57047   0.00000  Uiso   1.00
H28    H     0.16961   0.23143   0.36060   0.00000  Uiso   1.00
H29    H     0.30320   0.84740   0.22717   0.00000  Uiso   1.00
H30    H     0.84333   0.99013   0.67457   0.00000  Uiso   1.00
H31    H     0.77622   0.62076   0.14686   0.00000  Uiso   1.00
H32    H     0.79694   0.40143   0.11022   0.00000  Uiso   1.00
H33    H     0.86031   0.69355   0.04693   0.00000  Uiso   1.00
H34    H     0.64223   0.76123   0.25910   0.00000  Uiso   1.00
H35    H     0.86597   0.16789   0.10788   0.00000  Uiso   1.00
H36    H     0.99957   0.78388   0.97445   0.00000  Uiso   1.00
H37    H     0.53970   0.92659   0.42185   0.00000  Uiso   1.00
O38    O     0.03784   0.05671   0.21545   0.00000  Uiso   1.00
O39    O     0.21311   0.86487   0.04040   0.00000  Uiso   1.00
O40    O     0.60977   0.05211   0.62737   0.00000  Uiso   1.00
N41    N     0.09529   0.24658   0.30616   0.00000  Uiso   1.00
N42    N     0.22020   0.82246   0.18140   0.00000  Uiso   1.00
N43    N     0.79027   0.95592   0.59968   0.00000  Uiso   1.00
N44    N     0.93190   0.21239   0.17018   0.00000  Uiso   1.00
N45    N     0.05682   0.78827   0.04542   0.00000  Uiso   1.00
N46    N     0.62688   0.92173   0.46370   0.00000  Uiso   1.00
C47    C     0.95039   0.32204   0.62559   0.00000  Uiso   1.00
C48    C     0.97774   0.44928   0.67762   0.00000  Uiso   1.00
C49    C     0.90971   0.53722   0.64563   0.00000  Uiso   1.00
C50    C     0.94979   0.64791   0.70364   0.00000  Uiso   1.00
C51    C     0.97635   0.84217   0.77125   0.00000  Uiso   1.00
C52    C     0.94330   0.29058   0.71202   0.00000  Uiso   1.00
C53    C     0.84633   0.24507   0.70893   0.00000  Uiso   1.00
C54    C     0.85743   0.22216   0.79590   0.00000  Uiso   1.00
C55    C     0.83056   0.16995   0.91687   0.00000  Uiso   1.00
C56    C     0.06179   0.25382   0.59674   0.00000  Uiso   1.00
C57    C     0.06444   0.17737   0.49673   0.00000  Uiso   1.00
C58    C     0.17530   0.12348   0.48664   0.00000  Uiso   1.00
C59    C     0.33240   0.01419   0.42862   0.00000  Uiso   1.00
C60    C     0.14253   0.36224   0.78551   0.00000  Uiso   1.00
C61    C     0.08210   0.47111   0.76449   0.00000  Uiso   1.00
C62    C     0.12229   0.58170   0.82256   0.00000  Uiso   1.00
C63    C     0.05434   0.66979   0.79066   0.00000  Uiso   1.00
C64    C     0.04766   0.31241   0.79888   0.00000  Uiso   1.00
C65    C     0.05891   0.28955   0.88586   0.00000  Uiso   1.00
C66    C     0.96198   0.24403   0.88292   0.00000  Uiso   1.00
C67    C     0.16616   0.27565   0.68360   0.00000  Uiso   1.00
C68    C     0.27702   0.22186   0.67366   0.00000  Uiso   1.00
C69    C     0.27985   0.14535   0.57366   0.00000  Uiso   1.00
H70    H     0.86914   0.30504   0.55797   0.00000  Uiso   1.00
H71    H     0.82895   0.52029   0.57841   0.00000  Uiso   1.00
H72    H     0.76559   0.22818   0.64170   0.00000  Uiso   1.00
H73    H     0.98367   0.16050   0.42953   0.00000  Uiso   1.00
H74    H     0.83039   0.76857   0.63940   0.00000  Uiso   1.00
H75    H     0.69680   0.15260   0.77283   0.00000  Uiso   1.00
H76    H     0.15667   0.00987   0.32543   0.00000  Uiso   1.00
H77    H     0.22378   0.37924   0.85314   0.00000  Uiso   1.00
H78    H     0.20306   0.59857   0.88978   0.00000  Uiso   1.00
H79    H     0.13969   0.30645   0.95307   0.00000  Uiso   1.00
H80    H     0.35777   0.23877   0.74090   0.00000  Uiso   1.00
H81    H     0.13403   0.83211   0.89212   0.00000  Uiso   1.00
H82    H     0.00043   0.21612   0.02555   0.00000  Uiso   1.00
H83    H     0.46030   0.07341   0.57815   0.00000  Uiso   1.00
O84    O     0.96216   0.94329   0.78455   0.00000  Uiso   1.00
O85    O     0.78689   0.13513   0.95960   0.00000  Uiso   1.00
O86    O     0.39023   0.94789   0.37263   0.00000  Uiso   1.00
N87    N     0.90471   0.75342   0.69384   0.00000  Uiso   1.00
N88    N     0.77980   0.17754   0.81860   0.00000  Uiso   1.00
N89    N     0.20973   0.04408   0.40032   0.00000  Uiso   1.00
N90    N     0.06810   0.78761   0.82982   0.00000  Uiso   1.00
N91    N     0.94318   0.21173   0.95458   0.00000  Uiso   1.00
N92    N     0.37312   0.07827   0.53630   0.00000  Uiso   1.00
