data_job_02585
_audit_creation_date              2018-12-19
_audit_creation_method            'Materials Studio'
_symmetry_space_group_name_H-M    'P1'
_symmetry_Int_Tables_number       1
_symmetry_cell_setting            triclinic
loop_
_symmetry_equiv_pos_as_xyz
  x,y,z
_cell_length_a                    26.8792
_cell_length_b                    23.2547
_cell_length_c                    9.0247
_cell_angle_alpha                 90.0000
_cell_angle_beta                  90.0000
_cell_angle_gamma                 90.0000
loop_
_atom_site_label
_atom_site_type_symbol
_atom_site_fract_x
_atom_site_fract_y
_atom_site_fract_z
_atom_site_U_iso_or_equiv
_atom_site_adp_type
_atom_site_occupancy
C1     C     0.85330   0.93313   0.46646   0.00000  Uiso   1.00
C2     C     0.90503   0.91887   0.52538   0.00000  Uiso   1.00
C3     C     0.91681   0.90687   0.67186   0.00000  Uiso   1.00
C4     C     0.96630   0.89488   0.70330   0.00000  Uiso   1.00
C5     C     0.04109   0.87277   0.81171   0.00000  Uiso   1.00
C6     C     0.85802   0.99118   0.38914   0.00000  Uiso   1.00
C7     C     0.83028   0.03997   0.42107   0.00000  Uiso   1.00
C8     C     0.84020   0.08885   0.33780   0.00000  Uiso   1.00
C9     C     0.84199   0.17898   0.23462   0.00000  Uiso   1.00
C10    C     0.84273   0.88938   0.34461   0.00000  Uiso   1.00
C11    C     0.80212   0.85258   0.33907   0.00000  Uiso   1.00
C12    C     0.79916   0.81575   0.21828   0.00000  Uiso   1.00
C13    C     0.77720   0.74782   0.04597   0.00000  Uiso   1.00
C14    C     0.92023   0.93318   0.26180   0.00000  Uiso   1.00
C15    C     0.94138   0.91890   0.41421   0.00000  Uiso   1.00
C16    C     0.99086   0.90693   0.44543   0.00000  Uiso   1.00
C17    C     0.00272   0.89491   0.59193   0.00000  Uiso   1.00
C18    C     0.89437   0.99121   0.27798   0.00000  Uiso   1.00
C19    C     0.90433   0.04003   0.19463   0.00000  Uiso   1.00
C20    C     0.87662   0.08888   0.22643   0.00000  Uiso   1.00
C21    C     0.87908   0.88941   0.23344   0.00000  Uiso   1.00
C22    C     0.87617   0.85264   0.11264   0.00000  Uiso   1.00
C23    C     0.83557   0.81578   0.10692   0.00000  Uiso   1.00
H24    H     0.82500   0.93311   0.55300   0.00000  Uiso   1.00
H25    H     0.88867   0.90686   0.75786   0.00000  Uiso   1.00
H26    H     0.80215   0.03993   0.50709   0.00000  Uiso   1.00
H27    H     0.77400   0.85257   0.42511   0.00000  Uiso   1.00
H28    H     0.97529   0.87778   0.93597   0.00000  Uiso   1.00
H29    H     0.79285   0.15838   0.40718   0.00000  Uiso   1.00
H30    H     0.73349   0.76328   0.23430   0.00000  Uiso   1.00
H31    H     0.94853   0.93321   0.17525   0.00000  Uiso   1.00
H32    H     0.01898   0.90695   0.35938   0.00000  Uiso   1.00
H33    H     0.93246   0.04003   0.10861   0.00000  Uiso   1.00
H34    H     0.90431   0.85267   0.02663   0.00000  Uiso   1.00
H35    H     0.08106   0.87786   0.61255   0.00000  Uiso   1.00
H36    H     0.89862   0.15846   0.08375   0.00000  Uiso   1.00
H37    H     0.83925   0.76336   0.91088   0.00000  Uiso   1.00
O38    O     0.07229   0.86057   0.90221   0.00000  Uiso   1.00
O39    O     0.83293   0.22869   0.20844   0.00000  Uiso   1.00
O40    O     0.75505   0.71034   0.98164   0.00000  Uiso   1.00
N41    N     0.99052   0.88139   0.83458   0.00000  Uiso   1.00
N42    N     0.81995   0.14373   0.34020   0.00000  Uiso   1.00
N43    N     0.76444   0.77437   0.17856   0.00000  Uiso   1.00
N44    N     0.04743   0.88143   0.66055   0.00000  Uiso   1.00
N45    N     0.87686   0.14378   0.16617   0.00000  Uiso   1.00
N46    N     0.82135   0.77441   0.00453   0.00000  Uiso   1.00
C47    C     0.85330   0.43313   0.96646   0.00000  Uiso   1.00
C48    C     0.90503   0.41887   0.02538   0.00000  Uiso   1.00
C49    C     0.91681   0.40687   0.17186   0.00000  Uiso   1.00
C50    C     0.96630   0.39488   0.20330   0.00000  Uiso   1.00
C51    C     0.04109   0.37277   0.31171   0.00000  Uiso   1.00
C52    C     0.85802   0.49118   0.88914   0.00000  Uiso   1.00
C53    C     0.83028   0.53997   0.92107   0.00000  Uiso   1.00
C54    C     0.84020   0.58885   0.83780   0.00000  Uiso   1.00
C55    C     0.84199   0.67898   0.73462   0.00000  Uiso   1.00
C56    C     0.84273   0.38938   0.84461   0.00000  Uiso   1.00
C57    C     0.80212   0.35258   0.83907   0.00000  Uiso   1.00
C58    C     0.79916   0.31575   0.71828   0.00000  Uiso   1.00
C59    C     0.77720   0.24782   0.54597   0.00000  Uiso   1.00
C60    C     0.92023   0.43318   0.76180   0.00000  Uiso   1.00
C61    C     0.94138   0.41890   0.91421   0.00000  Uiso   1.00
C62    C     0.99086   0.40693   0.94543   0.00000  Uiso   1.00
C63    C     0.00272   0.39491   0.09193   0.00000  Uiso   1.00
C64    C     0.89437   0.49121   0.77798   0.00000  Uiso   1.00
C65    C     0.90433   0.54003   0.69463   0.00000  Uiso   1.00
C66    C     0.87662   0.58888   0.72643   0.00000  Uiso   1.00
C67    C     0.87908   0.38941   0.73344   0.00000  Uiso   1.00
C68    C     0.87617   0.35264   0.61264   0.00000  Uiso   1.00
C69    C     0.83557   0.31578   0.60692   0.00000  Uiso   1.00
H70    H     0.82500   0.43311   0.05300   0.00000  Uiso   1.00
H71    H     0.88867   0.40686   0.25786   0.00000  Uiso   1.00
H72    H     0.80215   0.53993   0.00709   0.00000  Uiso   1.00
H73    H     0.77400   0.35257   0.92511   0.00000  Uiso   1.00
H74    H     0.97529   0.37778   0.43597   0.00000  Uiso   1.00
H75    H     0.79285   0.65838   0.90718   0.00000  Uiso   1.00
H76    H     0.73349   0.26328   0.73430   0.00000  Uiso   1.00
H77    H     0.94853   0.43321   0.67525   0.00000  Uiso   1.00
H78    H     0.01898   0.40695   0.85938   0.00000  Uiso   1.00
H79    H     0.93246   0.54003   0.60861   0.00000  Uiso   1.00
H80    H     0.90431   0.35267   0.52663   0.00000  Uiso   1.00
H81    H     0.08106   0.37786   0.11255   0.00000  Uiso   1.00
H82    H     0.89862   0.65846   0.58375   0.00000  Uiso   1.00
H83    H     0.83925   0.26336   0.41088   0.00000  Uiso   1.00
O84    O     0.07229   0.36057   0.40221   0.00000  Uiso   1.00
O85    O     0.83293   0.72869   0.70844   0.00000  Uiso   1.00
O86    O     0.75505   0.21034   0.48164   0.00000  Uiso   1.00
N87    N     0.99052   0.38139   0.33458   0.00000  Uiso   1.00
N88    N     0.81995   0.64373   0.84020   0.00000  Uiso   1.00
N89    N     0.76444   0.27437   0.67856   0.00000  Uiso   1.00
N90    N     0.04743   0.38143   0.16055   0.00000  Uiso   1.00
N91    N     0.87686   0.64378   0.66617   0.00000  Uiso   1.00
N92    N     0.82135   0.27441   0.50453   0.00000  Uiso   1.00
C93    C     0.14670   0.06687   0.46646   0.00000  Uiso   1.00
C94    C     0.09497   0.08113   0.52538   0.00000  Uiso   1.00
C95    C     0.08319   0.09313   0.67186   0.00000  Uiso   1.00
C96    C     0.03370   0.10512   0.70330   0.00000  Uiso   1.00
C97    C     0.95891   0.12723   0.81171   0.00000  Uiso   1.00
C98    C     0.14198   0.00882   0.38914   0.00000  Uiso   1.00
C99    C     0.16972   0.96003   0.42107   0.00000  Uiso   1.00
C100   C     0.15980   0.91115   0.33780   0.00000  Uiso   1.00
C101   C     0.15801   0.82102   0.23462   0.00000  Uiso   1.00
C102   C     0.15727   0.11062   0.34461   0.00000  Uiso   1.00
C103   C     0.19788   0.14742   0.33907   0.00000  Uiso   1.00
C104   C     0.20084   0.18425   0.21828   0.00000  Uiso   1.00
C105   C     0.22280   0.25218   0.04597   0.00000  Uiso   1.00
C106   C     0.07977   0.06682   0.26180   0.00000  Uiso   1.00
C107   C     0.05862   0.08110   0.41421   0.00000  Uiso   1.00
C108   C     0.00914   0.09307   0.44543   0.00000  Uiso   1.00
C109   C     0.99728   0.10509   0.59193   0.00000  Uiso   1.00
C110   C     0.10563   0.00879   0.27798   0.00000  Uiso   1.00
C111   C     0.09567   0.95997   0.19463   0.00000  Uiso   1.00
C112   C     0.12338   0.91112   0.22643   0.00000  Uiso   1.00
C113   C     0.12092   0.11059   0.23344   0.00000  Uiso   1.00
C114   C     0.12383   0.14736   0.11264   0.00000  Uiso   1.00
C115   C     0.16443   0.18422   0.10692   0.00000  Uiso   1.00
H116   H     0.17500   0.06689   0.55300   0.00000  Uiso   1.00
H117   H     0.11133   0.09314   0.75786   0.00000  Uiso   1.00
H118   H     0.19785   0.96007   0.50709   0.00000  Uiso   1.00
H119   H     0.22600   0.14743   0.42511   0.00000  Uiso   1.00
H120   H     0.02471   0.12222   0.93597   0.00000  Uiso   1.00
H121   H     0.20715   0.84162   0.40718   0.00000  Uiso   1.00
H122   H     0.26651   0.23672   0.23430   0.00000  Uiso   1.00
H123   H     0.05147   0.06679   0.17525   0.00000  Uiso   1.00
H124   H     0.98102   0.09305   0.35938   0.00000  Uiso   1.00
H125   H     0.06754   0.95997   0.10861   0.00000  Uiso   1.00
H126   H     0.09569   0.14733   0.02663   0.00000  Uiso   1.00
H127   H     0.91894   0.12214   0.61255   0.00000  Uiso   1.00
H128   H     0.10138   0.84154   0.08375   0.00000  Uiso   1.00
H129   H     0.16075   0.23664   0.91088   0.00000  Uiso   1.00
O130   O     0.92771   0.13943   0.90221   0.00000  Uiso   1.00
O131   O     0.16707   0.77131   0.20844   0.00000  Uiso   1.00
O132   O     0.24495   0.28966   0.98164   0.00000  Uiso   1.00
N133   N     0.00948   0.11861   0.83458   0.00000  Uiso   1.00
N134   N     0.18005   0.85627   0.34020   0.00000  Uiso   1.00
N135   N     0.23556   0.22563   0.17856   0.00000  Uiso   1.00
N136   N     0.95257   0.11857   0.66055   0.00000  Uiso   1.00
N137   N     0.12314   0.85622   0.16617   0.00000  Uiso   1.00
N138   N     0.17865   0.22559   0.00453   0.00000  Uiso   1.00
C139   C     0.14670   0.56687   0.96646   0.00000  Uiso   1.00
C140   C     0.09497   0.58113   0.02538   0.00000  Uiso   1.00
C141   C     0.08319   0.59313   0.17186   0.00000  Uiso   1.00
C142   C     0.03370   0.60512   0.20330   0.00000  Uiso   1.00
C143   C     0.95891   0.62723   0.31171   0.00000  Uiso   1.00
C144   C     0.14198   0.50882   0.88914   0.00000  Uiso   1.00
C145   C     0.16972   0.46003   0.92107   0.00000  Uiso   1.00
C146   C     0.15980   0.41115   0.83780   0.00000  Uiso   1.00
C147   C     0.15801   0.32102   0.73462   0.00000  Uiso   1.00
C148   C     0.15727   0.61062   0.84461   0.00000  Uiso   1.00
C149   C     0.19788   0.64742   0.83907   0.00000  Uiso   1.00
C150   C     0.20084   0.68425   0.71828   0.00000  Uiso   1.00
C151   C     0.22280   0.75218   0.54597   0.00000  Uiso   1.00
C152   C     0.07977   0.56682   0.76180   0.00000  Uiso   1.00
C153   C     0.05862   0.58110   0.91421   0.00000  Uiso   1.00
C154   C     0.00914   0.59307   0.94543   0.00000  Uiso   1.00
C155   C     0.99728   0.60509   0.09193   0.00000  Uiso   1.00
C156   C     0.10563   0.50879   0.77798   0.00000  Uiso   1.00
C157   C     0.09567   0.45997   0.69463   0.00000  Uiso   1.00
C158   C     0.12338   0.41112   0.72643   0.00000  Uiso   1.00
C159   C     0.12092   0.61059   0.73344   0.00000  Uiso   1.00
C160   C     0.12383   0.64736   0.61264   0.00000  Uiso   1.00
C161   C     0.16443   0.68422   0.60692   0.00000  Uiso   1.00
H162   H     0.17500   0.56689   0.05300   0.00000  Uiso   1.00
H163   H     0.11133   0.59314   0.25786   0.00000  Uiso   1.00
H164   H     0.19785   0.46007   0.00709   0.00000  Uiso   1.00
H165   H     0.22600   0.64743   0.92511   0.00000  Uiso   1.00
H166   H     0.02471   0.62222   0.43597   0.00000  Uiso   1.00
H167   H     0.20715   0.34162   0.90718   0.00000  Uiso   1.00
H168   H     0.26651   0.73672   0.73430   0.00000  Uiso   1.00
H169   H     0.05147   0.56679   0.67525   0.00000  Uiso   1.00
H170   H     0.98102   0.59305   0.85938   0.00000  Uiso   1.00
H171   H     0.06754   0.45997   0.60861   0.00000  Uiso   1.00
H172   H     0.09569   0.64733   0.52663   0.00000  Uiso   1.00
H173   H     0.91894   0.62214   0.11255   0.00000  Uiso   1.00
H174   H     0.10138   0.34154   0.58375   0.00000  Uiso   1.00
H175   H     0.16075   0.73664   0.41088   0.00000  Uiso   1.00
O176   O     0.92771   0.63943   0.40221   0.00000  Uiso   1.00
O177   O     0.16707   0.27131   0.70844   0.00000  Uiso   1.00
O178   O     0.24495   0.78966   0.48164   0.00000  Uiso   1.00
N179   N     0.00948   0.61861   0.33458   0.00000  Uiso   1.00
N180   N     0.18005   0.35627   0.84020   0.00000  Uiso   1.00
N181   N     0.23556   0.72563   0.67856   0.00000  Uiso   1.00
N182   N     0.95257   0.61857   0.16055   0.00000  Uiso   1.00
N183   N     0.12314   0.35622   0.66617   0.00000  Uiso   1.00
N184   N     0.17865   0.72559   0.50453   0.00000  Uiso   1.00
C185   C     0.35330   0.56687   0.46646   0.00000  Uiso   1.00
C186   C     0.40503   0.58113   0.52538   0.00000  Uiso   1.00
C187   C     0.41681   0.59313   0.67186   0.00000  Uiso   1.00
C188   C     0.46630   0.60512   0.70330   0.00000  Uiso   1.00
C189   C     0.54109   0.62723   0.81171   0.00000  Uiso   1.00
C190   C     0.35802   0.50882   0.38914   0.00000  Uiso   1.00
C191   C     0.33028   0.46003   0.42107   0.00000  Uiso   1.00
C192   C     0.34020   0.41115   0.33780   0.00000  Uiso   1.00
C193   C     0.34199   0.32102   0.23462   0.00000  Uiso   1.00
C194   C     0.34273   0.61062   0.34461   0.00000  Uiso   1.00
C195   C     0.30212   0.64742   0.33907   0.00000  Uiso   1.00
C196   C     0.29916   0.68425   0.21828   0.00000  Uiso   1.00
C197   C     0.27720   0.75218   0.04597   0.00000  Uiso   1.00
C198   C     0.42023   0.56682   0.26180   0.00000  Uiso   1.00
C199   C     0.44138   0.58110   0.41421   0.00000  Uiso   1.00
C200   C     0.49086   0.59307   0.44543   0.00000  Uiso   1.00
C201   C     0.50272   0.60509   0.59193   0.00000  Uiso   1.00
C202   C     0.39437   0.50879   0.27798   0.00000  Uiso   1.00
C203   C     0.40433   0.45997   0.19463   0.00000  Uiso   1.00
C204   C     0.37662   0.41112   0.22643   0.00000  Uiso   1.00
C205   C     0.37908   0.61059   0.23344   0.00000  Uiso   1.00
C206   C     0.37617   0.64736   0.11264   0.00000  Uiso   1.00
C207   C     0.33557   0.68422   0.10692   0.00000  Uiso   1.00
H208   H     0.32500   0.56689   0.55300   0.00000  Uiso   1.00
H209   H     0.38867   0.59314   0.75786   0.00000  Uiso   1.00
H210   H     0.30215   0.46007   0.50709   0.00000  Uiso   1.00
H211   H     0.27400   0.64743   0.42511   0.00000  Uiso   1.00
H212   H     0.47529   0.62222   0.93597   0.00000  Uiso   1.00
H213   H     0.29285   0.34162   0.40718   0.00000  Uiso   1.00
H214   H     0.23349   0.73672   0.23430   0.00000  Uiso   1.00
H215   H     0.44853   0.56679   0.17525   0.00000  Uiso   1.00
H216   H     0.51898   0.59305   0.35938   0.00000  Uiso   1.00
H217   H     0.43246   0.45997   0.10861   0.00000  Uiso   1.00
H218   H     0.40431   0.64733   0.02663   0.00000  Uiso   1.00
H219   H     0.58106   0.62214   0.61255   0.00000  Uiso   1.00
H220   H     0.39862   0.34154   0.08375   0.00000  Uiso   1.00
H221   H     0.33925   0.73664   0.91088   0.00000  Uiso   1.00
O222   O     0.57229   0.63943   0.90221   0.00000  Uiso   1.00
O223   O     0.33293   0.27131   0.20844   0.00000  Uiso   1.00
O224   O     0.25505   0.78966   0.98164   0.00000  Uiso   1.00
N225   N     0.49052   0.61861   0.83458   0.00000  Uiso   1.00
N226   N     0.31995   0.35627   0.34020   0.00000  Uiso   1.00
N227   N     0.26444   0.72563   0.17856   0.00000  Uiso   1.00
N228   N     0.54743   0.61857   0.66055   0.00000  Uiso   1.00
N229   N     0.37686   0.35622   0.16617   0.00000  Uiso   1.00
N230   N     0.32135   0.72559   0.00453   0.00000  Uiso   1.00
C231   C     0.35330   0.06687   0.96646   0.00000  Uiso   1.00
C232   C     0.40503   0.08113   0.02538   0.00000  Uiso   1.00
C233   C     0.41681   0.09313   0.17186   0.00000  Uiso   1.00
C234   C     0.46630   0.10512   0.20330   0.00000  Uiso   1.00
C235   C     0.54109   0.12723   0.31171   0.00000  Uiso   1.00
C236   C     0.35802   0.00882   0.88914   0.00000  Uiso   1.00
C237   C     0.33028   0.96003   0.92107   0.00000  Uiso   1.00
C238   C     0.34020   0.91115   0.83780   0.00000  Uiso   1.00
C239   C     0.34199   0.82102   0.73462   0.00000  Uiso   1.00
C240   C     0.34273   0.11062   0.84461   0.00000  Uiso   1.00
C241   C     0.30212   0.14742   0.83907   0.00000  Uiso   1.00
C242   C     0.29916   0.18425   0.71828   0.00000  Uiso   1.00
C243   C     0.27720   0.25218   0.54597   0.00000  Uiso   1.00
C244   C     0.42023   0.06682   0.76180   0.00000  Uiso   1.00
C245   C     0.44138   0.08110   0.91421   0.00000  Uiso   1.00
C246   C     0.49086   0.09307   0.94543   0.00000  Uiso   1.00
C247   C     0.50272   0.10509   0.09193   0.00000  Uiso   1.00
C248   C     0.39437   0.00879   0.77798   0.00000  Uiso   1.00
C249   C     0.40433   0.95997   0.69463   0.00000  Uiso   1.00
C250   C     0.37662   0.91112   0.72643   0.00000  Uiso   1.00
C251   C     0.37908   0.11059   0.73344   0.00000  Uiso   1.00
C252   C     0.37617   0.14736   0.61264   0.00000  Uiso   1.00
C253   C     0.33557   0.18422   0.60692   0.00000  Uiso   1.00
H254   H     0.32500   0.06689   0.05300   0.00000  Uiso   1.00
H255   H     0.38867   0.09314   0.25786   0.00000  Uiso   1.00
H256   H     0.30215   0.96007   0.00709   0.00000  Uiso   1.00
H257   H     0.27400   0.14743   0.92511   0.00000  Uiso   1.00
H258   H     0.47529   0.12222   0.43597   0.00000  Uiso   1.00
H259   H     0.29285   0.84162   0.90718   0.00000  Uiso   1.00
H260   H     0.23349   0.23672   0.73430   0.00000  Uiso   1.00
H261   H     0.44853   0.06679   0.67525   0.00000  Uiso   1.00
H262   H     0.51898   0.09305   0.85938   0.00000  Uiso   1.00
H263   H     0.43246   0.95997   0.60861   0.00000  Uiso   1.00
H264   H     0.40431   0.14733   0.52663   0.00000  Uiso   1.00
H265   H     0.58106   0.12214   0.11255   0.00000  Uiso   1.00
H266   H     0.39862   0.84154   0.58375   0.00000  Uiso   1.00
H267   H     0.33925   0.23664   0.41088   0.00000  Uiso   1.00
O268   O     0.57229   0.13943   0.40221   0.00000  Uiso   1.00
O269   O     0.33293   0.77131   0.70844   0.00000  Uiso   1.00
O270   O     0.25505   0.28966   0.48164   0.00000  Uiso   1.00
N271   N     0.49052   0.11861   0.33458   0.00000  Uiso   1.00
N272   N     0.31995   0.85627   0.84020   0.00000  Uiso   1.00
N273   N     0.26444   0.22563   0.67856   0.00000  Uiso   1.00
N274   N     0.54743   0.11857   0.16055   0.00000  Uiso   1.00
N275   N     0.37686   0.85622   0.66617   0.00000  Uiso   1.00
N276   N     0.32135   0.22559   0.50453   0.00000  Uiso   1.00
C277   C     0.64670   0.43313   0.46646   0.00000  Uiso   1.00
C278   C     0.59497   0.41887   0.52538   0.00000  Uiso   1.00
C279   C     0.58319   0.40687   0.67186   0.00000  Uiso   1.00
C280   C     0.53370   0.39488   0.70330   0.00000  Uiso   1.00
C281   C     0.45891   0.37277   0.81171   0.00000  Uiso   1.00
C282   C     0.64198   0.49118   0.38914   0.00000  Uiso   1.00
C283   C     0.66972   0.53997   0.42107   0.00000  Uiso   1.00
C284   C     0.65980   0.58885   0.33780   0.00000  Uiso   1.00
C285   C     0.65801   0.67898   0.23462   0.00000  Uiso   1.00
C286   C     0.65727   0.38938   0.34461   0.00000  Uiso   1.00
C287   C     0.69788   0.35258   0.33907   0.00000  Uiso   1.00
C288   C     0.70084   0.31575   0.21828   0.00000  Uiso   1.00
C289   C     0.72280   0.24782   0.04597   0.00000  Uiso   1.00
C290   C     0.57977   0.43318   0.26180   0.00000  Uiso   1.00
C291   C     0.55862   0.41890   0.41421   0.00000  Uiso   1.00
C292   C     0.50914   0.40693   0.44543   0.00000  Uiso   1.00
C293   C     0.49728   0.39491   0.59193   0.00000  Uiso   1.00
C294   C     0.60563   0.49121   0.27798   0.00000  Uiso   1.00
C295   C     0.59567   0.54003   0.19463   0.00000  Uiso   1.00
C296   C     0.62338   0.58888   0.22643   0.00000  Uiso   1.00
C297   C     0.62092   0.38941   0.23344   0.00000  Uiso   1.00
C298   C     0.62383   0.35264   0.11264   0.00000  Uiso   1.00
C299   C     0.66443   0.31578   0.10692   0.00000  Uiso   1.00
H300   H     0.67500   0.43311   0.55300   0.00000  Uiso   1.00
H301   H     0.61133   0.40686   0.75786   0.00000  Uiso   1.00
H302   H     0.69785   0.53993   0.50709   0.00000  Uiso   1.00
H303   H     0.72600   0.35257   0.42511   0.00000  Uiso   1.00
H304   H     0.52471   0.37778   0.93597   0.00000  Uiso   1.00
H305   H     0.70715   0.65838   0.40718   0.00000  Uiso   1.00
H306   H     0.76651   0.26328   0.23430   0.00000  Uiso   1.00
H307   H     0.55147   0.43321   0.17525   0.00000  Uiso   1.00
H308   H     0.48102   0.40695   0.35938   0.00000  Uiso   1.00
H309   H     0.56754   0.54003   0.10861   0.00000  Uiso   1.00
H310   H     0.59569   0.35267   0.02663   0.00000  Uiso   1.00
H311   H     0.41894   0.37786   0.61255   0.00000  Uiso   1.00
H312   H     0.60138   0.65846   0.08375   0.00000  Uiso   1.00
H313   H     0.66075   0.26336   0.91088   0.00000  Uiso   1.00
O314   O     0.42771   0.36057   0.90221   0.00000  Uiso   1.00
O315   O     0.66707   0.72869   0.20844   0.00000  Uiso   1.00
O316   O     0.74495   0.21034   0.98164   0.00000  Uiso   1.00
N317   N     0.50948   0.38139   0.83458   0.00000  Uiso   1.00
N318   N     0.68005   0.64373   0.34020   0.00000  Uiso   1.00
N319   N     0.73556   0.27437   0.17856   0.00000  Uiso   1.00
N320   N     0.45257   0.38143   0.66055   0.00000  Uiso   1.00
N321   N     0.62314   0.64378   0.16617   0.00000  Uiso   1.00
N322   N     0.67865   0.27441   0.00453   0.00000  Uiso   1.00
C323   C     0.64670   0.93313   0.96646   0.00000  Uiso   1.00
C324   C     0.59497   0.91887   0.02538   0.00000  Uiso   1.00
C325   C     0.58319   0.90687   0.17186   0.00000  Uiso   1.00
C326   C     0.53370   0.89488   0.20330   0.00000  Uiso   1.00
C327   C     0.45891   0.87277   0.31171   0.00000  Uiso   1.00
C328   C     0.64198   0.99118   0.88914   0.00000  Uiso   1.00
C329   C     0.66972   0.03997   0.92107   0.00000  Uiso   1.00
C330   C     0.65980   0.08885   0.83780   0.00000  Uiso   1.00
C331   C     0.65801   0.17898   0.73462   0.00000  Uiso   1.00
C332   C     0.65727   0.88938   0.84461   0.00000  Uiso   1.00
C333   C     0.69788   0.85258   0.83907   0.00000  Uiso   1.00
C334   C     0.70084   0.81575   0.71828   0.00000  Uiso   1.00
C335   C     0.72280   0.74782   0.54597   0.00000  Uiso   1.00
C336   C     0.57977   0.93318   0.76180   0.00000  Uiso   1.00
C337   C     0.55862   0.91890   0.91421   0.00000  Uiso   1.00
C338   C     0.50914   0.90693   0.94543   0.00000  Uiso   1.00
C339   C     0.49728   0.89491   0.09193   0.00000  Uiso   1.00
C340   C     0.60563   0.99121   0.77798   0.00000  Uiso   1.00
C341   C     0.59567   0.04003   0.69463   0.00000  Uiso   1.00
C342   C     0.62338   0.08888   0.72643   0.00000  Uiso   1.00
C343   C     0.62092   0.88941   0.73344   0.00000  Uiso   1.00
C344   C     0.62383   0.85264   0.61264   0.00000  Uiso   1.00
C345   C     0.66443   0.81578   0.60692   0.00000  Uiso   1.00
H346   H     0.67500   0.93311   0.05300   0.00000  Uiso   1.00
H347   H     0.61133   0.90686   0.25786   0.00000  Uiso   1.00
H348   H     0.69785   0.03993   0.00709   0.00000  Uiso   1.00
H349   H     0.72600   0.85257   0.92511   0.00000  Uiso   1.00
H350   H     0.52471   0.87778   0.43597   0.00000  Uiso   1.00
H351   H     0.70715   0.15838   0.90718   0.00000  Uiso   1.00
H352   H     0.76651   0.76328   0.73430   0.00000  Uiso   1.00
H353   H     0.55147   0.93321   0.67525   0.00000  Uiso   1.00
H354   H     0.48102   0.90695   0.85938   0.00000  Uiso   1.00
H355   H     0.56754   0.04003   0.60861   0.00000  Uiso   1.00
H356   H     0.59569   0.85267   0.52663   0.00000  Uiso   1.00
H357   H     0.41894   0.87786   0.11255   0.00000  Uiso   1.00
H358   H     0.60138   0.15846   0.58375   0.00000  Uiso   1.00
H359   H     0.66075   0.76336   0.41088   0.00000  Uiso   1.00
O360   O     0.42771   0.86057   0.40221   0.00000  Uiso   1.00
O361   O     0.66707   0.22869   0.70844   0.00000  Uiso   1.00
O362   O     0.74495   0.71034   0.48164   0.00000  Uiso   1.00
N363   N     0.50948   0.88139   0.33458   0.00000  Uiso   1.00
N364   N     0.68005   0.14373   0.84020   0.00000  Uiso   1.00
N365   N     0.73556   0.77437   0.67856   0.00000  Uiso   1.00
N366   N     0.45257   0.88143   0.16055   0.00000  Uiso   1.00
N367   N     0.62314   0.14378   0.66617   0.00000  Uiso   1.00
N368   N     0.67865   0.77441   0.50453   0.00000  Uiso   1.00
