data_job_01743
_audit_creation_date              2018-12-19
_audit_creation_method            'Materials Studio'
_symmetry_space_group_name_H-M    'P1'
_symmetry_Int_Tables_number       1
_symmetry_cell_setting            triclinic
loop_
_symmetry_equiv_pos_as_xyz
  x,y,z
_cell_length_a                    37.1283
_cell_length_b                    11.5143
_cell_length_c                    12.5635
_cell_angle_alpha                 90.0000
_cell_angle_beta                  90.0000
_cell_angle_gamma                 90.0000
loop_
_atom_site_label
_atom_site_type_symbol
_atom_site_fract_x
_atom_site_fract_y
_atom_site_fract_z
_atom_site_U_iso_or_equiv
_atom_site_adp_type
_atom_site_occupancy
C1     C     0.88576   0.45399   0.96914   0.00000  Uiso   1.00
C2     C     0.89526   0.32544   0.96117   0.00000  Uiso   1.00
C3     C     0.92891   0.27736   0.98033   0.00000  Uiso   1.00
C4     C     0.93210   0.15788   0.96874   0.00000  Uiso   1.00
C5     C     0.95132   0.96874   0.96082   0.00000  Uiso   1.00
C6     C     0.87031   0.48780   0.86103   0.00000  Uiso   1.00
C7     C     0.88300   0.57625   0.79600   0.00000  Uiso   1.00
C8     C     0.86518   0.59346   0.70013   0.00000  Uiso   1.00
C9     C     0.84567   0.65645   0.53678   0.00000  Uiso   1.00
C10    C     0.85457   0.46193   0.04778   0.00000  Uiso   1.00
C11    C     0.85401   0.52865   0.13976   0.00000  Uiso   1.00
C12    C     0.82294   0.52410   0.20110   0.00000  Uiso   1.00
C13    C     0.77898   0.54692   0.32771   0.00000  Uiso   1.00
C14    C     0.83156   0.32732   0.91450   0.00000  Uiso   1.00
C15    C     0.86582   0.25663   0.93148   0.00000  Uiso   1.00
C16    C     0.86895   0.13720   0.91987   0.00000  Uiso   1.00
C17    C     0.90261   0.08895   0.93901   0.00000  Uiso   1.00
C18    C     0.84088   0.41900   0.83135   0.00000  Uiso   1.00
C19    C     0.82304   0.43609   0.73555   0.00000  Uiso   1.00
C20    C     0.83569   0.52453   0.67039   0.00000  Uiso   1.00
C21    C     0.82513   0.39312   0.01810   0.00000  Uiso   1.00
C22    C     0.79405   0.38848   0.07930   0.00000  Uiso   1.00
C23    C     0.79345   0.45517   0.17137   0.00000  Uiso   1.00
H24    H     0.90868   0.50757   0.99224   0.00000  Uiso   1.00
H25    H     0.95169   0.33064   0.00329   0.00000  Uiso   1.00
H26    H     0.90577   0.62948   0.81900   0.00000  Uiso   1.00
H27    H     0.87680   0.58188   0.16270   0.00000  Uiso   1.00
H28    H     0.98639   0.10413   0.00240   0.00000  Uiso   1.00
H29    H     0.88958   0.73430   0.61384   0.00000  Uiso   1.00
H30    H     0.82847   0.63393   0.33860   0.00000  Uiso   1.00
H31    H     0.80865   0.27375   0.89139   0.00000  Uiso   1.00
H32    H     0.84617   0.08398   0.89690   0.00000  Uiso   1.00
H33    H     0.80026   0.38283   0.71261   0.00000  Uiso   1.00
H34    H     0.77128   0.33523   0.05631   0.00000  Uiso   1.00
H35    H     0.90075   0.90394   0.91605   0.00000  Uiso   1.00
H36    H     0.80394   0.53411   0.52748   0.00000  Uiso   1.00
H37    H     0.74283   0.43373   0.25225   0.00000  Uiso   1.00
O38    O     0.97006   0.88342   0.96463   0.00000  Uiso   1.00
O39    O     0.84304   0.71019   0.45487   0.00000  Uiso   1.00
O40    O     0.76287   0.57850   0.40574   0.00000  Uiso   1.00
N41    N     0.96108   0.08306   0.98134   0.00000  Uiso   1.00
N42    N     0.87057   0.67221   0.61805   0.00000  Uiso   1.00
N43    N     0.81344   0.57840   0.29563   0.00000  Uiso   1.00
N44    N     0.91500   0.97533   0.93488   0.00000  Uiso   1.00
N45    N     0.82449   0.56449   0.57159   0.00000  Uiso   1.00
N46    N     0.76736   0.47068   0.24917   0.00000  Uiso   1.00
C47    C     0.61424   0.54601   0.46914   0.00000  Uiso   1.00
C48    C     0.60474   0.67456   0.46117   0.00000  Uiso   1.00
C49    C     0.57109   0.72264   0.48033   0.00000  Uiso   1.00
C50    C     0.56790   0.84212   0.46874   0.00000  Uiso   1.00
C51    C     0.54868   0.03126   0.46082   0.00000  Uiso   1.00
C52    C     0.62969   0.51220   0.36103   0.00000  Uiso   1.00
C53    C     0.61700   0.42375   0.29600   0.00000  Uiso   1.00
C54    C     0.63482   0.40654   0.20013   0.00000  Uiso   1.00
C55    C     0.65433   0.34355   0.03678   0.00000  Uiso   1.00
C56    C     0.64543   0.53807   0.54778   0.00000  Uiso   1.00
C57    C     0.64599   0.47135   0.63976   0.00000  Uiso   1.00
C58    C     0.67706   0.47590   0.70110   0.00000  Uiso   1.00
C59    C     0.72102   0.45308   0.82771   0.00000  Uiso   1.00
C60    C     0.66844   0.67268   0.41450   0.00000  Uiso   1.00
C61    C     0.63418   0.74337   0.43148   0.00000  Uiso   1.00
C62    C     0.63105   0.86280   0.41987   0.00000  Uiso   1.00
C63    C     0.59739   0.91105   0.43901   0.00000  Uiso   1.00
C64    C     0.65912   0.58100   0.33135   0.00000  Uiso   1.00
C65    C     0.67696   0.56391   0.23555   0.00000  Uiso   1.00
C66    C     0.66431   0.47547   0.17039   0.00000  Uiso   1.00
C67    C     0.67487   0.60688   0.51810   0.00000  Uiso   1.00
C68    C     0.70595   0.61152   0.57930   0.00000  Uiso   1.00
C69    C     0.70655   0.54483   0.67137   0.00000  Uiso   1.00
H70    H     0.59132   0.49243   0.49224   0.00000  Uiso   1.00
H71    H     0.54831   0.66936   0.50329   0.00000  Uiso   1.00
H72    H     0.59423   0.37052   0.31900   0.00000  Uiso   1.00
H73    H     0.62320   0.41812   0.66270   0.00000  Uiso   1.00
H74    H     0.51361   0.89587   0.50240   0.00000  Uiso   1.00
H75    H     0.61042   0.26570   0.11384   0.00000  Uiso   1.00
H76    H     0.67153   0.36607   0.83860   0.00000  Uiso   1.00
H77    H     0.69135   0.72625   0.39139   0.00000  Uiso   1.00
H78    H     0.65383   0.91602   0.39690   0.00000  Uiso   1.00
H79    H     0.69974   0.61717   0.21261   0.00000  Uiso   1.00
H80    H     0.72872   0.66477   0.55631   0.00000  Uiso   1.00
H81    H     0.59925   0.09606   0.41605   0.00000  Uiso   1.00
H82    H     0.69606   0.46589   0.02748   0.00000  Uiso   1.00
H83    H     0.75717   0.56627   0.75225   0.00000  Uiso   1.00
O84    O     0.52994   0.11658   0.46463   0.00000  Uiso   1.00
O85    O     0.65696   0.28981   0.95487   0.00000  Uiso   1.00
O86    O     0.73713   0.42150   0.90574   0.00000  Uiso   1.00
N87    N     0.53892   0.91694   0.48134   0.00000  Uiso   1.00
N88    N     0.62943   0.32779   0.11805   0.00000  Uiso   1.00
N89    N     0.68656   0.42160   0.79563   0.00000  Uiso   1.00
N90    N     0.58500   0.02467   0.43488   0.00000  Uiso   1.00
N91    N     0.67551   0.43551   0.07159   0.00000  Uiso   1.00
N92    N     0.73264   0.52932   0.74917   0.00000  Uiso   1.00
C93    C     0.11424   0.95399   0.53086   0.00000  Uiso   1.00
C94    C     0.10474   0.82544   0.53883   0.00000  Uiso   1.00
C95    C     0.07109   0.77736   0.51967   0.00000  Uiso   1.00
C96    C     0.06790   0.65788   0.53126   0.00000  Uiso   1.00
C97    C     0.04868   0.46874   0.53918   0.00000  Uiso   1.00
C98    C     0.12969   0.98780   0.63897   0.00000  Uiso   1.00
C99    C     0.11700   0.07625   0.70400   0.00000  Uiso   1.00
C100   C     0.13482   0.09346   0.79987   0.00000  Uiso   1.00
C101   C     0.15433   0.15645   0.96322   0.00000  Uiso   1.00
C102   C     0.14543   0.96193   0.45222   0.00000  Uiso   1.00
C103   C     0.14599   0.02865   0.36024   0.00000  Uiso   1.00
C104   C     0.17706   0.02410   0.29890   0.00000  Uiso   1.00
C105   C     0.22102   0.04692   0.17229   0.00000  Uiso   1.00
C106   C     0.16844   0.82732   0.58550   0.00000  Uiso   1.00
C107   C     0.13418   0.75663   0.56852   0.00000  Uiso   1.00
C108   C     0.13105   0.63720   0.58013   0.00000  Uiso   1.00
C109   C     0.09739   0.58895   0.56099   0.00000  Uiso   1.00
C110   C     0.15912   0.91900   0.66865   0.00000  Uiso   1.00
C111   C     0.17696   0.93609   0.76445   0.00000  Uiso   1.00
C112   C     0.16431   0.02453   0.82961   0.00000  Uiso   1.00
C113   C     0.17487   0.89312   0.48190   0.00000  Uiso   1.00
C114   C     0.20595   0.88848   0.42070   0.00000  Uiso   1.00
C115   C     0.20655   0.95517   0.32863   0.00000  Uiso   1.00
H116   H     0.09132   0.00757   0.50776   0.00000  Uiso   1.00
H117   H     0.04831   0.83064   0.49671   0.00000  Uiso   1.00
H118   H     0.09423   0.12948   0.68100   0.00000  Uiso   1.00
H119   H     0.12320   0.08188   0.33730   0.00000  Uiso   1.00
H120   H     0.01361   0.60413   0.49760   0.00000  Uiso   1.00
H121   H     0.11042   0.23430   0.88616   0.00000  Uiso   1.00
H122   H     0.17153   0.13393   0.16140   0.00000  Uiso   1.00
H123   H     0.19135   0.77375   0.60861   0.00000  Uiso   1.00
H124   H     0.15383   0.58398   0.60310   0.00000  Uiso   1.00
H125   H     0.19974   0.88283   0.78739   0.00000  Uiso   1.00
H126   H     0.22872   0.83523   0.44369   0.00000  Uiso   1.00
H127   H     0.09925   0.40394   0.58395   0.00000  Uiso   1.00
H128   H     0.19606   0.03411   0.97252   0.00000  Uiso   1.00
H129   H     0.25717   0.93373   0.24775   0.00000  Uiso   1.00
O130   O     0.02994   0.38342   0.53537   0.00000  Uiso   1.00
O131   O     0.15696   0.21019   0.04513   0.00000  Uiso   1.00
O132   O     0.23713   0.07850   0.09426   0.00000  Uiso   1.00
N133   N     0.03892   0.58306   0.51866   0.00000  Uiso   1.00
N134   N     0.12943   0.17221   0.88195   0.00000  Uiso   1.00
N135   N     0.18656   0.07840   0.20437   0.00000  Uiso   1.00
N136   N     0.08500   0.47533   0.56512   0.00000  Uiso   1.00
N137   N     0.17551   0.06449   0.92841   0.00000  Uiso   1.00
N138   N     0.23264   0.97068   0.25083   0.00000  Uiso   1.00
C139   C     0.38576   0.04601   0.03086   0.00000  Uiso   1.00
C140   C     0.39526   0.17456   0.03883   0.00000  Uiso   1.00
C141   C     0.42891   0.22264   0.01967   0.00000  Uiso   1.00
C142   C     0.43210   0.34212   0.03126   0.00000  Uiso   1.00
C143   C     0.45132   0.53126   0.03918   0.00000  Uiso   1.00
C144   C     0.37031   0.01220   0.13897   0.00000  Uiso   1.00
C145   C     0.38300   0.92375   0.20400   0.00000  Uiso   1.00
C146   C     0.36518   0.90654   0.29987   0.00000  Uiso   1.00
C147   C     0.34567   0.84355   0.46322   0.00000  Uiso   1.00
C148   C     0.35457   0.03807   0.95222   0.00000  Uiso   1.00
C149   C     0.35401   0.97135   0.86024   0.00000  Uiso   1.00
C150   C     0.32294   0.97590   0.79890   0.00000  Uiso   1.00
C151   C     0.27898   0.95308   0.67229   0.00000  Uiso   1.00
C152   C     0.33156   0.17268   0.08550   0.00000  Uiso   1.00
C153   C     0.36582   0.24337   0.06852   0.00000  Uiso   1.00
C154   C     0.36895   0.36280   0.08013   0.00000  Uiso   1.00
C155   C     0.40261   0.41105   0.06099   0.00000  Uiso   1.00
C156   C     0.34088   0.08100   0.16865   0.00000  Uiso   1.00
C157   C     0.32304   0.06391   0.26445   0.00000  Uiso   1.00
C158   C     0.33569   0.97547   0.32961   0.00000  Uiso   1.00
C159   C     0.32513   0.10688   0.98190   0.00000  Uiso   1.00
C160   C     0.29405   0.11152   0.92070   0.00000  Uiso   1.00
C161   C     0.29345   0.04483   0.82863   0.00000  Uiso   1.00
H162   H     0.40868   0.99243   0.00776   0.00000  Uiso   1.00
H163   H     0.45169   0.16936   0.99671   0.00000  Uiso   1.00
H164   H     0.40577   0.87052   0.18100   0.00000  Uiso   1.00
H165   H     0.37680   0.91812   0.83730   0.00000  Uiso   1.00
H166   H     0.48639   0.39587   0.99760   0.00000  Uiso   1.00
H167   H     0.38958   0.76570   0.38616   0.00000  Uiso   1.00
H168   H     0.32847   0.86607   0.66140   0.00000  Uiso   1.00
H169   H     0.30865   0.22625   0.10861   0.00000  Uiso   1.00
H170   H     0.34617   0.41602   0.10310   0.00000  Uiso   1.00
H171   H     0.30026   0.11717   0.28739   0.00000  Uiso   1.00
H172   H     0.27128   0.16477   0.94369   0.00000  Uiso   1.00
H173   H     0.40075   0.59606   0.08395   0.00000  Uiso   1.00
H174   H     0.30394   0.96589   0.47252   0.00000  Uiso   1.00
H175   H     0.24283   0.06627   0.74775   0.00000  Uiso   1.00
O176   O     0.47006   0.61658   0.03537   0.00000  Uiso   1.00
O177   O     0.34304   0.78981   0.54513   0.00000  Uiso   1.00
O178   O     0.26287   0.92150   0.59426   0.00000  Uiso   1.00
N179   N     0.46108   0.41694   0.01866   0.00000  Uiso   1.00
N180   N     0.37057   0.82779   0.38195   0.00000  Uiso   1.00
N181   N     0.31344   0.92160   0.70437   0.00000  Uiso   1.00
N182   N     0.41500   0.52467   0.06512   0.00000  Uiso   1.00
N183   N     0.32449   0.93551   0.42841   0.00000  Uiso   1.00
N184   N     0.26736   0.02932   0.75083   0.00000  Uiso   1.00
C185   C     0.11424   0.54601   0.03086   0.00000  Uiso   1.00
C186   C     0.10474   0.67456   0.03883   0.00000  Uiso   1.00
C187   C     0.07109   0.72264   0.01967   0.00000  Uiso   1.00
C188   C     0.06790   0.84212   0.03126   0.00000  Uiso   1.00
C189   C     0.04868   0.03126   0.03918   0.00000  Uiso   1.00
C190   C     0.12969   0.51220   0.13897   0.00000  Uiso   1.00
C191   C     0.11700   0.42375   0.20400   0.00000  Uiso   1.00
C192   C     0.13482   0.40654   0.29987   0.00000  Uiso   1.00
C193   C     0.15433   0.34355   0.46322   0.00000  Uiso   1.00
C194   C     0.14543   0.53807   0.95222   0.00000  Uiso   1.00
C195   C     0.14599   0.47135   0.86024   0.00000  Uiso   1.00
C196   C     0.17706   0.47590   0.79890   0.00000  Uiso   1.00
C197   C     0.22102   0.45308   0.67229   0.00000  Uiso   1.00
C198   C     0.16844   0.67268   0.08550   0.00000  Uiso   1.00
C199   C     0.13418   0.74337   0.06852   0.00000  Uiso   1.00
C200   C     0.13105   0.86280   0.08013   0.00000  Uiso   1.00
C201   C     0.09739   0.91105   0.06099   0.00000  Uiso   1.00
C202   C     0.15912   0.58100   0.16865   0.00000  Uiso   1.00
C203   C     0.17696   0.56391   0.26445   0.00000  Uiso   1.00
C204   C     0.16431   0.47547   0.32961   0.00000  Uiso   1.00
C205   C     0.17487   0.60688   0.98190   0.00000  Uiso   1.00
C206   C     0.20595   0.61152   0.92070   0.00000  Uiso   1.00
C207   C     0.20655   0.54483   0.82863   0.00000  Uiso   1.00
H208   H     0.09132   0.49243   0.00776   0.00000  Uiso   1.00
H209   H     0.04831   0.66936   0.99671   0.00000  Uiso   1.00
H210   H     0.09423   0.37052   0.18100   0.00000  Uiso   1.00
H211   H     0.12320   0.41812   0.83730   0.00000  Uiso   1.00
H212   H     0.01361   0.89587   0.99760   0.00000  Uiso   1.00
H213   H     0.11042   0.26570   0.38616   0.00000  Uiso   1.00
H214   H     0.17153   0.36607   0.66140   0.00000  Uiso   1.00
H215   H     0.19135   0.72625   0.10861   0.00000  Uiso   1.00
H216   H     0.15383   0.91602   0.10310   0.00000  Uiso   1.00
H217   H     0.19974   0.61717   0.28739   0.00000  Uiso   1.00
H218   H     0.22872   0.66477   0.94369   0.00000  Uiso   1.00
H219   H     0.09925   0.09606   0.08395   0.00000  Uiso   1.00
H220   H     0.19606   0.46589   0.47252   0.00000  Uiso   1.00
H221   H     0.25717   0.56627   0.74775   0.00000  Uiso   1.00
O222   O     0.02994   0.11658   0.03537   0.00000  Uiso   1.00
O223   O     0.15696   0.28981   0.54513   0.00000  Uiso   1.00
O224   O     0.23713   0.42150   0.59426   0.00000  Uiso   1.00
N225   N     0.03892   0.91694   0.01866   0.00000  Uiso   1.00
N226   N     0.12943   0.32779   0.38195   0.00000  Uiso   1.00
N227   N     0.18656   0.42160   0.70437   0.00000  Uiso   1.00
N228   N     0.08500   0.02467   0.06512   0.00000  Uiso   1.00
N229   N     0.17551   0.43551   0.42841   0.00000  Uiso   1.00
N230   N     0.23264   0.52932   0.75083   0.00000  Uiso   1.00
C231   C     0.38576   0.45399   0.53086   0.00000  Uiso   1.00
C232   C     0.39526   0.32544   0.53883   0.00000  Uiso   1.00
C233   C     0.42891   0.27736   0.51967   0.00000  Uiso   1.00
C234   C     0.43210   0.15788   0.53126   0.00000  Uiso   1.00
C235   C     0.45132   0.96874   0.53918   0.00000  Uiso   1.00
C236   C     0.37031   0.48780   0.63897   0.00000  Uiso   1.00
C237   C     0.38300   0.57625   0.70400   0.00000  Uiso   1.00
C238   C     0.36518   0.59346   0.79987   0.00000  Uiso   1.00
C239   C     0.34567   0.65645   0.96322   0.00000  Uiso   1.00
C240   C     0.35457   0.46193   0.45222   0.00000  Uiso   1.00
C241   C     0.35401   0.52865   0.36024   0.00000  Uiso   1.00
C242   C     0.32294   0.52410   0.29890   0.00000  Uiso   1.00
C243   C     0.27898   0.54692   0.17229   0.00000  Uiso   1.00
C244   C     0.33156   0.32732   0.58550   0.00000  Uiso   1.00
C245   C     0.36582   0.25663   0.56852   0.00000  Uiso   1.00
C246   C     0.36895   0.13720   0.58013   0.00000  Uiso   1.00
C247   C     0.40261   0.08895   0.56099   0.00000  Uiso   1.00
C248   C     0.34088   0.41900   0.66865   0.00000  Uiso   1.00
C249   C     0.32304   0.43609   0.76445   0.00000  Uiso   1.00
C250   C     0.33569   0.52453   0.82961   0.00000  Uiso   1.00
C251   C     0.32513   0.39312   0.48190   0.00000  Uiso   1.00
C252   C     0.29405   0.38848   0.42070   0.00000  Uiso   1.00
C253   C     0.29345   0.45517   0.32863   0.00000  Uiso   1.00
H254   H     0.40868   0.50757   0.50776   0.00000  Uiso   1.00
H255   H     0.45169   0.33064   0.49671   0.00000  Uiso   1.00
H256   H     0.40577   0.62948   0.68100   0.00000  Uiso   1.00
H257   H     0.37680   0.58188   0.33730   0.00000  Uiso   1.00
H258   H     0.48639   0.10413   0.49760   0.00000  Uiso   1.00
H259   H     0.38958   0.73430   0.88616   0.00000  Uiso   1.00
H260   H     0.32847   0.63393   0.16140   0.00000  Uiso   1.00
H261   H     0.30865   0.27375   0.60861   0.00000  Uiso   1.00
H262   H     0.34617   0.08398   0.60310   0.00000  Uiso   1.00
H263   H     0.30026   0.38283   0.78739   0.00000  Uiso   1.00
H264   H     0.27128   0.33523   0.44369   0.00000  Uiso   1.00
H265   H     0.40075   0.90394   0.58395   0.00000  Uiso   1.00
H266   H     0.30394   0.53411   0.97252   0.00000  Uiso   1.00
H267   H     0.24283   0.43373   0.24775   0.00000  Uiso   1.00
O268   O     0.47006   0.88342   0.53537   0.00000  Uiso   1.00
O269   O     0.34304   0.71019   0.04513   0.00000  Uiso   1.00
O270   O     0.26287   0.57850   0.09426   0.00000  Uiso   1.00
N271   N     0.46108   0.08306   0.51866   0.00000  Uiso   1.00
N272   N     0.37057   0.67221   0.88195   0.00000  Uiso   1.00
N273   N     0.31344   0.57840   0.20437   0.00000  Uiso   1.00
N274   N     0.41500   0.97533   0.56512   0.00000  Uiso   1.00
N275   N     0.32449   0.56449   0.92841   0.00000  Uiso   1.00
N276   N     0.26736   0.47068   0.25083   0.00000  Uiso   1.00
C277   C     0.88576   0.04601   0.46914   0.00000  Uiso   1.00
C278   C     0.89526   0.17456   0.46117   0.00000  Uiso   1.00
C279   C     0.92891   0.22264   0.48033   0.00000  Uiso   1.00
C280   C     0.93210   0.34212   0.46874   0.00000  Uiso   1.00
C281   C     0.95132   0.53126   0.46082   0.00000  Uiso   1.00
C282   C     0.87031   0.01220   0.36103   0.00000  Uiso   1.00
C283   C     0.88300   0.92375   0.29600   0.00000  Uiso   1.00
C284   C     0.86518   0.90654   0.20013   0.00000  Uiso   1.00
C285   C     0.84567   0.84355   0.03678   0.00000  Uiso   1.00
C286   C     0.85457   0.03807   0.54778   0.00000  Uiso   1.00
C287   C     0.85401   0.97135   0.63976   0.00000  Uiso   1.00
C288   C     0.82294   0.97590   0.70110   0.00000  Uiso   1.00
C289   C     0.77898   0.95308   0.82771   0.00000  Uiso   1.00
C290   C     0.83156   0.17268   0.41450   0.00000  Uiso   1.00
C291   C     0.86582   0.24337   0.43148   0.00000  Uiso   1.00
C292   C     0.86895   0.36280   0.41987   0.00000  Uiso   1.00
C293   C     0.90261   0.41105   0.43901   0.00000  Uiso   1.00
C294   C     0.84088   0.08100   0.33135   0.00000  Uiso   1.00
C295   C     0.82304   0.06391   0.23555   0.00000  Uiso   1.00
C296   C     0.83569   0.97547   0.17039   0.00000  Uiso   1.00
C297   C     0.82513   0.10688   0.51810   0.00000  Uiso   1.00
C298   C     0.79405   0.11152   0.57930   0.00000  Uiso   1.00
C299   C     0.79345   0.04483   0.67137   0.00000  Uiso   1.00
H300   H     0.90868   0.99243   0.49224   0.00000  Uiso   1.00
H301   H     0.95169   0.16936   0.50329   0.00000  Uiso   1.00
H302   H     0.90577   0.87052   0.31900   0.00000  Uiso   1.00
H303   H     0.87680   0.91812   0.66270   0.00000  Uiso   1.00
H304   H     0.98639   0.39587   0.50240   0.00000  Uiso   1.00
H305   H     0.88958   0.76570   0.11384   0.00000  Uiso   1.00
H306   H     0.82847   0.86607   0.83860   0.00000  Uiso   1.00
H307   H     0.80865   0.22625   0.39139   0.00000  Uiso   1.00
H308   H     0.84617   0.41602   0.39690   0.00000  Uiso   1.00
H309   H     0.80026   0.11717   0.21261   0.00000  Uiso   1.00
H310   H     0.77128   0.16477   0.55631   0.00000  Uiso   1.00
H311   H     0.90075   0.59606   0.41605   0.00000  Uiso   1.00
H312   H     0.80394   0.96589   0.02748   0.00000  Uiso   1.00
H313   H     0.74283   0.06627   0.75225   0.00000  Uiso   1.00
O314   O     0.97006   0.61658   0.46463   0.00000  Uiso   1.00
O315   O     0.84304   0.78981   0.95487   0.00000  Uiso   1.00
O316   O     0.76287   0.92150   0.90574   0.00000  Uiso   1.00
N317   N     0.96108   0.41694   0.48134   0.00000  Uiso   1.00
N318   N     0.87057   0.82779   0.11805   0.00000  Uiso   1.00
N319   N     0.81344   0.92160   0.79563   0.00000  Uiso   1.00
N320   N     0.91500   0.52467   0.43488   0.00000  Uiso   1.00
N321   N     0.82449   0.93551   0.07159   0.00000  Uiso   1.00
N322   N     0.76736   0.02932   0.74917   0.00000  Uiso   1.00
C323   C     0.61424   0.95399   0.96914   0.00000  Uiso   1.00
C324   C     0.60474   0.82544   0.96117   0.00000  Uiso   1.00
C325   C     0.57109   0.77736   0.98033   0.00000  Uiso   1.00
C326   C     0.56790   0.65788   0.96874   0.00000  Uiso   1.00
C327   C     0.54868   0.46874   0.96082   0.00000  Uiso   1.00
C328   C     0.62969   0.98780   0.86103   0.00000  Uiso   1.00
C329   C     0.61700   0.07625   0.79600   0.00000  Uiso   1.00
C330   C     0.63482   0.09346   0.70013   0.00000  Uiso   1.00
C331   C     0.65433   0.15645   0.53678   0.00000  Uiso   1.00
C332   C     0.64543   0.96193   0.04778   0.00000  Uiso   1.00
C333   C     0.64599   0.02865   0.13976   0.00000  Uiso   1.00
C334   C     0.67706   0.02410   0.20110   0.00000  Uiso   1.00
C335   C     0.72102   0.04692   0.32771   0.00000  Uiso   1.00
C336   C     0.66844   0.82732   0.91450   0.00000  Uiso   1.00
C337   C     0.63418   0.75663   0.93148   0.00000  Uiso   1.00
C338   C     0.63105   0.63720   0.91987   0.00000  Uiso   1.00
C339   C     0.59739   0.58895   0.93901   0.00000  Uiso   1.00
C340   C     0.65912   0.91900   0.83135   0.00000  Uiso   1.00
C341   C     0.67696   0.93609   0.73555   0.00000  Uiso   1.00
C342   C     0.66431   0.02453   0.67039   0.00000  Uiso   1.00
C343   C     0.67487   0.89312   0.01810   0.00000  Uiso   1.00
C344   C     0.70595   0.88848   0.07930   0.00000  Uiso   1.00
C345   C     0.70655   0.95517   0.17137   0.00000  Uiso   1.00
H346   H     0.59132   0.00757   0.99224   0.00000  Uiso   1.00
H347   H     0.54831   0.83064   0.00329   0.00000  Uiso   1.00
H348   H     0.59423   0.12948   0.81900   0.00000  Uiso   1.00
H349   H     0.62320   0.08188   0.16270   0.00000  Uiso   1.00
H350   H     0.51361   0.60413   0.00240   0.00000  Uiso   1.00
H351   H     0.61042   0.23430   0.61384   0.00000  Uiso   1.00
H352   H     0.67153   0.13393   0.33860   0.00000  Uiso   1.00
H353   H     0.69135   0.77375   0.89139   0.00000  Uiso   1.00
H354   H     0.65383   0.58398   0.89690   0.00000  Uiso   1.00
H355   H     0.69974   0.88283   0.71261   0.00000  Uiso   1.00
H356   H     0.72872   0.83523   0.05631   0.00000  Uiso   1.00
H357   H     0.59925   0.40394   0.91605   0.00000  Uiso   1.00
H358   H     0.69606   0.03411   0.52748   0.00000  Uiso   1.00
H359   H     0.75717   0.93373   0.25225   0.00000  Uiso   1.00
O360   O     0.52994   0.38342   0.96463   0.00000  Uiso   1.00
O361   O     0.65696   0.21019   0.45487   0.00000  Uiso   1.00
O362   O     0.73713   0.07850   0.40574   0.00000  Uiso   1.00
N363   N     0.53892   0.58306   0.98134   0.00000  Uiso   1.00
N364   N     0.62943   0.17221   0.61805   0.00000  Uiso   1.00
N365   N     0.68656   0.07840   0.29563   0.00000  Uiso   1.00
N366   N     0.58500   0.47533   0.93488   0.00000  Uiso   1.00
N367   N     0.67551   0.06449   0.57159   0.00000  Uiso   1.00
N368   N     0.73264   0.97068   0.24917   0.00000  Uiso   1.00
