data_job_06132
_audit_creation_date              2018-12-19
_audit_creation_method            'Materials Studio'
_symmetry_space_group_name_H-M    'P1'
_symmetry_Int_Tables_number       1
_symmetry_cell_setting            triclinic
loop_
_symmetry_equiv_pos_as_xyz
  x,y,z
_cell_length_a                    16.0038
_cell_length_b                    16.0046
_cell_length_c                    16.0053
_cell_angle_alpha                 91.7559
_cell_angle_beta                  91.7606
_cell_angle_gamma                 91.7649
loop_
_atom_site_label
_atom_site_type_symbol
_atom_site_fract_x
_atom_site_fract_y
_atom_site_fract_z
_atom_site_U_iso_or_equiv
_atom_site_adp_type
_atom_site_occupancy
C1     C     0.86730   0.53164   0.80649   0.00000  Uiso   1.00
C2     C     0.82215   0.51449   0.72213   0.00000  Uiso   1.00
C3     C     0.82241   0.56738   0.65503   0.00000  Uiso   1.00
C4     C     0.77723   0.54034   0.58330   0.00000  Uiso   1.00
C5     C     0.71376   0.52547   0.45299   0.00000  Uiso   1.00
C6     C     0.80044   0.52500   0.87203   0.00000  Uiso   1.00
C7     C     0.78245   0.58674   0.93097   0.00000  Uiso   1.00
C8     C     0.71899   0.56853   0.98543   0.00000  Uiso   1.00
C9     C     0.62186   0.56997   0.08789   0.00000  Uiso   1.00
C10    C     0.92399   0.45804   0.81978   0.00000  Uiso   1.00
C11    C     0.00989   0.46347   0.83481   0.00000  Uiso   1.00
C12    C     0.05045   0.38888   0.84530   0.00000  Uiso   1.00
C13    C     0.14515   0.28635   0.86662   0.00000  Uiso   1.00
C14    C     0.78660   0.38953   0.79842   0.00000  Uiso   1.00
C15    C     0.77832   0.43730   0.71775   0.00000  Uiso   1.00
C16    C     0.73313   0.41017   0.64610   0.00000  Uiso   1.00
C17    C     0.73332   0.46301   0.57890   0.00000  Uiso   1.00
C18    C     0.75661   0.44782   0.86765   0.00000  Uiso   1.00
C19    C     0.69317   0.42952   0.92204   0.00000  Uiso   1.00
C20    C     0.67508   0.49121   0.98104   0.00000  Uiso   1.00
C21    C     0.88016   0.38085   0.81539   0.00000  Uiso   1.00
C22    C     0.92060   0.30625   0.82587   0.00000  Uiso   1.00
C23    C     0.00654   0.31156   0.84091   0.00000  Uiso   1.00
H24    H     0.90142   0.59173   0.80991   0.00000  Uiso   1.00
H25    H     0.85633   0.62712   0.65845   0.00000  Uiso   1.00
H26    H     0.81638   0.64646   0.93436   0.00000  Uiso   1.00
H27    H     0.04378   0.52321   0.83820   0.00000  Uiso   1.00
H28    H     0.78699   0.63233   0.48861   0.00000  Uiso   1.00
H29    H     0.70277   0.67310   0.07039   0.00000  Uiso   1.00
H30    H     0.18229   0.41320   0.86762   0.00000  Uiso   1.00
H31    H     0.75247   0.32944   0.79501   0.00000  Uiso   1.00
H32    H     0.69922   0.35043   0.64273   0.00000  Uiso   1.00
H33    H     0.65926   0.36978   0.91863   0.00000  Uiso   1.00
H34    H     0.88666   0.24653   0.82248   0.00000  Uiso   1.00
H35    H     0.65947   0.40776   0.47585   0.00000  Uiso   1.00
H36    H     0.57525   0.44854   0.05763   0.00000  Uiso   1.00
H37    H     0.05477   0.18864   0.85486   0.00000  Uiso   1.00
O38    O     0.69086   0.53860   0.38233   0.00000  Uiso   1.00
O39    O     0.58038   0.59209   0.14561   0.00000  Uiso   1.00
O40    O     0.20950   0.25111   0.87959   0.00000  Uiso   1.00
N41    N     0.76430   0.57659   0.50650   0.00000  Uiso   1.00
N42    N     0.68555   0.61471   0.05042   0.00000  Uiso   1.00
N43    N     0.13386   0.37173   0.86087   0.00000  Uiso   1.00
N44    N     0.69568   0.45575   0.49963   0.00000  Uiso   1.00
N45    N     0.61693   0.49388   0.04355   0.00000  Uiso   1.00
N46    N     0.06524   0.25090   0.85401   0.00000  Uiso   1.00
C47    C     0.80649   0.86725   0.53161   0.00000  Uiso   1.00
C48    C     0.72212   0.82211   0.51446   0.00000  Uiso   1.00
C49    C     0.65502   0.82236   0.56736   0.00000  Uiso   1.00
C50    C     0.58328   0.77718   0.54031   0.00000  Uiso   1.00
C51    C     0.45296   0.71371   0.52544   0.00000  Uiso   1.00
C52    C     0.87204   0.80040   0.52499   0.00000  Uiso   1.00
C53    C     0.93099   0.78241   0.58672   0.00000  Uiso   1.00
C54    C     0.98545   0.71896   0.56853   0.00000  Uiso   1.00
C55    C     0.08792   0.62183   0.56997   0.00000  Uiso   1.00
C56    C     0.81978   0.92395   0.45801   0.00000  Uiso   1.00
C57    C     0.83482   0.00984   0.46344   0.00000  Uiso   1.00
C58    C     0.84531   0.05041   0.38885   0.00000  Uiso   1.00
C59    C     0.86663   0.14511   0.28632   0.00000  Uiso   1.00
C60    C     0.79841   0.78657   0.38952   0.00000  Uiso   1.00
C61    C     0.71774   0.77828   0.43729   0.00000  Uiso   1.00
C62    C     0.64608   0.73309   0.41015   0.00000  Uiso   1.00
C63    C     0.57888   0.73328   0.46299   0.00000  Uiso   1.00
C64    C     0.86765   0.75657   0.44781   0.00000  Uiso   1.00
C65    C     0.92205   0.69314   0.42952   0.00000  Uiso   1.00
C66    C     0.98106   0.67505   0.49121   0.00000  Uiso   1.00
C67    C     0.81539   0.88013   0.38083   0.00000  Uiso   1.00
C68    C     0.82587   0.92057   0.30623   0.00000  Uiso   1.00
C69    C     0.84091   0.00651   0.31154   0.00000  Uiso   1.00
H70    H     0.80992   0.90136   0.59170   0.00000  Uiso   1.00
H71    H     0.65844   0.85627   0.62708   0.00000  Uiso   1.00
H72    H     0.93437   0.81633   0.64644   0.00000  Uiso   1.00
H73    H     0.83821   0.04373   0.52317   0.00000  Uiso   1.00
H74    H     0.48858   0.78693   0.63229   0.00000  Uiso   1.00
H75    H     0.07042   0.70273   0.67309   0.00000  Uiso   1.00
H76    H     0.86764   0.18224   0.41316   0.00000  Uiso   1.00
H77    H     0.79500   0.75245   0.32943   0.00000  Uiso   1.00
H78    H     0.64270   0.69919   0.35042   0.00000  Uiso   1.00
H79    H     0.91864   0.65925   0.36978   0.00000  Uiso   1.00
H80    H     0.82247   0.88664   0.24652   0.00000  Uiso   1.00
H81    H     0.47581   0.65943   0.40775   0.00000  Uiso   1.00
H82    H     0.05765   0.57524   0.44855   0.00000  Uiso   1.00
H83    H     0.85487   0.05474   0.18862   0.00000  Uiso   1.00
O84    O     0.38229   0.69080   0.53857   0.00000  Uiso   1.00
O85    O     0.14564   0.58036   0.59210   0.00000  Uiso   1.00
O86    O     0.87960   0.20946   0.25108   0.00000  Uiso   1.00
N87    N     0.50647   0.76424   0.57655   0.00000  Uiso   1.00
N88    N     0.05044   0.68552   0.61471   0.00000  Uiso   1.00
N89    N     0.86089   0.13382   0.37170   0.00000  Uiso   1.00
N90    N     0.49960   0.69564   0.45573   0.00000  Uiso   1.00
N91    N     0.04357   0.61691   0.49389   0.00000  Uiso   1.00
N92    N     0.85401   0.06521   0.25087   0.00000  Uiso   1.00
C93    C     0.53166   0.80649   0.86722   0.00000  Uiso   1.00
C94    C     0.51450   0.72213   0.82209   0.00000  Uiso   1.00
C95    C     0.56740   0.65503   0.82234   0.00000  Uiso   1.00
C96    C     0.54035   0.58330   0.77717   0.00000  Uiso   1.00
C97    C     0.52547   0.45299   0.71372   0.00000  Uiso   1.00
C98    C     0.52503   0.87204   0.80037   0.00000  Uiso   1.00
C99    C     0.58677   0.93099   0.78237   0.00000  Uiso   1.00
C100   C     0.56858   0.98546   0.71892   0.00000  Uiso   1.00
C101   C     0.57002   0.08792   0.62179   0.00000  Uiso   1.00
C102   C     0.45805   0.81978   0.92391   0.00000  Uiso   1.00
C103   C     0.46348   0.83480   0.00980   0.00000  Uiso   1.00
C104   C     0.38889   0.84528   0.05036   0.00000  Uiso   1.00
C105   C     0.28635   0.86660   0.14506   0.00000  Uiso   1.00
C106   C     0.38955   0.79842   0.78654   0.00000  Uiso   1.00
C107   C     0.43732   0.71775   0.77826   0.00000  Uiso   1.00
C108   C     0.41017   0.64609   0.73308   0.00000  Uiso   1.00
C109   C     0.46302   0.57890   0.73327   0.00000  Uiso   1.00
C110   C     0.44785   0.86766   0.75654   0.00000  Uiso   1.00
C111   C     0.42955   0.92205   0.69311   0.00000  Uiso   1.00
C112   C     0.49125   0.98106   0.67502   0.00000  Uiso   1.00
C113   C     0.38087   0.81539   0.88009   0.00000  Uiso   1.00
C114   C     0.30626   0.82586   0.92053   0.00000  Uiso   1.00
C115   C     0.31157   0.84089   0.00646   0.00000  Uiso   1.00
H116   H     0.59175   0.80992   0.90134   0.00000  Uiso   1.00
H117   H     0.62713   0.65846   0.85626   0.00000  Uiso   1.00
H118   H     0.64650   0.93438   0.81630   0.00000  Uiso   1.00
H119   H     0.52322   0.83819   0.04369   0.00000  Uiso   1.00
H120   H     0.63233   0.48861   0.78693   0.00000  Uiso   1.00
H121   H     0.67316   0.07042   0.70270   0.00000  Uiso   1.00
H122   H     0.41321   0.86761   0.18219   0.00000  Uiso   1.00
H123   H     0.32945   0.79500   0.75242   0.00000  Uiso   1.00
H124   H     0.35044   0.64272   0.69917   0.00000  Uiso   1.00
H125   H     0.36981   0.91864   0.65921   0.00000  Uiso   1.00
H126   H     0.24654   0.82246   0.88660   0.00000  Uiso   1.00
H127   H     0.40776   0.47584   0.65943   0.00000  Uiso   1.00
H128   H     0.44859   0.05765   0.57520   0.00000  Uiso   1.00
H129   H     0.18864   0.85483   0.05469   0.00000  Uiso   1.00
O130   O     0.53859   0.38233   0.69082   0.00000  Uiso   1.00
O131   O     0.59215   0.14565   0.58032   0.00000  Uiso   1.00
O132   O     0.25111   0.87956   0.20940   0.00000  Uiso   1.00
N133   N     0.57659   0.50650   0.76424   0.00000  Uiso   1.00
N134   N     0.61477   0.05045   0.68548   0.00000  Uiso   1.00
N135   N     0.37174   0.86086   0.13376   0.00000  Uiso   1.00
N136   N     0.45575   0.49962   0.69564   0.00000  Uiso   1.00
N137   N     0.49393   0.04357   0.61687   0.00000  Uiso   1.00
N138   N     0.25090   0.85398   0.06516   0.00000  Uiso   1.00
C139   C     0.13270   0.46836   0.19351   0.00000  Uiso   1.00
C140   C     0.17785   0.48551   0.27787   0.00000  Uiso   1.00
C141   C     0.17759   0.43262   0.34497   0.00000  Uiso   1.00
C142   C     0.22277   0.45966   0.41670   0.00000  Uiso   1.00
C143   C     0.28624   0.47453   0.54701   0.00000  Uiso   1.00
C144   C     0.19956   0.47500   0.12797   0.00000  Uiso   1.00
C145   C     0.21755   0.41326   0.06903   0.00000  Uiso   1.00
C146   C     0.28101   0.43147   0.01457   0.00000  Uiso   1.00
C147   C     0.37814   0.43003   0.91211   0.00000  Uiso   1.00
C148   C     0.07601   0.54196   0.18022   0.00000  Uiso   1.00
C149   C     0.99011   0.53653   0.16519   0.00000  Uiso   1.00
C150   C     0.94955   0.61112   0.15470   0.00000  Uiso   1.00
C151   C     0.85485   0.71365   0.13338   0.00000  Uiso   1.00
C152   C     0.21340   0.61047   0.20158   0.00000  Uiso   1.00
C153   C     0.22168   0.56270   0.28225   0.00000  Uiso   1.00
C154   C     0.26687   0.58983   0.35390   0.00000  Uiso   1.00
C155   C     0.26668   0.53699   0.42110   0.00000  Uiso   1.00
C156   C     0.24339   0.55218   0.13235   0.00000  Uiso   1.00
C157   C     0.30683   0.57048   0.07796   0.00000  Uiso   1.00
C158   C     0.32492   0.50879   0.01896   0.00000  Uiso   1.00
C159   C     0.11984   0.61915   0.18461   0.00000  Uiso   1.00
C160   C     0.07940   0.69375   0.17413   0.00000  Uiso   1.00
C161   C     0.99346   0.68844   0.15909   0.00000  Uiso   1.00
H162   H     0.09858   0.40827   0.19009   0.00000  Uiso   1.00
H163   H     0.14367   0.37288   0.34155   0.00000  Uiso   1.00
H164   H     0.18362   0.35354   0.06564   0.00000  Uiso   1.00
H165   H     0.95622   0.47679   0.16180   0.00000  Uiso   1.00
H166   H     0.21301   0.36767   0.51139   0.00000  Uiso   1.00
H167   H     0.29723   0.32690   0.92961   0.00000  Uiso   1.00
H168   H     0.81771   0.58680   0.13238   0.00000  Uiso   1.00
H169   H     0.24753   0.67056   0.20499   0.00000  Uiso   1.00
H170   H     0.30078   0.64957   0.35727   0.00000  Uiso   1.00
H171   H     0.34074   0.63022   0.08137   0.00000  Uiso   1.00
H172   H     0.11334   0.75347   0.17752   0.00000  Uiso   1.00
H173   H     0.34053   0.59224   0.52415   0.00000  Uiso   1.00
H174   H     0.42475   0.55146   0.94237   0.00000  Uiso   1.00
H175   H     0.94523   0.81136   0.14514   0.00000  Uiso   1.00
O176   O     0.30914   0.46140   0.61767   0.00000  Uiso   1.00
O177   O     0.41962   0.40791   0.85439   0.00000  Uiso   1.00
O178   O     0.79050   0.74889   0.12041   0.00000  Uiso   1.00
N179   N     0.23570   0.42341   0.49350   0.00000  Uiso   1.00
N180   N     0.31445   0.38529   0.94958   0.00000  Uiso   1.00
N181   N     0.86614   0.62827   0.13913   0.00000  Uiso   1.00
N182   N     0.30432   0.54425   0.50037   0.00000  Uiso   1.00
N183   N     0.38307   0.50612   0.95645   0.00000  Uiso   1.00
N184   N     0.93476   0.74910   0.14599   0.00000  Uiso   1.00
C185   C     0.19351   0.13275   0.46839   0.00000  Uiso   1.00
C186   C     0.27788   0.17789   0.48554   0.00000  Uiso   1.00
C187   C     0.34498   0.17764   0.43264   0.00000  Uiso   1.00
C188   C     0.41672   0.22282   0.45969   0.00000  Uiso   1.00
C189   C     0.54704   0.28629   0.47456   0.00000  Uiso   1.00
C190   C     0.12796   0.19960   0.47501   0.00000  Uiso   1.00
C191   C     0.06901   0.21759   0.41328   0.00000  Uiso   1.00
C192   C     0.01455   0.28104   0.43147   0.00000  Uiso   1.00
C193   C     0.91208   0.37817   0.43003   0.00000  Uiso   1.00
C194   C     0.18022   0.07605   0.54199   0.00000  Uiso   1.00
C195   C     0.16518   0.99016   0.53656   0.00000  Uiso   1.00
C196   C     0.15469   0.94959   0.61115   0.00000  Uiso   1.00
C197   C     0.13337   0.85488   0.71368   0.00000  Uiso   1.00
C198   C     0.20159   0.21343   0.61048   0.00000  Uiso   1.00
C199   C     0.28226   0.22172   0.56271   0.00000  Uiso   1.00
C200   C     0.35392   0.26691   0.58985   0.00000  Uiso   1.00
C201   C     0.42112   0.26672   0.53701   0.00000  Uiso   1.00
C202   C     0.13235   0.24343   0.55219   0.00000  Uiso   1.00
C203   C     0.07795   0.30686   0.57048   0.00000  Uiso   1.00
C204   C     0.01894   0.32495   0.50879   0.00000  Uiso   1.00
C205   C     0.18461   0.11987   0.61916   0.00000  Uiso   1.00
C206   C     0.17413   0.07943   0.69377   0.00000  Uiso   1.00
C207   C     0.15909   0.99349   0.68846   0.00000  Uiso   1.00
H208   H     0.19008   0.09864   0.40830   0.00000  Uiso   1.00
H209   H     0.34156   0.14373   0.37292   0.00000  Uiso   1.00
H210   H     0.06563   0.18367   0.35356   0.00000  Uiso   1.00
H211   H     0.16179   0.95627   0.47683   0.00000  Uiso   1.00
H212   H     0.51142   0.21307   0.36771   0.00000  Uiso   1.00
H213   H     0.92958   0.29727   0.32691   0.00000  Uiso   1.00
H214   H     0.13236   0.81775   0.58684   0.00000  Uiso   1.00
H215   H     0.20500   0.24755   0.67057   0.00000  Uiso   1.00
H216   H     0.35730   0.30081   0.64958   0.00000  Uiso   1.00
H217   H     0.08136   0.34075   0.63022   0.00000  Uiso   1.00
H218   H     0.17753   0.11336   0.75348   0.00000  Uiso   1.00
H219   H     0.52419   0.34057   0.59225   0.00000  Uiso   1.00
H220   H     0.94235   0.42476   0.55145   0.00000  Uiso   1.00
H221   H     0.14513   0.94526   0.81138   0.00000  Uiso   1.00
O222   O     0.61771   0.30920   0.46143   0.00000  Uiso   1.00
O223   O     0.85436   0.41964   0.40790   0.00000  Uiso   1.00
O224   O     0.12040   0.79054   0.74892   0.00000  Uiso   1.00
N225   N     0.49353   0.23576   0.42345   0.00000  Uiso   1.00
N226   N     0.94956   0.31448   0.38529   0.00000  Uiso   1.00
N227   N     0.13911   0.86618   0.62830   0.00000  Uiso   1.00
N228   N     0.50040   0.30436   0.54427   0.00000  Uiso   1.00
N229   N     0.95643   0.38309   0.50611   0.00000  Uiso   1.00
N230   N     0.14599   0.93479   0.74913   0.00000  Uiso   1.00
C231   C     0.46834   0.19351   0.13278   0.00000  Uiso   1.00
C232   C     0.48550   0.27787   0.17791   0.00000  Uiso   1.00
C233   C     0.43260   0.34497   0.17766   0.00000  Uiso   1.00
C234   C     0.45965   0.41670   0.22283   0.00000  Uiso   1.00
C235   C     0.47453   0.54701   0.28628   0.00000  Uiso   1.00
C236   C     0.47497   0.12796   0.19963   0.00000  Uiso   1.00
C237   C     0.41323   0.06901   0.21763   0.00000  Uiso   1.00
C238   C     0.43142   0.01454   0.28108   0.00000  Uiso   1.00
C239   C     0.42998   0.91207   0.37821   0.00000  Uiso   1.00
C240   C     0.54195   0.18022   0.07609   0.00000  Uiso   1.00
C241   C     0.53652   0.16520   0.99020   0.00000  Uiso   1.00
C242   C     0.61111   0.15472   0.94964   0.00000  Uiso   1.00
C243   C     0.71365   0.13340   0.85494   0.00000  Uiso   1.00
C244   C     0.61045   0.20158   0.21346   0.00000  Uiso   1.00
C245   C     0.56268   0.28225   0.22174   0.00000  Uiso   1.00
C246   C     0.58983   0.35391   0.26692   0.00000  Uiso   1.00
C247   C     0.53698   0.42110   0.26673   0.00000  Uiso   1.00
C248   C     0.55215   0.13234   0.24346   0.00000  Uiso   1.00
C249   C     0.57045   0.07795   0.30689   0.00000  Uiso   1.00
C250   C     0.50875   0.01894   0.32498   0.00000  Uiso   1.00
C251   C     0.61913   0.18461   0.11991   0.00000  Uiso   1.00
C252   C     0.69374   0.17414   0.07947   0.00000  Uiso   1.00
C253   C     0.68843   0.15911   0.99354   0.00000  Uiso   1.00
H254   H     0.40825   0.19008   0.09866   0.00000  Uiso   1.00
H255   H     0.37287   0.34154   0.14374   0.00000  Uiso   1.00
H256   H     0.35350   0.06562   0.18370   0.00000  Uiso   1.00
H257   H     0.47678   0.16181   0.95631   0.00000  Uiso   1.00
H258   H     0.36767   0.51139   0.21307   0.00000  Uiso   1.00
H259   H     0.32684   0.92958   0.29730   0.00000  Uiso   1.00
H260   H     0.58679   0.13239   0.81781   0.00000  Uiso   1.00
H261   H     0.67054   0.20500   0.24758   0.00000  Uiso   1.00
H262   H     0.64956   0.35728   0.30083   0.00000  Uiso   1.00
H263   H     0.63019   0.08136   0.34079   0.00000  Uiso   1.00
H264   H     0.75346   0.17754   0.11340   0.00000  Uiso   1.00
H265   H     0.59224   0.52416   0.34057   0.00000  Uiso   1.00
H266   H     0.55141   0.94235   0.42480   0.00000  Uiso   1.00
H267   H     0.81136   0.14517   0.94531   0.00000  Uiso   1.00
O268   O     0.46141   0.61767   0.30918   0.00000  Uiso   1.00
O269   O     0.40785   0.85435   0.41968   0.00000  Uiso   1.00
O270   O     0.74889   0.12044   0.79060   0.00000  Uiso   1.00
N271   N     0.42341   0.49350   0.23576   0.00000  Uiso   1.00
N272   N     0.38523   0.94955   0.31452   0.00000  Uiso   1.00
N273   N     0.62826   0.13914   0.86624   0.00000  Uiso   1.00
N274   N     0.54425   0.50038   0.30436   0.00000  Uiso   1.00
N275   N     0.50607   0.95643   0.38313   0.00000  Uiso   1.00
N276   N     0.74910   0.14602   0.93484   0.00000  Uiso   1.00
