data_job_02967
_audit_creation_date              2018-12-19
_audit_creation_method            'Materials Studio'
_symmetry_space_group_name_H-M    'P1'
_symmetry_Int_Tables_number       1
_symmetry_cell_setting            triclinic
loop_
_symmetry_equiv_pos_as_xyz
  x,y,z
_cell_length_a                    16.2797
_cell_length_b                    16.2797
_cell_length_c                    35.3795
_cell_angle_alpha                 90.0000
_cell_angle_beta                  90.0000
_cell_angle_gamma                 120.0000
loop_
_atom_site_label
_atom_site_type_symbol
_atom_site_fract_x
_atom_site_fract_y
_atom_site_fract_z
_atom_site_U_iso_or_equiv
_atom_site_adp_type
_atom_site_occupancy
C1     C     0.53369   0.24454   0.68586   0.00000  Uiso   1.00
C2     C     0.47852   0.18493   0.65184   0.00000  Uiso   1.00
C3     C     0.49297   0.11725   0.63402   0.00000  Uiso   1.00
C4     C     0.43513   0.07038   0.60335   0.00000  Uiso   1.00
C5     C     0.36012   0.97480   0.55240   0.00000  Uiso   1.00
C6     C     0.57458   0.34773   0.67392   0.00000  Uiso   1.00
C7     C     0.66980   0.41692   0.67468   0.00000  Uiso   1.00
C8     C     0.69282   0.50710   0.66261   0.00000  Uiso   1.00
C9     C     0.76694   0.66428   0.64597   0.00000  Uiso   1.00
C10    C     0.45997   0.22639   0.71620   0.00000  Uiso   1.00
C11    C     0.45883   0.19358   0.75251   0.00000  Uiso   1.00
C12    C     0.38537   0.18162   0.77604   0.00000  Uiso   1.00
C13    C     0.28154   0.15040   0.82504   0.00000  Uiso   1.00
C14    C     0.40529   0.28166   0.66308   0.00000  Uiso   1.00
C15    C     0.40878   0.20510   0.63946   0.00000  Uiso   1.00
C16    C     0.35091   0.15832   0.60882   0.00000  Uiso   1.00
C17    C     0.36526   0.09057   0.59096   0.00000  Uiso   1.00
C18    C     0.50485   0.36789   0.66155   0.00000  Uiso   1.00
C19    C     0.52774   0.45799   0.64947   0.00000  Uiso   1.00
C20    C     0.62296   0.52730   0.65021   0.00000  Uiso   1.00
C21    C     0.39023   0.24655   0.70383   0.00000  Uiso   1.00
C22    C     0.31677   0.23464   0.72730   0.00000  Uiso   1.00
C23    C     0.31551   0.20182   0.76364   0.00000  Uiso   1.00
H24    H     0.58799   0.22885   0.69550   0.00000  Uiso   1.00
H25    H     0.54695   0.10167   0.64361   0.00000  Uiso   1.00
H26    H     0.72375   0.40130   0.68426   0.00000  Uiso   1.00
H27    H     0.51281   0.17799   0.76208   0.00000  Uiso   1.00
H28    H     0.47073   0.96959   0.58061   0.00000  Uiso   1.00
H29    H     0.84351   0.60138   0.66635   0.00000  Uiso   1.00
H30    H     0.39871   0.13049   0.83045   0.00000  Uiso   1.00
H31    H     0.35099   0.29736   0.65344   0.00000  Uiso   1.00
H32    H     0.29694   0.17394   0.59924   0.00000  Uiso   1.00
H33    H     0.47375   0.47357   0.63990   0.00000  Uiso   1.00
H34    H     0.26281   0.25025   0.71772   0.00000  Uiso   1.00
H35    H     0.26781   0.02825   0.54461   0.00000  Uiso   1.00
H36    H     0.64060   0.66004   0.63035   0.00000  Uiso   1.00
H37    H     0.19579   0.18914   0.79444   0.00000  Uiso   1.00
O38    O     0.33801   0.91652   0.52771   0.00000  Uiso   1.00
O39    O     0.82709   0.74540   0.64020   0.00000  Uiso   1.00
O40    O     0.24352   0.12760   0.85549   0.00000  Uiso   1.00
N41    N     0.43037   0.00032   0.57958   0.00000  Uiso   1.00
N42    N     0.77891   0.59100   0.65974   0.00000  Uiso   1.00
N43    N     0.36307   0.15078   0.81315   0.00000  Uiso   1.00
N44    N     0.32119   0.03188   0.56021   0.00000  Uiso   1.00
N45    N     0.66972   0.62256   0.64036   0.00000  Uiso   1.00
N46    N     0.25388   0.18234   0.79378   0.00000  Uiso   1.00
C47    C     0.75546   0.28915   0.35253   0.00000  Uiso   1.00
C48    C     0.81507   0.29359   0.31851   0.00000  Uiso   1.00
C49    C     0.88275   0.37572   0.30069   0.00000  Uiso   1.00
C50    C     0.92962   0.36476   0.27002   0.00000  Uiso   1.00
C51    C     0.02520   0.38532   0.21907   0.00000  Uiso   1.00
C52    C     0.65227   0.22686   0.34059   0.00000  Uiso   1.00
C53    C     0.58308   0.25288   0.34135   0.00000  Uiso   1.00
C54    C     0.49290   0.18573   0.32928   0.00000  Uiso   1.00
C55    C     0.33572   0.10266   0.31263   0.00000  Uiso   1.00
C56    C     0.77361   0.23358   0.38287   0.00000  Uiso   1.00
C57    C     0.80642   0.26525   0.41918   0.00000  Uiso   1.00
C58    C     0.81838   0.20376   0.44271   0.00000  Uiso   1.00
C59    C     0.84960   0.13114   0.49171   0.00000  Uiso   1.00
C60    C     0.71834   0.12363   0.32974   0.00000  Uiso   1.00
C61    C     0.79490   0.20368   0.30613   0.00000  Uiso   1.00
C62    C     0.84168   0.19259   0.27548   0.00000  Uiso   1.00
C63    C     0.90943   0.27469   0.25762   0.00000  Uiso   1.00
C64    C     0.63211   0.13695   0.32822   0.00000  Uiso   1.00
C65    C     0.54201   0.06975   0.31614   0.00000  Uiso   1.00
C66    C     0.47270   0.09566   0.31688   0.00000  Uiso   1.00
C67    C     0.75345   0.14368   0.37049   0.00000  Uiso   1.00
C68    C     0.76536   0.08212   0.39397   0.00000  Uiso   1.00
C69    C     0.79818   0.11369   0.43031   0.00000  Uiso   1.00
H70    H     0.77115   0.35914   0.36216   0.00000  Uiso   1.00
H71    H     0.89833   0.44528   0.31027   0.00000  Uiso   1.00
H72    H     0.59870   0.32245   0.35093   0.00000  Uiso   1.00
H73    H     0.82201   0.33483   0.42875   0.00000  Uiso   1.00
H74    H     0.03041   0.50113   0.24728   0.00000  Uiso   1.00
H75    H     0.39862   0.24213   0.33302   0.00000  Uiso   1.00
H76    H     0.86951   0.26822   0.49711   0.00000  Uiso   1.00
H77    H     0.70264   0.05363   0.32011   0.00000  Uiso   1.00
H78    H     0.82606   0.12301   0.26591   0.00000  Uiso   1.00
H79    H     0.52643   0.00018   0.30657   0.00000  Uiso   1.00
H80    H     0.74975   0.01256   0.38438   0.00000  Uiso   1.00
H81    H     0.97175   0.23956   0.21127   0.00000  Uiso   1.00
H82    H     0.33996   0.98056   0.29701   0.00000  Uiso   1.00
H83    H     0.81086   0.00665   0.46110   0.00000  Uiso   1.00
O84    O     0.08348   0.42149   0.19438   0.00000  Uiso   1.00
O85    O     0.25460   0.08169   0.30687   0.00000  Uiso   1.00
O86    O     0.87240   0.11592   0.52215   0.00000  Uiso   1.00
N87    N     0.99968   0.43005   0.24625   0.00000  Uiso   1.00
N88    N     0.40900   0.18790   0.32640   0.00000  Uiso   1.00
N89    N     0.84922   0.21229   0.47982   0.00000  Uiso   1.00
N90    N     0.96812   0.28930   0.22687   0.00000  Uiso   1.00
N91    N     0.37744   0.04716   0.30703   0.00000  Uiso   1.00
N92    N     0.81766   0.07154   0.46044   0.00000  Uiso   1.00
C93    C     0.71085   0.46631   0.01919   0.00000  Uiso   1.00
C94    C     0.70641   0.52148   0.98517   0.00000  Uiso   1.00
C95    C     0.62428   0.50703   0.96736   0.00000  Uiso   1.00
C96    C     0.63524   0.56487   0.93669   0.00000  Uiso   1.00
C97    C     0.61468   0.63988   0.88573   0.00000  Uiso   1.00
C98    C     0.77314   0.42542   0.00726   0.00000  Uiso   1.00
C99    C     0.74712   0.33020   0.00802   0.00000  Uiso   1.00
C100   C     0.81427   0.30718   0.99594   0.00000  Uiso   1.00
C101   C     0.89734   0.23306   0.97930   0.00000  Uiso   1.00
C102   C     0.76642   0.54003   0.04954   0.00000  Uiso   1.00
C103   C     0.73475   0.54117   0.08585   0.00000  Uiso   1.00
C104   C     0.79624   0.61463   0.10937   0.00000  Uiso   1.00
C105   C     0.86886   0.71846   0.15837   0.00000  Uiso   1.00
C106   C     0.87637   0.59471   0.99641   0.00000  Uiso   1.00
C107   C     0.79632   0.59122   0.97280   0.00000  Uiso   1.00
C108   C     0.80741   0.64909   0.94215   0.00000  Uiso   1.00
C109   C     0.72531   0.63474   0.92429   0.00000  Uiso   1.00
C110   C     0.86305   0.49515   0.99488   0.00000  Uiso   1.00
C111   C     0.93025   0.47226   0.98281   0.00000  Uiso   1.00
C112   C     0.90434   0.37704   0.98354   0.00000  Uiso   1.00
C113   C     0.85632   0.60977   0.03716   0.00000  Uiso   1.00
C114   C     0.91788   0.68323   0.06064   0.00000  Uiso   1.00
C115   C     0.88631   0.68449   0.09698   0.00000  Uiso   1.00
H116   H     0.64086   0.41201   0.02883   0.00000  Uiso   1.00
H117   H     0.55472   0.45305   0.97694   0.00000  Uiso   1.00
H118   H     0.67755   0.27625   0.01760   0.00000  Uiso   1.00
H119   H     0.66517   0.48719   0.09541   0.00000  Uiso   1.00
H120   H     0.49887   0.52927   0.91395   0.00000  Uiso   1.00
H121   H     0.75787   0.15649   0.99969   0.00000  Uiso   1.00
H122   H     0.73178   0.60129   0.16378   0.00000  Uiso   1.00
H123   H     0.94637   0.64901   0.98678   0.00000  Uiso   1.00
H124   H     0.87699   0.70306   0.93258   0.00000  Uiso   1.00
H125   H     0.99982   0.52625   0.97323   0.00000  Uiso   1.00
H126   H     0.98744   0.73719   0.05105   0.00000  Uiso   1.00
H127   H     0.76044   0.73219   0.87794   0.00000  Uiso   1.00
H128   H     0.01944   0.35940   0.96368   0.00000  Uiso   1.00
H129   H     0.99335   0.80421   0.12777   0.00000  Uiso   1.00
O130   O     0.57851   0.66199   0.86104   0.00000  Uiso   1.00
O131   O     0.91831   0.17291   0.97354   0.00000  Uiso   1.00
O132   O     0.88408   0.75648   0.18882   0.00000  Uiso   1.00
N133   N     0.56995   0.56963   0.91292   0.00000  Uiso   1.00
N134   N     0.81210   0.22109   0.99307   0.00000  Uiso   1.00
N135   N     0.78771   0.63693   0.14649   0.00000  Uiso   1.00
N136   N     0.71070   0.67881   0.89354   0.00000  Uiso   1.00
N137   N     0.95284   0.33028   0.97369   0.00000  Uiso   1.00
N138   N     0.92846   0.74612   0.12711   0.00000  Uiso   1.00
C139   C     0.46631   0.75546   0.18586   0.00000  Uiso   1.00
C140   C     0.52148   0.81507   0.15184   0.00000  Uiso   1.00
C141   C     0.50703   0.88275   0.13402   0.00000  Uiso   1.00
C142   C     0.56487   0.92962   0.10335   0.00000  Uiso   1.00
C143   C     0.63988   0.02520   0.05240   0.00000  Uiso   1.00
C144   C     0.42542   0.65227   0.17392   0.00000  Uiso   1.00
C145   C     0.33020   0.58308   0.17468   0.00000  Uiso   1.00
C146   C     0.30718   0.49290   0.16261   0.00000  Uiso   1.00
C147   C     0.23306   0.33572   0.14597   0.00000  Uiso   1.00
C148   C     0.54003   0.77361   0.21620   0.00000  Uiso   1.00
C149   C     0.54117   0.80642   0.25251   0.00000  Uiso   1.00
C150   C     0.61463   0.81838   0.27604   0.00000  Uiso   1.00
C151   C     0.71846   0.84960   0.32504   0.00000  Uiso   1.00
C152   C     0.59471   0.71834   0.16308   0.00000  Uiso   1.00
C153   C     0.59122   0.79490   0.13946   0.00000  Uiso   1.00
C154   C     0.64909   0.84168   0.10882   0.00000  Uiso   1.00
C155   C     0.63474   0.90943   0.09096   0.00000  Uiso   1.00
C156   C     0.49515   0.63211   0.16155   0.00000  Uiso   1.00
C157   C     0.47226   0.54201   0.14947   0.00000  Uiso   1.00
C158   C     0.37704   0.47270   0.15021   0.00000  Uiso   1.00
C159   C     0.60977   0.75345   0.20383   0.00000  Uiso   1.00
C160   C     0.68323   0.76536   0.22730   0.00000  Uiso   1.00
C161   C     0.68449   0.79818   0.26364   0.00000  Uiso   1.00
H162   H     0.41201   0.77115   0.19550   0.00000  Uiso   1.00
H163   H     0.45305   0.89833   0.14361   0.00000  Uiso   1.00
H164   H     0.27625   0.59870   0.18426   0.00000  Uiso   1.00
H165   H     0.48719   0.82201   0.26208   0.00000  Uiso   1.00
H166   H     0.52927   0.03041   0.08061   0.00000  Uiso   1.00
H167   H     0.15649   0.39862   0.16635   0.00000  Uiso   1.00
H168   H     0.60129   0.86951   0.33045   0.00000  Uiso   1.00
H169   H     0.64901   0.70264   0.15344   0.00000  Uiso   1.00
H170   H     0.70306   0.82606   0.09924   0.00000  Uiso   1.00
H171   H     0.52625   0.52643   0.13990   0.00000  Uiso   1.00
H172   H     0.73719   0.74975   0.21772   0.00000  Uiso   1.00
H173   H     0.73219   0.97175   0.04461   0.00000  Uiso   1.00
H174   H     0.35940   0.33996   0.13035   0.00000  Uiso   1.00
H175   H     0.80421   0.81086   0.29444   0.00000  Uiso   1.00
O176   O     0.66199   0.08348   0.02771   0.00000  Uiso   1.00
O177   O     0.17291   0.25460   0.14020   0.00000  Uiso   1.00
O178   O     0.75648   0.87240   0.35549   0.00000  Uiso   1.00
N179   N     0.56963   0.99968   0.07958   0.00000  Uiso   1.00
N180   N     0.22109   0.40900   0.15974   0.00000  Uiso   1.00
N181   N     0.63693   0.84922   0.31315   0.00000  Uiso   1.00
N182   N     0.67881   0.96812   0.06021   0.00000  Uiso   1.00
N183   N     0.33028   0.37744   0.14036   0.00000  Uiso   1.00
N184   N     0.74612   0.81766   0.29378   0.00000  Uiso   1.00
C185   C     0.24454   0.71085   0.85253   0.00000  Uiso   1.00
C186   C     0.18493   0.70641   0.81851   0.00000  Uiso   1.00
C187   C     0.11725   0.62428   0.80069   0.00000  Uiso   1.00
C188   C     0.07038   0.63524   0.77002   0.00000  Uiso   1.00
C189   C     0.97480   0.61468   0.71907   0.00000  Uiso   1.00
C190   C     0.34773   0.77314   0.84059   0.00000  Uiso   1.00
C191   C     0.41692   0.74712   0.84135   0.00000  Uiso   1.00
C192   C     0.50710   0.81427   0.82928   0.00000  Uiso   1.00
C193   C     0.66428   0.89734   0.81263   0.00000  Uiso   1.00
C194   C     0.22639   0.76642   0.88287   0.00000  Uiso   1.00
C195   C     0.19358   0.73475   0.91918   0.00000  Uiso   1.00
C196   C     0.18162   0.79624   0.94271   0.00000  Uiso   1.00
C197   C     0.15040   0.86886   0.99171   0.00000  Uiso   1.00
C198   C     0.28166   0.87637   0.82974   0.00000  Uiso   1.00
C199   C     0.20510   0.79632   0.80613   0.00000  Uiso   1.00
C200   C     0.15832   0.80741   0.77548   0.00000  Uiso   1.00
C201   C     0.09057   0.72531   0.75762   0.00000  Uiso   1.00
C202   C     0.36789   0.86305   0.82822   0.00000  Uiso   1.00
C203   C     0.45799   0.93025   0.81614   0.00000  Uiso   1.00
C204   C     0.52730   0.90434   0.81688   0.00000  Uiso   1.00
C205   C     0.24655   0.85632   0.87049   0.00000  Uiso   1.00
C206   C     0.23464   0.91788   0.89397   0.00000  Uiso   1.00
C207   C     0.20182   0.88631   0.93031   0.00000  Uiso   1.00
H208   H     0.22885   0.64086   0.86216   0.00000  Uiso   1.00
H209   H     0.10167   0.55472   0.81027   0.00000  Uiso   1.00
H210   H     0.40130   0.67755   0.85093   0.00000  Uiso   1.00
H211   H     0.17799   0.66517   0.92875   0.00000  Uiso   1.00
H212   H     0.96959   0.49887   0.74728   0.00000  Uiso   1.00
H213   H     0.60138   0.75787   0.83302   0.00000  Uiso   1.00
H214   H     0.13049   0.73178   0.99711   0.00000  Uiso   1.00
H215   H     0.29736   0.94637   0.82011   0.00000  Uiso   1.00
H216   H     0.17394   0.87699   0.76591   0.00000  Uiso   1.00
H217   H     0.47357   0.99982   0.80657   0.00000  Uiso   1.00
H218   H     0.25025   0.98744   0.88438   0.00000  Uiso   1.00
H219   H     0.02825   0.76044   0.71127   0.00000  Uiso   1.00
H220   H     0.66004   0.01944   0.79701   0.00000  Uiso   1.00
H221   H     0.18914   0.99335   0.96110   0.00000  Uiso   1.00
O222   O     0.91652   0.57851   0.69438   0.00000  Uiso   1.00
O223   O     0.74540   0.91831   0.80687   0.00000  Uiso   1.00
O224   O     0.12760   0.88408   0.02215   0.00000  Uiso   1.00
N225   N     0.00032   0.56995   0.74625   0.00000  Uiso   1.00
N226   N     0.59100   0.81210   0.82640   0.00000  Uiso   1.00
N227   N     0.15078   0.78771   0.97982   0.00000  Uiso   1.00
N228   N     0.03188   0.71070   0.72687   0.00000  Uiso   1.00
N229   N     0.62256   0.95284   0.80703   0.00000  Uiso   1.00
N230   N     0.18234   0.92846   0.96044   0.00000  Uiso   1.00
C231   C     0.28915   0.53369   0.51919   0.00000  Uiso   1.00
C232   C     0.29359   0.47852   0.48517   0.00000  Uiso   1.00
C233   C     0.37572   0.49297   0.46736   0.00000  Uiso   1.00
C234   C     0.36476   0.43513   0.43669   0.00000  Uiso   1.00
C235   C     0.38532   0.36012   0.38573   0.00000  Uiso   1.00
C236   C     0.22686   0.57458   0.50726   0.00000  Uiso   1.00
C237   C     0.25288   0.66980   0.50802   0.00000  Uiso   1.00
C238   C     0.18573   0.69282   0.49594   0.00000  Uiso   1.00
C239   C     0.10266   0.76694   0.47930   0.00000  Uiso   1.00
C240   C     0.23358   0.45997   0.54954   0.00000  Uiso   1.00
C241   C     0.26525   0.45883   0.58585   0.00000  Uiso   1.00
C242   C     0.20376   0.38537   0.60937   0.00000  Uiso   1.00
C243   C     0.13114   0.28154   0.65837   0.00000  Uiso   1.00
C244   C     0.12363   0.40529   0.49641   0.00000  Uiso   1.00
C245   C     0.20368   0.40878   0.47280   0.00000  Uiso   1.00
C246   C     0.19259   0.35091   0.44215   0.00000  Uiso   1.00
C247   C     0.27469   0.36526   0.42429   0.00000  Uiso   1.00
C248   C     0.13695   0.50485   0.49488   0.00000  Uiso   1.00
C249   C     0.06975   0.52774   0.48281   0.00000  Uiso   1.00
C250   C     0.09566   0.62296   0.48354   0.00000  Uiso   1.00
C251   C     0.14368   0.39023   0.53716   0.00000  Uiso   1.00
C252   C     0.08212   0.31677   0.56064   0.00000  Uiso   1.00
C253   C     0.11369   0.31551   0.59698   0.00000  Uiso   1.00
H254   H     0.35914   0.58799   0.52883   0.00000  Uiso   1.00
H255   H     0.44528   0.54695   0.47694   0.00000  Uiso   1.00
H256   H     0.32245   0.72375   0.51760   0.00000  Uiso   1.00
H257   H     0.33483   0.51281   0.59541   0.00000  Uiso   1.00
H258   H     0.50113   0.47073   0.41395   0.00000  Uiso   1.00
H259   H     0.24213   0.84351   0.49969   0.00000  Uiso   1.00
H260   H     0.26822   0.39871   0.66378   0.00000  Uiso   1.00
H261   H     0.05363   0.35099   0.48678   0.00000  Uiso   1.00
H262   H     0.12301   0.29694   0.43258   0.00000  Uiso   1.00
H263   H     0.00018   0.47375   0.47323   0.00000  Uiso   1.00
H264   H     0.01256   0.26281   0.55105   0.00000  Uiso   1.00
H265   H     0.23956   0.26781   0.37794   0.00000  Uiso   1.00
H266   H     0.98056   0.64060   0.46368   0.00000  Uiso   1.00
H267   H     0.00665   0.19579   0.62777   0.00000  Uiso   1.00
O268   O     0.42149   0.33801   0.36104   0.00000  Uiso   1.00
O269   O     0.08169   0.82709   0.47354   0.00000  Uiso   1.00
O270   O     0.11592   0.24352   0.68882   0.00000  Uiso   1.00
N271   N     0.43005   0.43037   0.41292   0.00000  Uiso   1.00
N272   N     0.18790   0.77891   0.49307   0.00000  Uiso   1.00
N273   N     0.21229   0.36307   0.64649   0.00000  Uiso   1.00
N274   N     0.28930   0.32119   0.39354   0.00000  Uiso   1.00
N275   N     0.04716   0.66972   0.47369   0.00000  Uiso   1.00
N276   N     0.07154   0.25388   0.62711   0.00000  Uiso   1.00
C277   C     0.24454   0.53369   0.98081   0.00000  Uiso   1.00
C278   C     0.18493   0.47852   0.01483   0.00000  Uiso   1.00
C279   C     0.11725   0.49297   0.03264   0.00000  Uiso   1.00
C280   C     0.07038   0.43513   0.06331   0.00000  Uiso   1.00
C281   C     0.97480   0.36012   0.11427   0.00000  Uiso   1.00
C282   C     0.34773   0.57458   0.99274   0.00000  Uiso   1.00
C283   C     0.41692   0.66980   0.99198   0.00000  Uiso   1.00
C284   C     0.50710   0.69282   0.00406   0.00000  Uiso   1.00
C285   C     0.66428   0.76694   0.02070   0.00000  Uiso   1.00
C286   C     0.22639   0.45997   0.95046   0.00000  Uiso   1.00
C287   C     0.19358   0.45883   0.91415   0.00000  Uiso   1.00
C288   C     0.18162   0.38537   0.89063   0.00000  Uiso   1.00
C289   C     0.15040   0.28154   0.84163   0.00000  Uiso   1.00
C290   C     0.28166   0.40529   0.00359   0.00000  Uiso   1.00
C291   C     0.20510   0.40878   0.02720   0.00000  Uiso   1.00
C292   C     0.15832   0.35091   0.05785   0.00000  Uiso   1.00
C293   C     0.09057   0.36526   0.07571   0.00000  Uiso   1.00
C294   C     0.36789   0.50485   0.00512   0.00000  Uiso   1.00
C295   C     0.45799   0.52774   0.01719   0.00000  Uiso   1.00
C296   C     0.52730   0.62296   0.01646   0.00000  Uiso   1.00
C297   C     0.24655   0.39023   0.96284   0.00000  Uiso   1.00
C298   C     0.23464   0.31677   0.93936   0.00000  Uiso   1.00
C299   C     0.20182   0.31551   0.90302   0.00000  Uiso   1.00
H300   H     0.22885   0.58799   0.97117   0.00000  Uiso   1.00
H301   H     0.10167   0.54695   0.02306   0.00000  Uiso   1.00
H302   H     0.40130   0.72375   0.98240   0.00000  Uiso   1.00
H303   H     0.17799   0.51281   0.90459   0.00000  Uiso   1.00
H304   H     0.96959   0.47073   0.08605   0.00000  Uiso   1.00
H305   H     0.60138   0.84351   0.00031   0.00000  Uiso   1.00
H306   H     0.13049   0.39871   0.83622   0.00000  Uiso   1.00
H307   H     0.29736   0.35099   0.01322   0.00000  Uiso   1.00
H308   H     0.17394   0.29694   0.06742   0.00000  Uiso   1.00
H309   H     0.47357   0.47375   0.02677   0.00000  Uiso   1.00
H310   H     0.25025   0.26281   0.94895   0.00000  Uiso   1.00
H311   H     0.02825   0.26781   0.12206   0.00000  Uiso   1.00
H312   H     0.66004   0.64060   0.03632   0.00000  Uiso   1.00
H313   H     0.18914   0.19579   0.87223   0.00000  Uiso   1.00
O314   O     0.91652   0.33801   0.13896   0.00000  Uiso   1.00
O315   O     0.74540   0.82709   0.02646   0.00000  Uiso   1.00
O316   O     0.12760   0.24352   0.81118   0.00000  Uiso   1.00
N317   N     0.00032   0.43037   0.08708   0.00000  Uiso   1.00
N318   N     0.59100   0.77891   0.00693   0.00000  Uiso   1.00
N319   N     0.15078   0.36307   0.85351   0.00000  Uiso   1.00
N320   N     0.03188   0.32119   0.10646   0.00000  Uiso   1.00
N321   N     0.62256   0.66972   0.02631   0.00000  Uiso   1.00
N322   N     0.18234   0.25388   0.87289   0.00000  Uiso   1.00
C323   C     0.28915   0.75546   0.31414   0.00000  Uiso   1.00
C324   C     0.29359   0.81507   0.34816   0.00000  Uiso   1.00
C325   C     0.37572   0.88275   0.36598   0.00000  Uiso   1.00
C326   C     0.36476   0.92962   0.39665   0.00000  Uiso   1.00
C327   C     0.38532   0.02520   0.44760   0.00000  Uiso   1.00
C328   C     0.22686   0.65227   0.32608   0.00000  Uiso   1.00
C329   C     0.25288   0.58308   0.32532   0.00000  Uiso   1.00
C330   C     0.18573   0.49290   0.33739   0.00000  Uiso   1.00
C331   C     0.10266   0.33572   0.35403   0.00000  Uiso   1.00
C332   C     0.23358   0.77361   0.28380   0.00000  Uiso   1.00
C333   C     0.26525   0.80642   0.24749   0.00000  Uiso   1.00
C334   C     0.20376   0.81838   0.22396   0.00000  Uiso   1.00
C335   C     0.13114   0.84960   0.17496   0.00000  Uiso   1.00
C336   C     0.12363   0.71834   0.33692   0.00000  Uiso   1.00
C337   C     0.20368   0.79490   0.36054   0.00000  Uiso   1.00
C338   C     0.19259   0.84168   0.39118   0.00000  Uiso   1.00
C339   C     0.27469   0.90943   0.40904   0.00000  Uiso   1.00
C340   C     0.13695   0.63211   0.33845   0.00000  Uiso   1.00
C341   C     0.06975   0.54201   0.35053   0.00000  Uiso   1.00
C342   C     0.09566   0.47270   0.34979   0.00000  Uiso   1.00
C343   C     0.14368   0.75345   0.29617   0.00000  Uiso   1.00
C344   C     0.08212   0.76536   0.27270   0.00000  Uiso   1.00
C345   C     0.11369   0.79818   0.23636   0.00000  Uiso   1.00
H346   H     0.35914   0.77115   0.30450   0.00000  Uiso   1.00
H347   H     0.44528   0.89833   0.35639   0.00000  Uiso   1.00
H348   H     0.32245   0.59870   0.31574   0.00000  Uiso   1.00
H349   H     0.33483   0.82201   0.23792   0.00000  Uiso   1.00
H350   H     0.50113   0.03041   0.41939   0.00000  Uiso   1.00
H351   H     0.24213   0.39862   0.33365   0.00000  Uiso   1.00
H352   H     0.26822   0.86951   0.16955   0.00000  Uiso   1.00
H353   H     0.05363   0.70264   0.34656   0.00000  Uiso   1.00
H354   H     0.12301   0.82606   0.40076   0.00000  Uiso   1.00
H355   H     0.00018   0.52643   0.36010   0.00000  Uiso   1.00
H356   H     0.01256   0.74975   0.28228   0.00000  Uiso   1.00
H357   H     0.23956   0.97175   0.45539   0.00000  Uiso   1.00
H358   H     0.98056   0.33996   0.36965   0.00000  Uiso   1.00
H359   H     0.00665   0.81086   0.20556   0.00000  Uiso   1.00
O360   O     0.42149   0.08348   0.47229   0.00000  Uiso   1.00
O361   O     0.08169   0.25460   0.35980   0.00000  Uiso   1.00
O362   O     0.11592   0.87240   0.14451   0.00000  Uiso   1.00
N363   N     0.43005   0.99968   0.42042   0.00000  Uiso   1.00
N364   N     0.18790   0.40900   0.34026   0.00000  Uiso   1.00
N365   N     0.21229   0.84922   0.18685   0.00000  Uiso   1.00
N366   N     0.28930   0.96812   0.43979   0.00000  Uiso   1.00
N367   N     0.04716   0.37744   0.35964   0.00000  Uiso   1.00
N368   N     0.07154   0.81766   0.20622   0.00000  Uiso   1.00
C369   C     0.46631   0.71085   0.64747   0.00000  Uiso   1.00
C370   C     0.52148   0.70641   0.68149   0.00000  Uiso   1.00
C371   C     0.50703   0.62428   0.69931   0.00000  Uiso   1.00
C372   C     0.56487   0.63524   0.72998   0.00000  Uiso   1.00
C373   C     0.63988   0.61468   0.78093   0.00000  Uiso   1.00
C374   C     0.42542   0.77314   0.65941   0.00000  Uiso   1.00
C375   C     0.33020   0.74712   0.65865   0.00000  Uiso   1.00
C376   C     0.30718   0.81427   0.67072   0.00000  Uiso   1.00
C377   C     0.23306   0.89734   0.68737   0.00000  Uiso   1.00
C378   C     0.54003   0.76642   0.61713   0.00000  Uiso   1.00
C379   C     0.54117   0.73475   0.58082   0.00000  Uiso   1.00
C380   C     0.61463   0.79624   0.55729   0.00000  Uiso   1.00
C381   C     0.71846   0.86886   0.50829   0.00000  Uiso   1.00
C382   C     0.59471   0.87637   0.67026   0.00000  Uiso   1.00
C383   C     0.59122   0.79632   0.69387   0.00000  Uiso   1.00
C384   C     0.64909   0.80741   0.72452   0.00000  Uiso   1.00
C385   C     0.63474   0.72531   0.74238   0.00000  Uiso   1.00
C386   C     0.49515   0.86305   0.67178   0.00000  Uiso   1.00
C387   C     0.47226   0.93025   0.68386   0.00000  Uiso   1.00
C388   C     0.37704   0.90434   0.68312   0.00000  Uiso   1.00
C389   C     0.60977   0.85632   0.62951   0.00000  Uiso   1.00
C390   C     0.68323   0.91788   0.60603   0.00000  Uiso   1.00
C391   C     0.68449   0.88631   0.56969   0.00000  Uiso   1.00
H392   H     0.41201   0.64086   0.63784   0.00000  Uiso   1.00
H393   H     0.45305   0.55472   0.68973   0.00000  Uiso   1.00
H394   H     0.27625   0.67755   0.64907   0.00000  Uiso   1.00
H395   H     0.48719   0.66517   0.57125   0.00000  Uiso   1.00
H396   H     0.52927   0.49887   0.75272   0.00000  Uiso   1.00
H397   H     0.15649   0.75787   0.66698   0.00000  Uiso   1.00
H398   H     0.60129   0.73178   0.50289   0.00000  Uiso   1.00
H399   H     0.64901   0.94637   0.67989   0.00000  Uiso   1.00
H400   H     0.70306   0.87699   0.73409   0.00000  Uiso   1.00
H401   H     0.52625   0.99982   0.69343   0.00000  Uiso   1.00
H402   H     0.73719   0.98744   0.61562   0.00000  Uiso   1.00
H403   H     0.73219   0.76044   0.78873   0.00000  Uiso   1.00
H404   H     0.35940   0.01944   0.70299   0.00000  Uiso   1.00
H405   H     0.80421   0.99335   0.53890   0.00000  Uiso   1.00
O406   O     0.66199   0.57851   0.80562   0.00000  Uiso   1.00
O407   O     0.17291   0.91831   0.69313   0.00000  Uiso   1.00
O408   O     0.75648   0.88408   0.47785   0.00000  Uiso   1.00
N409   N     0.56963   0.56995   0.75375   0.00000  Uiso   1.00
N410   N     0.22109   0.81210   0.67360   0.00000  Uiso   1.00
N411   N     0.63693   0.78771   0.52018   0.00000  Uiso   1.00
N412   N     0.67881   0.71070   0.77313   0.00000  Uiso   1.00
N413   N     0.33028   0.95284   0.69297   0.00000  Uiso   1.00
N414   N     0.74612   0.92846   0.53956   0.00000  Uiso   1.00
C415   C     0.75546   0.46631   0.48081   0.00000  Uiso   1.00
C416   C     0.81507   0.52148   0.51483   0.00000  Uiso   1.00
C417   C     0.88275   0.50703   0.53264   0.00000  Uiso   1.00
C418   C     0.92962   0.56487   0.56331   0.00000  Uiso   1.00
C419   C     0.02520   0.63988   0.61427   0.00000  Uiso   1.00
C420   C     0.65227   0.42542   0.49274   0.00000  Uiso   1.00
C421   C     0.58308   0.33020   0.49198   0.00000  Uiso   1.00
C422   C     0.49290   0.30718   0.50406   0.00000  Uiso   1.00
C423   C     0.33572   0.23306   0.52070   0.00000  Uiso   1.00
C424   C     0.77361   0.54003   0.45046   0.00000  Uiso   1.00
C425   C     0.80642   0.54117   0.41415   0.00000  Uiso   1.00
C426   C     0.81838   0.61463   0.39063   0.00000  Uiso   1.00
C427   C     0.84960   0.71846   0.34163   0.00000  Uiso   1.00
C428   C     0.71834   0.59471   0.50359   0.00000  Uiso   1.00
C429   C     0.79490   0.59122   0.52720   0.00000  Uiso   1.00
C430   C     0.84168   0.64909   0.55785   0.00000  Uiso   1.00
C431   C     0.90943   0.63474   0.57571   0.00000  Uiso   1.00
C432   C     0.63211   0.49515   0.50512   0.00000  Uiso   1.00
C433   C     0.54201   0.47226   0.51719   0.00000  Uiso   1.00
C434   C     0.47270   0.37704   0.51646   0.00000  Uiso   1.00
C435   C     0.75345   0.60977   0.46284   0.00000  Uiso   1.00
C436   C     0.76536   0.68323   0.43936   0.00000  Uiso   1.00
C437   C     0.79818   0.68449   0.40302   0.00000  Uiso   1.00
H438   H     0.77115   0.41201   0.47117   0.00000  Uiso   1.00
H439   H     0.89833   0.45305   0.52306   0.00000  Uiso   1.00
H440   H     0.59870   0.27625   0.48240   0.00000  Uiso   1.00
H441   H     0.82201   0.48719   0.40459   0.00000  Uiso   1.00
H442   H     0.03041   0.52927   0.58605   0.00000  Uiso   1.00
H443   H     0.39862   0.15649   0.50031   0.00000  Uiso   1.00
H444   H     0.86951   0.60129   0.33622   0.00000  Uiso   1.00
H445   H     0.70264   0.64901   0.51322   0.00000  Uiso   1.00
H446   H     0.82606   0.70306   0.56742   0.00000  Uiso   1.00
H447   H     0.52643   0.52625   0.52677   0.00000  Uiso   1.00
H448   H     0.74975   0.73719   0.44895   0.00000  Uiso   1.00
H449   H     0.97175   0.73219   0.62206   0.00000  Uiso   1.00
H450   H     0.33996   0.35940   0.53632   0.00000  Uiso   1.00
H451   H     0.81086   0.80421   0.37223   0.00000  Uiso   1.00
O452   O     0.08348   0.66199   0.63896   0.00000  Uiso   1.00
O453   O     0.25460   0.17291   0.52646   0.00000  Uiso   1.00
O454   O     0.87240   0.75648   0.31118   0.00000  Uiso   1.00
N455   N     0.99968   0.56963   0.58708   0.00000  Uiso   1.00
N456   N     0.40900   0.22109   0.50693   0.00000  Uiso   1.00
N457   N     0.84922   0.63693   0.35351   0.00000  Uiso   1.00
N458   N     0.96812   0.67881   0.60646   0.00000  Uiso   1.00
N459   N     0.37744   0.33028   0.52631   0.00000  Uiso   1.00
N460   N     0.81766   0.74612   0.37289   0.00000  Uiso   1.00
C461   C     0.71085   0.24454   0.81414   0.00000  Uiso   1.00
C462   C     0.70641   0.18493   0.84816   0.00000  Uiso   1.00
C463   C     0.62428   0.11725   0.86598   0.00000  Uiso   1.00
C464   C     0.63524   0.07038   0.89665   0.00000  Uiso   1.00
C465   C     0.61468   0.97480   0.94760   0.00000  Uiso   1.00
C466   C     0.77314   0.34773   0.82608   0.00000  Uiso   1.00
C467   C     0.74712   0.41692   0.82532   0.00000  Uiso   1.00
C468   C     0.81427   0.50710   0.83739   0.00000  Uiso   1.00
C469   C     0.89734   0.66428   0.85403   0.00000  Uiso   1.00
C470   C     0.76642   0.22639   0.78380   0.00000  Uiso   1.00
C471   C     0.73475   0.19358   0.74749   0.00000  Uiso   1.00
C472   C     0.79624   0.18162   0.72396   0.00000  Uiso   1.00
C473   C     0.86886   0.15040   0.67496   0.00000  Uiso   1.00
C474   C     0.87637   0.28166   0.83692   0.00000  Uiso   1.00
C475   C     0.79632   0.20510   0.86054   0.00000  Uiso   1.00
C476   C     0.80741   0.15832   0.89118   0.00000  Uiso   1.00
C477   C     0.72531   0.09057   0.90904   0.00000  Uiso   1.00
C478   C     0.86305   0.36789   0.83845   0.00000  Uiso   1.00
C479   C     0.93025   0.45799   0.85053   0.00000  Uiso   1.00
C480   C     0.90434   0.52730   0.84979   0.00000  Uiso   1.00
C481   C     0.85632   0.24655   0.79617   0.00000  Uiso   1.00
C482   C     0.91788   0.23464   0.77270   0.00000  Uiso   1.00
C483   C     0.88631   0.20182   0.73636   0.00000  Uiso   1.00
H484   H     0.64086   0.22885   0.80450   0.00000  Uiso   1.00
H485   H     0.55472   0.10167   0.85639   0.00000  Uiso   1.00
H486   H     0.67755   0.40130   0.81574   0.00000  Uiso   1.00
H487   H     0.66517   0.17799   0.73792   0.00000  Uiso   1.00
H488   H     0.49887   0.96959   0.91939   0.00000  Uiso   1.00
H489   H     0.75787   0.60138   0.83365   0.00000  Uiso   1.00
H490   H     0.73178   0.13049   0.66955   0.00000  Uiso   1.00
H491   H     0.94637   0.29736   0.84656   0.00000  Uiso   1.00
H492   H     0.87699   0.17394   0.90076   0.00000  Uiso   1.00
H493   H     0.99982   0.47357   0.86010   0.00000  Uiso   1.00
H494   H     0.98744   0.25025   0.78228   0.00000  Uiso   1.00
H495   H     0.76044   0.02825   0.95539   0.00000  Uiso   1.00
H496   H     0.01944   0.66004   0.86965   0.00000  Uiso   1.00
H497   H     0.99335   0.18914   0.70556   0.00000  Uiso   1.00
O498   O     0.57851   0.91652   0.97229   0.00000  Uiso   1.00
O499   O     0.91831   0.74540   0.85980   0.00000  Uiso   1.00
O500   O     0.88408   0.12760   0.64451   0.00000  Uiso   1.00
N501   N     0.56995   0.00032   0.92042   0.00000  Uiso   1.00
N502   N     0.81210   0.59100   0.84026   0.00000  Uiso   1.00
N503   N     0.78771   0.15078   0.68685   0.00000  Uiso   1.00
N504   N     0.71070   0.03188   0.93979   0.00000  Uiso   1.00
N505   N     0.95284   0.62256   0.85964   0.00000  Uiso   1.00
N506   N     0.92846   0.18234   0.70622   0.00000  Uiso   1.00
C507   C     0.53369   0.28915   0.14747   0.00000  Uiso   1.00
C508   C     0.47852   0.29359   0.18149   0.00000  Uiso   1.00
C509   C     0.49297   0.37572   0.19931   0.00000  Uiso   1.00
C510   C     0.43513   0.36476   0.22998   0.00000  Uiso   1.00
C511   C     0.36012   0.38532   0.28093   0.00000  Uiso   1.00
C512   C     0.57458   0.22686   0.15941   0.00000  Uiso   1.00
C513   C     0.66980   0.25288   0.15865   0.00000  Uiso   1.00
C514   C     0.69282   0.18573   0.17072   0.00000  Uiso   1.00
C515   C     0.76694   0.10266   0.18737   0.00000  Uiso   1.00
C516   C     0.45997   0.23358   0.11713   0.00000  Uiso   1.00
C517   C     0.45883   0.26525   0.08082   0.00000  Uiso   1.00
C518   C     0.38537   0.20376   0.05729   0.00000  Uiso   1.00
C519   C     0.28154   0.13114   0.00829   0.00000  Uiso   1.00
C520   C     0.40529   0.12363   0.17026   0.00000  Uiso   1.00
C521   C     0.40878   0.20368   0.19387   0.00000  Uiso   1.00
C522   C     0.35091   0.19259   0.22452   0.00000  Uiso   1.00
C523   C     0.36526   0.27469   0.24238   0.00000  Uiso   1.00
C524   C     0.50485   0.13695   0.17178   0.00000  Uiso   1.00
C525   C     0.52774   0.06975   0.18386   0.00000  Uiso   1.00
C526   C     0.62296   0.09566   0.18312   0.00000  Uiso   1.00
C527   C     0.39023   0.14368   0.12951   0.00000  Uiso   1.00
C528   C     0.31677   0.08212   0.10603   0.00000  Uiso   1.00
C529   C     0.31551   0.11369   0.06969   0.00000  Uiso   1.00
H530   H     0.58799   0.35914   0.13784   0.00000  Uiso   1.00
H531   H     0.54695   0.44528   0.18973   0.00000  Uiso   1.00
H532   H     0.72375   0.32245   0.14907   0.00000  Uiso   1.00
H533   H     0.51281   0.33483   0.07125   0.00000  Uiso   1.00
H534   H     0.47073   0.50113   0.25272   0.00000  Uiso   1.00
H535   H     0.84351   0.24213   0.16698   0.00000  Uiso   1.00
H536   H     0.39871   0.26822   0.00289   0.00000  Uiso   1.00
H537   H     0.35099   0.05363   0.17989   0.00000  Uiso   1.00
H538   H     0.29694   0.12301   0.23409   0.00000  Uiso   1.00
H539   H     0.47375   0.00018   0.19343   0.00000  Uiso   1.00
H540   H     0.26281   0.01256   0.11562   0.00000  Uiso   1.00
H541   H     0.26781   0.23956   0.28873   0.00000  Uiso   1.00
H542   H     0.64060   0.98056   0.20299   0.00000  Uiso   1.00
H543   H     0.19579   0.00665   0.03890   0.00000  Uiso   1.00
O544   O     0.33801   0.42149   0.30562   0.00000  Uiso   1.00
O545   O     0.82709   0.08169   0.19313   0.00000  Uiso   1.00
O546   O     0.24352   0.11592   0.97785   0.00000  Uiso   1.00
N547   N     0.43037   0.43005   0.25375   0.00000  Uiso   1.00
N548   N     0.77891   0.18790   0.17360   0.00000  Uiso   1.00
N549   N     0.36307   0.21229   0.02018   0.00000  Uiso   1.00
N550   N     0.32119   0.28930   0.27313   0.00000  Uiso   1.00
N551   N     0.66972   0.04716   0.19297   0.00000  Uiso   1.00
N552   N     0.25388   0.07154   0.03956   0.00000  Uiso   1.00
