data_job_04713
_audit_creation_date              2018-12-19
_audit_creation_method            'Materials Studio'
_symmetry_space_group_name_H-M    'P1'
_symmetry_Int_Tables_number       1
_symmetry_cell_setting            triclinic
loop_
_symmetry_equiv_pos_as_xyz
  x,y,z
_cell_length_a                    43.1481
_cell_length_b                    12.0175
_cell_length_c                    42.4157
_cell_angle_alpha                 90.0000
_cell_angle_beta                  170.6514
_cell_angle_gamma                 90.0000
loop_
_atom_site_label
_atom_site_type_symbol
_atom_site_fract_x
_atom_site_fract_y
_atom_site_fract_z
_atom_site_U_iso_or_equiv
_atom_site_adp_type
_atom_site_occupancy
C1     C     0.39106   0.38305   0.48301   0.00000  Uiso   1.00
C2     C     0.25583   0.29424   0.33462   0.00000  Uiso   1.00
C3     C     0.30845   0.18930   0.37692   0.00000  Uiso   1.00
C4     C     0.16343   0.12022   0.22067   0.00000  Uiso   1.00
C5     C     0.98247   0.97706   0.01939   0.00000  Uiso   1.00
C6     C     0.35866   0.48599   0.43017   0.00000  Uiso   1.00
C7     C     0.49776   0.54227   0.55282   0.00000  Uiso   1.00
C8     C     0.43930   0.63461   0.47700   0.00000  Uiso   1.00
C9     C     0.41803   0.78919   0.42412   0.00000  Uiso   1.00
C10    C     0.31806   0.41273   0.44254   0.00000  Uiso   1.00
C11    C     0.42302   0.40745   0.57561   0.00000  Uiso   1.00
C12    C     0.33038   0.43814   0.51022   0.00000  Uiso   1.00
C13    C     0.24606   0.47898   0.47654   0.00000  Uiso   1.00
C14    C     0.03992   0.44699   0.13031   0.00000  Uiso   1.00
C15    C     0.06511   0.32898   0.14305   0.00000  Uiso   1.00
C16    C     0.91996   0.26004   0.98669   0.00000  Uiso   1.00
C17    C     0.97236   0.15500   0.02875   0.00000  Uiso   1.00
C18    C     0.16795   0.52072   0.23860   0.00000  Uiso   1.00
C19    C     0.10927   0.61301   0.16259   0.00000  Uiso   1.00
C20    C     0.24824   0.66940   0.28508   0.00000  Uiso   1.00
C21    C     0.12733   0.44746   0.25097   0.00000  Uiso   1.00
C22    C     0.03452   0.47818   0.18537   0.00000  Uiso   1.00
C23    C     0.13932   0.47294   0.31830   0.00000  Uiso   1.00
H24    H     0.53954   0.35602   0.63216   0.00000  Uiso   1.00
H25    H     0.45607   0.16245   0.52520   0.00000  Uiso   1.00
H26    H     0.64534   0.51538   0.70107   0.00000  Uiso   1.00
H27    H     0.57061   0.38057   0.72384   0.00000  Uiso   1.00
H28    H     0.27941   0.96319   0.32211   0.00000  Uiso   1.00
H29    H     0.67853   0.70736   0.69297   0.00000  Uiso   1.00
H30    H     0.52094   0.42310   0.74101   0.00000  Uiso   1.00
H31    H     0.89143   0.47403   0.98115   0.00000  Uiso   1.00
H32    H     0.77238   0.28693   0.83845   0.00000  Uiso   1.00
H33    H     0.96167   0.63986   0.01434   0.00000  Uiso   1.00
H34    H     0.88693   0.50505   0.03711   0.00000  Uiso   1.00
H35    H     0.72451   0.06422   0.76473   0.00000  Uiso   1.00
H36    H     0.12364   0.80840   0.13560   0.00000  Uiso   1.00
H37    H     0.96604   0.52414   0.18362   0.00000  Uiso   1.00
O38    O     0.93535   0.88851   0.96129   0.00000  Uiso   1.00
O39    O     0.45899   0.86485   0.44787   0.00000  Uiso   1.00
O40    O     0.25223   0.49190   0.51088   0.00000  Uiso   1.00
N41    N     0.16515   0.01263   0.21052   0.00000  Uiso   1.00
N42    N     0.53830   0.70838   0.55724   0.00000  Uiso   1.00
N43    N     0.39098   0.44265   0.60216   0.00000  Uiso   1.00
N44    N     0.86656   0.06700   0.91059   0.00000  Uiso   1.00
N45    N     0.23971   0.76275   0.25732   0.00000  Uiso   1.00
N46    N     0.09239   0.49702   0.30224   0.00000  Uiso   1.00
C47    C     0.60894   0.38305   0.01699   0.00000  Uiso   1.00
C48    C     0.74417   0.29424   0.16538   0.00000  Uiso   1.00
C49    C     0.69155   0.18930   0.12308   0.00000  Uiso   1.00
C50    C     0.83657   0.12022   0.27933   0.00000  Uiso   1.00
C51    C     0.01753   0.97706   0.48061   0.00000  Uiso   1.00
C52    C     0.64134   0.48599   0.06983   0.00000  Uiso   1.00
C53    C     0.50224   0.54227   0.94718   0.00000  Uiso   1.00
C54    C     0.56070   0.63461   0.02300   0.00000  Uiso   1.00
C55    C     0.58197   0.78919   0.07588   0.00000  Uiso   1.00
C56    C     0.68194   0.41273   0.05746   0.00000  Uiso   1.00
C57    C     0.57698   0.40745   0.92439   0.00000  Uiso   1.00
C58    C     0.66962   0.43814   0.98978   0.00000  Uiso   1.00
C59    C     0.75394   0.47898   0.02346   0.00000  Uiso   1.00
C60    C     0.96008   0.44699   0.36969   0.00000  Uiso   1.00
C61    C     0.93489   0.32898   0.35695   0.00000  Uiso   1.00
C62    C     0.08004   0.26004   0.51331   0.00000  Uiso   1.00
C63    C     0.02764   0.15500   0.47125   0.00000  Uiso   1.00
C64    C     0.83205   0.52072   0.26140   0.00000  Uiso   1.00
C65    C     0.89073   0.61301   0.33741   0.00000  Uiso   1.00
C66    C     0.75176   0.66940   0.21492   0.00000  Uiso   1.00
C67    C     0.87267   0.44746   0.24903   0.00000  Uiso   1.00
C68    C     0.96548   0.47818   0.31463   0.00000  Uiso   1.00
C69    C     0.86068   0.47294   0.18170   0.00000  Uiso   1.00
H70    H     0.46046   0.35602   0.86784   0.00000  Uiso   1.00
H71    H     0.54393   0.16245   0.97480   0.00000  Uiso   1.00
H72    H     0.35466   0.51538   0.79893   0.00000  Uiso   1.00
H73    H     0.42939   0.38057   0.77616   0.00000  Uiso   1.00
H74    H     0.72059   0.96319   0.17789   0.00000  Uiso   1.00
H75    H     0.32147   0.70736   0.80703   0.00000  Uiso   1.00
H76    H     0.47906   0.42310   0.75899   0.00000  Uiso   1.00
H77    H     0.10857   0.47403   0.51885   0.00000  Uiso   1.00
H78    H     0.22762   0.28693   0.66155   0.00000  Uiso   1.00
H79    H     0.03833   0.63986   0.48566   0.00000  Uiso   1.00
H80    H     0.11307   0.50505   0.46289   0.00000  Uiso   1.00
H81    H     0.27549   0.06422   0.73527   0.00000  Uiso   1.00
H82    H     0.87636   0.80840   0.36440   0.00000  Uiso   1.00
H83    H     0.03396   0.52414   0.31638   0.00000  Uiso   1.00
O84    O     0.06465   0.88851   0.53871   0.00000  Uiso   1.00
O85    O     0.54101   0.86485   0.05213   0.00000  Uiso   1.00
O86    O     0.74777   0.49190   0.98912   0.00000  Uiso   1.00
N87    N     0.83485   0.01263   0.28948   0.00000  Uiso   1.00
N88    N     0.46170   0.70838   0.94276   0.00000  Uiso   1.00
N89    N     0.60902   0.44265   0.89784   0.00000  Uiso   1.00
N90    N     0.13344   0.06700   0.58941   0.00000  Uiso   1.00
N91    N     0.76029   0.76275   0.24268   0.00000  Uiso   1.00
N92    N     0.90761   0.49702   0.19776   0.00000  Uiso   1.00
C93    C     0.60894   0.61695   0.51699   0.00000  Uiso   1.00
C94    C     0.74417   0.70576   0.66538   0.00000  Uiso   1.00
C95    C     0.69155   0.81070   0.62308   0.00000  Uiso   1.00
C96    C     0.83657   0.87978   0.77933   0.00000  Uiso   1.00
C97    C     0.01753   0.02294   0.98061   0.00000  Uiso   1.00
C98    C     0.64134   0.51401   0.56983   0.00000  Uiso   1.00
C99    C     0.50224   0.45773   0.44718   0.00000  Uiso   1.00
C100   C     0.56070   0.36539   0.52300   0.00000  Uiso   1.00
C101   C     0.58197   0.21081   0.57588   0.00000  Uiso   1.00
C102   C     0.68194   0.58727   0.55746   0.00000  Uiso   1.00
C103   C     0.57698   0.59255   0.42439   0.00000  Uiso   1.00
C104   C     0.66962   0.56186   0.48978   0.00000  Uiso   1.00
C105   C     0.75394   0.52102   0.52346   0.00000  Uiso   1.00
C106   C     0.96008   0.55301   0.86969   0.00000  Uiso   1.00
C107   C     0.93489   0.67102   0.85695   0.00000  Uiso   1.00
C108   C     0.08004   0.73996   0.01331   0.00000  Uiso   1.00
C109   C     0.02764   0.84500   0.97125   0.00000  Uiso   1.00
C110   C     0.83205   0.47928   0.76140   0.00000  Uiso   1.00
C111   C     0.89073   0.38699   0.83741   0.00000  Uiso   1.00
C112   C     0.75176   0.33060   0.71492   0.00000  Uiso   1.00
C113   C     0.87267   0.55254   0.74903   0.00000  Uiso   1.00
C114   C     0.96548   0.52182   0.81463   0.00000  Uiso   1.00
C115   C     0.86068   0.52706   0.68170   0.00000  Uiso   1.00
H116   H     0.46046   0.64398   0.36784   0.00000  Uiso   1.00
H117   H     0.54393   0.83755   0.47480   0.00000  Uiso   1.00
H118   H     0.35466   0.48462   0.29893   0.00000  Uiso   1.00
H119   H     0.42939   0.61943   0.27616   0.00000  Uiso   1.00
H120   H     0.72059   0.03681   0.67789   0.00000  Uiso   1.00
H121   H     0.32147   0.29264   0.30703   0.00000  Uiso   1.00
H122   H     0.47906   0.57690   0.25899   0.00000  Uiso   1.00
H123   H     0.10857   0.52597   0.01885   0.00000  Uiso   1.00
H124   H     0.22762   0.71307   0.16155   0.00000  Uiso   1.00
H125   H     0.03833   0.36014   0.98566   0.00000  Uiso   1.00
H126   H     0.11307   0.49495   0.96289   0.00000  Uiso   1.00
H127   H     0.27549   0.93578   0.23527   0.00000  Uiso   1.00
H128   H     0.87636   0.19160   0.86440   0.00000  Uiso   1.00
H129   H     0.03396   0.47586   0.81638   0.00000  Uiso   1.00
O130   O     0.06465   0.11149   0.03871   0.00000  Uiso   1.00
O131   O     0.54101   0.13515   0.55213   0.00000  Uiso   1.00
O132   O     0.74777   0.50810   0.48912   0.00000  Uiso   1.00
N133   N     0.83485   0.98737   0.78948   0.00000  Uiso   1.00
N134   N     0.46170   0.29162   0.44276   0.00000  Uiso   1.00
N135   N     0.60902   0.55735   0.39784   0.00000  Uiso   1.00
N136   N     0.13344   0.93300   0.08941   0.00000  Uiso   1.00
N137   N     0.76029   0.23725   0.74268   0.00000  Uiso   1.00
N138   N     0.90761   0.50298   0.69776   0.00000  Uiso   1.00
C139   C     0.39106   0.61695   0.98301   0.00000  Uiso   1.00
C140   C     0.25583   0.70576   0.83462   0.00000  Uiso   1.00
C141   C     0.30845   0.81070   0.87692   0.00000  Uiso   1.00
C142   C     0.16343   0.87978   0.72067   0.00000  Uiso   1.00
C143   C     0.98247   0.02294   0.51939   0.00000  Uiso   1.00
C144   C     0.35866   0.51401   0.93017   0.00000  Uiso   1.00
C145   C     0.49776   0.45773   0.05282   0.00000  Uiso   1.00
C146   C     0.43930   0.36539   0.97700   0.00000  Uiso   1.00
C147   C     0.41803   0.21081   0.92412   0.00000  Uiso   1.00
C148   C     0.31806   0.58727   0.94254   0.00000  Uiso   1.00
C149   C     0.42302   0.59255   0.07561   0.00000  Uiso   1.00
C150   C     0.33038   0.56186   0.01022   0.00000  Uiso   1.00
C151   C     0.24606   0.52102   0.97654   0.00000  Uiso   1.00
C152   C     0.03992   0.55301   0.63031   0.00000  Uiso   1.00
C153   C     0.06511   0.67102   0.64305   0.00000  Uiso   1.00
C154   C     0.91996   0.73996   0.48669   0.00000  Uiso   1.00
C155   C     0.97236   0.84500   0.52875   0.00000  Uiso   1.00
C156   C     0.16795   0.47928   0.73860   0.00000  Uiso   1.00
C157   C     0.10927   0.38699   0.66259   0.00000  Uiso   1.00
C158   C     0.24824   0.33060   0.78508   0.00000  Uiso   1.00
C159   C     0.12733   0.55254   0.75097   0.00000  Uiso   1.00
C160   C     0.03452   0.52182   0.68537   0.00000  Uiso   1.00
C161   C     0.13932   0.52706   0.81830   0.00000  Uiso   1.00
H162   H     0.53954   0.64398   0.13216   0.00000  Uiso   1.00
H163   H     0.45607   0.83755   0.02520   0.00000  Uiso   1.00
H164   H     0.64534   0.48462   0.20107   0.00000  Uiso   1.00
H165   H     0.57061   0.61943   0.22384   0.00000  Uiso   1.00
H166   H     0.27941   0.03681   0.82211   0.00000  Uiso   1.00
H167   H     0.67853   0.29264   0.19297   0.00000  Uiso   1.00
H168   H     0.52094   0.57690   0.24101   0.00000  Uiso   1.00
H169   H     0.89143   0.52597   0.48115   0.00000  Uiso   1.00
H170   H     0.77238   0.71307   0.33845   0.00000  Uiso   1.00
H171   H     0.96167   0.36014   0.51434   0.00000  Uiso   1.00
H172   H     0.88693   0.49495   0.53711   0.00000  Uiso   1.00
H173   H     0.72451   0.93578   0.26473   0.00000  Uiso   1.00
H174   H     0.12364   0.19160   0.63560   0.00000  Uiso   1.00
H175   H     0.96604   0.47586   0.68362   0.00000  Uiso   1.00
O176   O     0.93535   0.11149   0.46129   0.00000  Uiso   1.00
O177   O     0.45899   0.13515   0.94787   0.00000  Uiso   1.00
O178   O     0.25223   0.50810   0.01088   0.00000  Uiso   1.00
N179   N     0.16515   0.98737   0.71052   0.00000  Uiso   1.00
N180   N     0.53830   0.29162   0.05724   0.00000  Uiso   1.00
N181   N     0.39098   0.55735   0.10216   0.00000  Uiso   1.00
N182   N     0.86656   0.93300   0.41059   0.00000  Uiso   1.00
N183   N     0.23971   0.23725   0.75732   0.00000  Uiso   1.00
N184   N     0.09239   0.50298   0.80224   0.00000  Uiso   1.00
