data_job_05686
_audit_creation_date              2018-12-19
_audit_creation_method            'Materials Studio'
_symmetry_space_group_name_H-M    'P1'
_symmetry_Int_Tables_number       1
_symmetry_cell_setting            triclinic
loop_
_symmetry_equiv_pos_as_xyz
  x,y,z
_cell_length_a                    12.9426
_cell_length_b                    11.7878
_cell_length_c                    19.7111
_cell_angle_alpha                 90.0000
_cell_angle_beta                  69.6466
_cell_angle_gamma                 90.0000
loop_
_atom_site_label
_atom_site_type_symbol
_atom_site_fract_x
_atom_site_fract_y
_atom_site_fract_z
_atom_site_U_iso_or_equiv
_atom_site_adp_type
_atom_site_occupancy
C1     C     0.19693   0.23891   0.93821   0.00000  Uiso   1.00
C2     C     0.23643   0.14928   0.87898   0.00000  Uiso   1.00
C3     C     0.19561   0.03970   0.88273   0.00000  Uiso   1.00
C4     C     0.24272   0.97067   0.82282   0.00000  Uiso   1.00
C5     C     0.29109   0.82556   0.74017   0.00000  Uiso   1.00
C6     C     0.16278   0.34112   0.90351   0.00000  Uiso   1.00
C7     C     0.06005   0.39285   0.92789   0.00000  Uiso   1.00
C8     C     0.04518   0.48532   0.88863   0.00000  Uiso   1.00
C9     C     0.97925   0.63809   0.84409   0.00000  Uiso   1.00
C10    C     0.29866   0.27584   0.95466   0.00000  Uiso   1.00
C11    C     0.31017   0.27271   0.02206   0.00000  Uiso   1.00
C12    C     0.40969   0.31025   0.02587   0.00000  Uiso   1.00
C13    C     0.55473   0.36166   0.06076   0.00000  Uiso   1.00
C14    C     0.35319   0.31118   0.82514   0.00000  Uiso   1.00
C15    C     0.32130   0.18854   0.81756   0.00000  Uiso   1.00
C16    C     0.36849   0.11966   0.75763   0.00000  Uiso   1.00
C17    C     0.32775   0.00999   0.76129   0.00000  Uiso   1.00
C18    C     0.24765   0.38038   0.84209   0.00000  Uiso   1.00
C19    C     0.23293   0.47280   0.80279   0.00000  Uiso   1.00
C20    C     0.13020   0.52465   0.82710   0.00000  Uiso   1.00
C21    C     0.38354   0.31510   0.89324   0.00000  Uiso   1.00
C22    C     0.48306   0.35266   0.89695   0.00000  Uiso   1.00
C23    C     0.49472   0.34958   0.96434   0.00000  Uiso   1.00
H24    H     0.13085   0.20835   0.98602   0.00000  Uiso   1.00
H25    H     0.12992   0.00936   0.93026   0.00000  Uiso   1.00
H26    H     0.99439   0.36246   0.97542   0.00000  Uiso   1.00
H27    H     0.24448   0.24233   0.06957   0.00000  Uiso   1.00
H28    H     0.16628   0.80607   0.84135   0.00000  Uiso   1.00
H29    H     0.88053   0.55061   0.93658   0.00000  Uiso   1.00
H30    H     0.40788   0.29730   0.13512   0.00000  Uiso   1.00
H31    H     0.41927   0.34174   0.77732   0.00000  Uiso   1.00
H32    H     0.43417   0.15006   0.71011   0.00000  Uiso   1.00
H33    H     0.29863   0.50316   0.75527   0.00000  Uiso   1.00
H34    H     0.54872   0.38303   0.84942   0.00000  Uiso   1.00
H35    H     0.41322   0.92026   0.66266   0.00000  Uiso   1.00
H36    H     0.12746   0.66481   0.75789   0.00000  Uiso   1.00
H37    H     0.65481   0.41150   0.95643   0.00000  Uiso   1.00
O38    O     0.29432   0.73468   0.71155   0.00000  Uiso   1.00
O39    O     0.91942   0.71150   0.83649   0.00000  Uiso   1.00
O40    O     0.61130   0.37916   0.09697   0.00000  Uiso   1.00
N41    N     0.22237   0.85924   0.80852   0.00000  Uiso   1.00
N42    N     0.95520   0.55534   0.89755   0.00000  Uiso   1.00
N43    N     0.44822   0.31854   0.08317   0.00000  Uiso   1.00
N44    N     0.35525   0.92069   0.71237   0.00000  Uiso   1.00
N45    N     0.08807   0.61678   0.80140   0.00000  Uiso   1.00
N46    N     0.58109   0.37999   0.98702   0.00000  Uiso   1.00
C47    C     0.80307   0.23891   0.56179   0.00000  Uiso   1.00
C48    C     0.76357   0.14928   0.62102   0.00000  Uiso   1.00
C49    C     0.80439   0.03970   0.61727   0.00000  Uiso   1.00
C50    C     0.75728   0.97067   0.67718   0.00000  Uiso   1.00
C51    C     0.70891   0.82556   0.75983   0.00000  Uiso   1.00
C52    C     0.83722   0.34112   0.59649   0.00000  Uiso   1.00
C53    C     0.93995   0.39285   0.57211   0.00000  Uiso   1.00
C54    C     0.95482   0.48532   0.61137   0.00000  Uiso   1.00
C55    C     0.02075   0.63809   0.65591   0.00000  Uiso   1.00
C56    C     0.70134   0.27584   0.54534   0.00000  Uiso   1.00
C57    C     0.68983   0.27271   0.47794   0.00000  Uiso   1.00
C58    C     0.59031   0.31025   0.47413   0.00000  Uiso   1.00
C59    C     0.44527   0.36166   0.43924   0.00000  Uiso   1.00
C60    C     0.64681   0.31118   0.67486   0.00000  Uiso   1.00
C61    C     0.67870   0.18854   0.68244   0.00000  Uiso   1.00
C62    C     0.63151   0.11966   0.74237   0.00000  Uiso   1.00
C63    C     0.67225   0.00999   0.73871   0.00000  Uiso   1.00
C64    C     0.75235   0.38038   0.65791   0.00000  Uiso   1.00
C65    C     0.76707   0.47280   0.69721   0.00000  Uiso   1.00
C66    C     0.86980   0.52465   0.67290   0.00000  Uiso   1.00
C67    C     0.61646   0.31510   0.60676   0.00000  Uiso   1.00
C68    C     0.51694   0.35266   0.60305   0.00000  Uiso   1.00
C69    C     0.50528   0.34958   0.53566   0.00000  Uiso   1.00
H70    H     0.86915   0.20835   0.51398   0.00000  Uiso   1.00
H71    H     0.87008   0.00936   0.56974   0.00000  Uiso   1.00
H72    H     0.00561   0.36246   0.52458   0.00000  Uiso   1.00
H73    H     0.75552   0.24233   0.43043   0.00000  Uiso   1.00
H74    H     0.83372   0.80607   0.65865   0.00000  Uiso   1.00
H75    H     0.11947   0.55061   0.56342   0.00000  Uiso   1.00
H76    H     0.59212   0.29730   0.36488   0.00000  Uiso   1.00
H77    H     0.58073   0.34174   0.72268   0.00000  Uiso   1.00
H78    H     0.56583   0.15006   0.78989   0.00000  Uiso   1.00
H79    H     0.70137   0.50316   0.74473   0.00000  Uiso   1.00
H80    H     0.45128   0.38303   0.65058   0.00000  Uiso   1.00
H81    H     0.58678   0.92026   0.83734   0.00000  Uiso   1.00
H82    H     0.87254   0.66481   0.74211   0.00000  Uiso   1.00
H83    H     0.34519   0.41150   0.54357   0.00000  Uiso   1.00
O84    O     0.70568   0.73468   0.78845   0.00000  Uiso   1.00
O85    O     0.08058   0.71150   0.66351   0.00000  Uiso   1.00
O86    O     0.38870   0.37916   0.40303   0.00000  Uiso   1.00
N87    N     0.77763   0.85924   0.69148   0.00000  Uiso   1.00
N88    N     0.04480   0.55534   0.60245   0.00000  Uiso   1.00
N89    N     0.55178   0.31854   0.41683   0.00000  Uiso   1.00
N90    N     0.64475   0.92069   0.78763   0.00000  Uiso   1.00
N91    N     0.91193   0.61678   0.69860   0.00000  Uiso   1.00
N92    N     0.41891   0.37999   0.51298   0.00000  Uiso   1.00
C93    C     0.80307   0.76109   0.06179   0.00000  Uiso   1.00
C94    C     0.76357   0.85072   0.12102   0.00000  Uiso   1.00
C95    C     0.80439   0.96030   0.11727   0.00000  Uiso   1.00
C96    C     0.75728   0.02933   0.17718   0.00000  Uiso   1.00
C97    C     0.70891   0.17444   0.25983   0.00000  Uiso   1.00
C98    C     0.83722   0.65888   0.09649   0.00000  Uiso   1.00
C99    C     0.93995   0.60715   0.07211   0.00000  Uiso   1.00
C100   C     0.95482   0.51468   0.11137   0.00000  Uiso   1.00
C101   C     0.02075   0.36191   0.15591   0.00000  Uiso   1.00
C102   C     0.70134   0.72416   0.04534   0.00000  Uiso   1.00
C103   C     0.68983   0.72729   0.97794   0.00000  Uiso   1.00
C104   C     0.59031   0.68975   0.97413   0.00000  Uiso   1.00
C105   C     0.44527   0.63834   0.93924   0.00000  Uiso   1.00
C106   C     0.64681   0.68882   0.17486   0.00000  Uiso   1.00
C107   C     0.67870   0.81146   0.18244   0.00000  Uiso   1.00
C108   C     0.63151   0.88034   0.24237   0.00000  Uiso   1.00
C109   C     0.67225   0.99001   0.23871   0.00000  Uiso   1.00
C110   C     0.75235   0.61962   0.15791   0.00000  Uiso   1.00
C111   C     0.76707   0.52720   0.19721   0.00000  Uiso   1.00
C112   C     0.86980   0.47535   0.17290   0.00000  Uiso   1.00
C113   C     0.61646   0.68490   0.10676   0.00000  Uiso   1.00
C114   C     0.51694   0.64734   0.10305   0.00000  Uiso   1.00
C115   C     0.50528   0.65042   0.03566   0.00000  Uiso   1.00
H116   H     0.86915   0.79165   0.01398   0.00000  Uiso   1.00
H117   H     0.87008   0.99064   0.06974   0.00000  Uiso   1.00
H118   H     0.00561   0.63754   0.02458   0.00000  Uiso   1.00
H119   H     0.75552   0.75767   0.93043   0.00000  Uiso   1.00
H120   H     0.83372   0.19393   0.15865   0.00000  Uiso   1.00
H121   H     0.11947   0.44939   0.06342   0.00000  Uiso   1.00
H122   H     0.59212   0.70270   0.86488   0.00000  Uiso   1.00
H123   H     0.58073   0.65826   0.22268   0.00000  Uiso   1.00
H124   H     0.56583   0.84994   0.28989   0.00000  Uiso   1.00
H125   H     0.70137   0.49684   0.24473   0.00000  Uiso   1.00
H126   H     0.45128   0.61697   0.15058   0.00000  Uiso   1.00
H127   H     0.58678   0.07974   0.33734   0.00000  Uiso   1.00
H128   H     0.87254   0.33519   0.24211   0.00000  Uiso   1.00
H129   H     0.34519   0.58850   0.04357   0.00000  Uiso   1.00
O130   O     0.70568   0.26532   0.28845   0.00000  Uiso   1.00
O131   O     0.08058   0.28850   0.16351   0.00000  Uiso   1.00
O132   O     0.38870   0.62084   0.90303   0.00000  Uiso   1.00
N133   N     0.77763   0.14076   0.19148   0.00000  Uiso   1.00
N134   N     0.04480   0.44466   0.10245   0.00000  Uiso   1.00
N135   N     0.55178   0.68146   0.91683   0.00000  Uiso   1.00
N136   N     0.64475   0.07931   0.28763   0.00000  Uiso   1.00
N137   N     0.91193   0.38322   0.19860   0.00000  Uiso   1.00
N138   N     0.41891   0.62001   0.01298   0.00000  Uiso   1.00
C139   C     0.19693   0.76109   0.43821   0.00000  Uiso   1.00
C140   C     0.23643   0.85072   0.37898   0.00000  Uiso   1.00
C141   C     0.19561   0.96030   0.38273   0.00000  Uiso   1.00
C142   C     0.24272   0.02933   0.32282   0.00000  Uiso   1.00
C143   C     0.29109   0.17444   0.24017   0.00000  Uiso   1.00
C144   C     0.16278   0.65888   0.40351   0.00000  Uiso   1.00
C145   C     0.06005   0.60715   0.42789   0.00000  Uiso   1.00
C146   C     0.04518   0.51468   0.38863   0.00000  Uiso   1.00
C147   C     0.97925   0.36191   0.34409   0.00000  Uiso   1.00
C148   C     0.29866   0.72416   0.45466   0.00000  Uiso   1.00
C149   C     0.31017   0.72729   0.52206   0.00000  Uiso   1.00
C150   C     0.40969   0.68975   0.52587   0.00000  Uiso   1.00
C151   C     0.55473   0.63834   0.56076   0.00000  Uiso   1.00
C152   C     0.35319   0.68882   0.32514   0.00000  Uiso   1.00
C153   C     0.32130   0.81146   0.31756   0.00000  Uiso   1.00
C154   C     0.36849   0.88034   0.25763   0.00000  Uiso   1.00
C155   C     0.32775   0.99001   0.26129   0.00000  Uiso   1.00
C156   C     0.24765   0.61962   0.34209   0.00000  Uiso   1.00
C157   C     0.23293   0.52720   0.30279   0.00000  Uiso   1.00
C158   C     0.13020   0.47535   0.32710   0.00000  Uiso   1.00
C159   C     0.38354   0.68490   0.39324   0.00000  Uiso   1.00
C160   C     0.48306   0.64734   0.39695   0.00000  Uiso   1.00
C161   C     0.49472   0.65042   0.46434   0.00000  Uiso   1.00
H162   H     0.13085   0.79165   0.48602   0.00000  Uiso   1.00
H163   H     0.12992   0.99064   0.43026   0.00000  Uiso   1.00
H164   H     0.99439   0.63754   0.47542   0.00000  Uiso   1.00
H165   H     0.24448   0.75767   0.56957   0.00000  Uiso   1.00
H166   H     0.16628   0.19393   0.34135   0.00000  Uiso   1.00
H167   H     0.88053   0.44939   0.43658   0.00000  Uiso   1.00
H168   H     0.40788   0.70270   0.63512   0.00000  Uiso   1.00
H169   H     0.41927   0.65826   0.27732   0.00000  Uiso   1.00
H170   H     0.43417   0.84994   0.21011   0.00000  Uiso   1.00
H171   H     0.29863   0.49684   0.25527   0.00000  Uiso   1.00
H172   H     0.54872   0.61697   0.34942   0.00000  Uiso   1.00
H173   H     0.41322   0.07974   0.16266   0.00000  Uiso   1.00
H174   H     0.12746   0.33519   0.25789   0.00000  Uiso   1.00
H175   H     0.65481   0.58850   0.45643   0.00000  Uiso   1.00
O176   O     0.29432   0.26532   0.21155   0.00000  Uiso   1.00
O177   O     0.91942   0.28850   0.33649   0.00000  Uiso   1.00
O178   O     0.61130   0.62084   0.59697   0.00000  Uiso   1.00
N179   N     0.22237   0.14076   0.30852   0.00000  Uiso   1.00
N180   N     0.95520   0.44466   0.39755   0.00000  Uiso   1.00
N181   N     0.44822   0.68146   0.58317   0.00000  Uiso   1.00
N182   N     0.35525   0.07931   0.21237   0.00000  Uiso   1.00
N183   N     0.08807   0.38322   0.30140   0.00000  Uiso   1.00
N184   N     0.58109   0.62001   0.48702   0.00000  Uiso   1.00
