data_job_03101
_audit_creation_date              2018-12-19
_audit_creation_method            'Materials Studio'
_symmetry_space_group_name_H-M    'P1'
_symmetry_Int_Tables_number       1
_symmetry_cell_setting            triclinic
loop_
_symmetry_equiv_pos_as_xyz
  x,y,z
_cell_length_a                    16.8203
_cell_length_b                    16.8203
_cell_length_c                    16.5835
_cell_angle_alpha                 90.0000
_cell_angle_beta                  90.0000
_cell_angle_gamma                 90.0000
loop_
_atom_site_label
_atom_site_type_symbol
_atom_site_fract_x
_atom_site_fract_y
_atom_site_fract_z
_atom_site_U_iso_or_equiv
_atom_site_adp_type
_atom_site_occupancy
C1     C     0.24970   0.52944   0.75153   0.00000  Uiso   1.00
C2     C     0.30928   0.47653   0.70765   0.00000  Uiso   1.00
C3     C     0.38223   0.45188   0.73770   0.00000  Uiso   1.00
C4     C     0.42809   0.40361   0.68821   0.00000  Uiso   1.00
C5     C     0.52456   0.32489   0.63177   0.00000  Uiso   1.00
C6     C     0.17197   0.48284   0.75398   0.00000  Uiso   1.00
C7     C     0.12947   0.46350   0.82298   0.00000  Uiso   1.00
C8     C     0.05974   0.42056   0.81249   0.00000  Uiso   1.00
C9     C     0.94302   0.35168   0.82798   0.00000  Uiso   1.00
C10    C     0.23477   0.60023   0.69612   0.00000  Uiso   1.00
C11    C     0.24506   0.67959   0.71647   0.00000  Uiso   1.00
C12    C     0.22819   0.73548   0.65728   0.00000  Uiso   1.00
C13    C     0.20897   0.84886   0.58292   0.00000  Uiso   1.00
C14    C     0.20142   0.48755   0.61021   0.00000  Uiso   1.00
C15    C     0.28305   0.45378   0.63089   0.00000  Uiso   1.00
C16    C     0.32881   0.40554   0.58135   0.00000  Uiso   1.00
C17    C     0.40182   0.38082   0.61132   0.00000  Uiso   1.00
C18    C     0.14575   0.46009   0.67723   0.00000  Uiso   1.00
C19    C     0.07606   0.41717   0.66663   0.00000  Uiso   1.00
C20    C     0.03347   0.39776   0.73560   0.00000  Uiso   1.00
C21    C     0.20855   0.57748   0.61936   0.00000  Uiso   1.00
C22    C     0.19165   0.63325   0.56012   0.00000  Uiso   1.00
C23    C     0.20191   0.71269   0.58038   0.00000  Uiso   1.00
H24    H     0.27011   0.54715   0.81129   0.00000  Uiso   1.00
H25    H     0.40250   0.46949   0.79711   0.00000  Uiso   1.00
H26    H     0.14978   0.48112   0.88237   0.00000  Uiso   1.00
H27    H     0.26535   0.69718   0.77588   0.00000  Uiso   1.00
H28    H     0.53769   0.37334   0.74754   0.00000  Uiso   1.00
H29    H     0.00481   0.39789   0.92733   0.00000  Uiso   1.00
H30    H     0.24851   0.85348   0.70277   0.00000  Uiso   1.00
H31    H     0.18101   0.46984   0.55045   0.00000  Uiso   1.00
H32    H     0.30850   0.38795   0.52195   0.00000  Uiso   1.00
H33    H     0.05578   0.39958   0.60723   0.00000  Uiso   1.00
H34    H     0.17136   0.61563   0.50073   0.00000  Uiso   1.00
H35    H     0.46140   0.30715   0.52422   0.00000  Uiso   1.00
H36    H     0.92851   0.33170   0.70401   0.00000  Uiso   1.00
H37    H     0.17223   0.78729   0.47945   0.00000  Uiso   1.00
O38    O     0.58501   0.28775   0.62185   0.00000  Uiso   1.00
O39    O     0.88588   0.31997   0.85773   0.00000  Uiso   1.00
O40    O     0.20563   0.91769   0.56311   0.00000  Uiso   1.00
N41    N     0.50224   0.36902   0.69889   0.00000  Uiso   1.00
N42    N     0.00404   0.39196   0.86698   0.00000  Uiso   1.00
N43    N     0.23186   0.81790   0.65704   0.00000  Uiso   1.00
N44    N     0.46119   0.33340   0.57872   0.00000  Uiso   1.00
N45    N     0.96299   0.35634   0.74681   0.00000  Uiso   1.00
N46    N     0.19081   0.78228   0.53688   0.00000  Uiso   1.00
C47    C     0.75030   0.47056   0.75153   0.00000  Uiso   1.00
C48    C     0.69072   0.52347   0.70765   0.00000  Uiso   1.00
C49    C     0.61777   0.54812   0.73770   0.00000  Uiso   1.00
C50    C     0.57191   0.59639   0.68821   0.00000  Uiso   1.00
C51    C     0.47544   0.67511   0.63177   0.00000  Uiso   1.00
C52    C     0.82803   0.51716   0.75398   0.00000  Uiso   1.00
C53    C     0.87053   0.53650   0.82298   0.00000  Uiso   1.00
C54    C     0.94026   0.57944   0.81249   0.00000  Uiso   1.00
C55    C     0.05698   0.64832   0.82798   0.00000  Uiso   1.00
C56    C     0.76523   0.39977   0.69612   0.00000  Uiso   1.00
C57    C     0.75494   0.32041   0.71647   0.00000  Uiso   1.00
C58    C     0.77181   0.26452   0.65728   0.00000  Uiso   1.00
C59    C     0.79103   0.15114   0.58292   0.00000  Uiso   1.00
C60    C     0.79858   0.51245   0.61021   0.00000  Uiso   1.00
C61    C     0.71695   0.54622   0.63089   0.00000  Uiso   1.00
C62    C     0.67119   0.59446   0.58135   0.00000  Uiso   1.00
C63    C     0.59818   0.61918   0.61132   0.00000  Uiso   1.00
C64    C     0.85425   0.53991   0.67723   0.00000  Uiso   1.00
C65    C     0.92394   0.58283   0.66663   0.00000  Uiso   1.00
C66    C     0.96653   0.60224   0.73560   0.00000  Uiso   1.00
C67    C     0.79145   0.42252   0.61936   0.00000  Uiso   1.00
C68    C     0.80835   0.36675   0.56012   0.00000  Uiso   1.00
C69    C     0.79809   0.28731   0.58038   0.00000  Uiso   1.00
H70    H     0.72989   0.45285   0.81129   0.00000  Uiso   1.00
H71    H     0.59750   0.53051   0.79711   0.00000  Uiso   1.00
H72    H     0.85022   0.51888   0.88237   0.00000  Uiso   1.00
H73    H     0.73465   0.30282   0.77588   0.00000  Uiso   1.00
H74    H     0.46231   0.62666   0.74754   0.00000  Uiso   1.00
H75    H     0.99519   0.60211   0.92733   0.00000  Uiso   1.00
H76    H     0.75149   0.14652   0.70277   0.00000  Uiso   1.00
H77    H     0.81899   0.53016   0.55045   0.00000  Uiso   1.00
H78    H     0.69150   0.61205   0.52195   0.00000  Uiso   1.00
H79    H     0.94422   0.60042   0.60723   0.00000  Uiso   1.00
H80    H     0.82864   0.38437   0.50073   0.00000  Uiso   1.00
H81    H     0.53860   0.69285   0.52422   0.00000  Uiso   1.00
H82    H     0.07149   0.66830   0.70401   0.00000  Uiso   1.00
H83    H     0.82777   0.21271   0.47945   0.00000  Uiso   1.00
O84    O     0.41499   0.71225   0.62185   0.00000  Uiso   1.00
O85    O     0.11412   0.68003   0.85773   0.00000  Uiso   1.00
O86    O     0.79437   0.08231   0.56311   0.00000  Uiso   1.00
N87    N     0.49776   0.63098   0.69889   0.00000  Uiso   1.00
N88    N     0.99596   0.60804   0.86698   0.00000  Uiso   1.00
N89    N     0.76814   0.18210   0.65704   0.00000  Uiso   1.00
N90    N     0.53881   0.66660   0.57872   0.00000  Uiso   1.00
N91    N     0.03701   0.64366   0.74681   0.00000  Uiso   1.00
N92    N     0.80919   0.21772   0.53688   0.00000  Uiso   1.00
C93    C     0.52944   0.75030   0.24847   0.00000  Uiso   1.00
C94    C     0.47653   0.69072   0.29235   0.00000  Uiso   1.00
C95    C     0.45188   0.61777   0.26230   0.00000  Uiso   1.00
C96    C     0.40361   0.57191   0.31179   0.00000  Uiso   1.00
C97    C     0.32489   0.47544   0.36823   0.00000  Uiso   1.00
C98    C     0.48284   0.82803   0.24602   0.00000  Uiso   1.00
C99    C     0.46350   0.87053   0.17702   0.00000  Uiso   1.00
C100   C     0.42056   0.94026   0.18751   0.00000  Uiso   1.00
C101   C     0.35168   0.05698   0.17202   0.00000  Uiso   1.00
C102   C     0.60023   0.76523   0.30388   0.00000  Uiso   1.00
C103   C     0.67959   0.75494   0.28353   0.00000  Uiso   1.00
C104   C     0.73548   0.77181   0.34272   0.00000  Uiso   1.00
C105   C     0.84886   0.79103   0.41708   0.00000  Uiso   1.00
C106   C     0.48755   0.79858   0.38979   0.00000  Uiso   1.00
C107   C     0.45378   0.71695   0.36911   0.00000  Uiso   1.00
C108   C     0.40554   0.67119   0.41865   0.00000  Uiso   1.00
C109   C     0.38082   0.59818   0.38868   0.00000  Uiso   1.00
C110   C     0.46009   0.85425   0.32277   0.00000  Uiso   1.00
C111   C     0.41717   0.92394   0.33337   0.00000  Uiso   1.00
C112   C     0.39776   0.96653   0.26440   0.00000  Uiso   1.00
C113   C     0.57748   0.79145   0.38064   0.00000  Uiso   1.00
C114   C     0.63325   0.80835   0.43988   0.00000  Uiso   1.00
C115   C     0.71269   0.79809   0.41962   0.00000  Uiso   1.00
H116   H     0.54715   0.72989   0.18871   0.00000  Uiso   1.00
H117   H     0.46949   0.59750   0.20289   0.00000  Uiso   1.00
H118   H     0.48112   0.85022   0.11763   0.00000  Uiso   1.00
H119   H     0.69718   0.73465   0.22412   0.00000  Uiso   1.00
H120   H     0.37334   0.46231   0.25246   0.00000  Uiso   1.00
H121   H     0.39789   0.99519   0.07267   0.00000  Uiso   1.00
H122   H     0.85348   0.75149   0.29723   0.00000  Uiso   1.00
H123   H     0.46984   0.81899   0.44955   0.00000  Uiso   1.00
H124   H     0.38795   0.69150   0.47805   0.00000  Uiso   1.00
H125   H     0.39958   0.94422   0.39277   0.00000  Uiso   1.00
H126   H     0.61563   0.82864   0.49927   0.00000  Uiso   1.00
H127   H     0.30715   0.53860   0.47578   0.00000  Uiso   1.00
H128   H     0.33170   0.07149   0.29599   0.00000  Uiso   1.00
H129   H     0.78729   0.82777   0.52055   0.00000  Uiso   1.00
O130   O     0.28775   0.41499   0.37815   0.00000  Uiso   1.00
O131   O     0.31997   0.11412   0.14227   0.00000  Uiso   1.00
O132   O     0.91769   0.79437   0.43689   0.00000  Uiso   1.00
N133   N     0.36902   0.49776   0.30111   0.00000  Uiso   1.00
N134   N     0.39196   0.99596   0.13302   0.00000  Uiso   1.00
N135   N     0.81790   0.76814   0.34296   0.00000  Uiso   1.00
N136   N     0.33340   0.53881   0.42128   0.00000  Uiso   1.00
N137   N     0.35634   0.03701   0.25319   0.00000  Uiso   1.00
N138   N     0.78228   0.80919   0.46312   0.00000  Uiso   1.00
C139   C     0.47056   0.24970   0.24847   0.00000  Uiso   1.00
C140   C     0.52347   0.30928   0.29235   0.00000  Uiso   1.00
C141   C     0.54812   0.38223   0.26230   0.00000  Uiso   1.00
C142   C     0.59639   0.42809   0.31179   0.00000  Uiso   1.00
C143   C     0.67511   0.52456   0.36823   0.00000  Uiso   1.00
C144   C     0.51716   0.17197   0.24602   0.00000  Uiso   1.00
C145   C     0.53650   0.12947   0.17702   0.00000  Uiso   1.00
C146   C     0.57944   0.05974   0.18751   0.00000  Uiso   1.00
C147   C     0.64832   0.94302   0.17202   0.00000  Uiso   1.00
C148   C     0.39977   0.23477   0.30388   0.00000  Uiso   1.00
C149   C     0.32041   0.24506   0.28353   0.00000  Uiso   1.00
C150   C     0.26452   0.22819   0.34272   0.00000  Uiso   1.00
C151   C     0.15114   0.20897   0.41708   0.00000  Uiso   1.00
C152   C     0.51245   0.20142   0.38979   0.00000  Uiso   1.00
C153   C     0.54622   0.28305   0.36911   0.00000  Uiso   1.00
C154   C     0.59446   0.32881   0.41865   0.00000  Uiso   1.00
C155   C     0.61918   0.40182   0.38868   0.00000  Uiso   1.00
C156   C     0.53991   0.14575   0.32277   0.00000  Uiso   1.00
C157   C     0.58283   0.07606   0.33337   0.00000  Uiso   1.00
C158   C     0.60224   0.03347   0.26440   0.00000  Uiso   1.00
C159   C     0.42252   0.20855   0.38064   0.00000  Uiso   1.00
C160   C     0.36675   0.19165   0.43988   0.00000  Uiso   1.00
C161   C     0.28731   0.20191   0.41962   0.00000  Uiso   1.00
H162   H     0.45285   0.27011   0.18871   0.00000  Uiso   1.00
H163   H     0.53051   0.40250   0.20289   0.00000  Uiso   1.00
H164   H     0.51888   0.14978   0.11763   0.00000  Uiso   1.00
H165   H     0.30282   0.26535   0.22412   0.00000  Uiso   1.00
H166   H     0.62666   0.53769   0.25246   0.00000  Uiso   1.00
H167   H     0.60211   0.00481   0.07267   0.00000  Uiso   1.00
H168   H     0.14652   0.24851   0.29723   0.00000  Uiso   1.00
H169   H     0.53016   0.18101   0.44955   0.00000  Uiso   1.00
H170   H     0.61205   0.30850   0.47805   0.00000  Uiso   1.00
H171   H     0.60042   0.05578   0.39277   0.00000  Uiso   1.00
H172   H     0.38437   0.17136   0.49927   0.00000  Uiso   1.00
H173   H     0.69285   0.46140   0.47578   0.00000  Uiso   1.00
H174   H     0.66830   0.92851   0.29599   0.00000  Uiso   1.00
H175   H     0.21271   0.17223   0.52055   0.00000  Uiso   1.00
O176   O     0.71225   0.58501   0.37815   0.00000  Uiso   1.00
O177   O     0.68003   0.88588   0.14227   0.00000  Uiso   1.00
O178   O     0.08231   0.20563   0.43689   0.00000  Uiso   1.00
N179   N     0.63098   0.50224   0.30111   0.00000  Uiso   1.00
N180   N     0.60804   0.00404   0.13302   0.00000  Uiso   1.00
N181   N     0.18210   0.23186   0.34296   0.00000  Uiso   1.00
N182   N     0.66660   0.46119   0.42128   0.00000  Uiso   1.00
N183   N     0.64366   0.96299   0.25319   0.00000  Uiso   1.00
N184   N     0.21772   0.19081   0.46312   0.00000  Uiso   1.00
C185   C     0.25030   0.02944   0.74847   0.00000  Uiso   1.00
C186   C     0.19072   0.97653   0.79235   0.00000  Uiso   1.00
C187   C     0.11777   0.95188   0.76230   0.00000  Uiso   1.00
C188   C     0.07191   0.90361   0.81179   0.00000  Uiso   1.00
C189   C     0.97544   0.82489   0.86823   0.00000  Uiso   1.00
C190   C     0.32803   0.98284   0.74602   0.00000  Uiso   1.00
C191   C     0.37053   0.96350   0.67702   0.00000  Uiso   1.00
C192   C     0.44026   0.92056   0.68751   0.00000  Uiso   1.00
C193   C     0.55698   0.85168   0.67202   0.00000  Uiso   1.00
C194   C     0.26523   0.10023   0.80388   0.00000  Uiso   1.00
C195   C     0.25494   0.17959   0.78353   0.00000  Uiso   1.00
C196   C     0.27181   0.23548   0.84272   0.00000  Uiso   1.00
C197   C     0.29103   0.34886   0.91708   0.00000  Uiso   1.00
C198   C     0.29858   0.98755   0.88979   0.00000  Uiso   1.00
C199   C     0.21695   0.95378   0.86911   0.00000  Uiso   1.00
C200   C     0.17119   0.90554   0.91865   0.00000  Uiso   1.00
C201   C     0.09818   0.88082   0.88868   0.00000  Uiso   1.00
C202   C     0.35425   0.96009   0.82277   0.00000  Uiso   1.00
C203   C     0.42394   0.91717   0.83337   0.00000  Uiso   1.00
C204   C     0.46653   0.89776   0.76440   0.00000  Uiso   1.00
C205   C     0.29145   0.07748   0.88064   0.00000  Uiso   1.00
C206   C     0.30835   0.13325   0.93988   0.00000  Uiso   1.00
C207   C     0.29809   0.21269   0.91962   0.00000  Uiso   1.00
H208   H     0.22989   0.04715   0.68871   0.00000  Uiso   1.00
H209   H     0.09750   0.96949   0.70289   0.00000  Uiso   1.00
H210   H     0.35022   0.98112   0.61763   0.00000  Uiso   1.00
H211   H     0.23465   0.19718   0.72412   0.00000  Uiso   1.00
H212   H     0.96231   0.87334   0.75246   0.00000  Uiso   1.00
H213   H     0.49519   0.89789   0.57267   0.00000  Uiso   1.00
H214   H     0.25149   0.35348   0.79723   0.00000  Uiso   1.00
H215   H     0.31899   0.96984   0.94955   0.00000  Uiso   1.00
H216   H     0.19150   0.88795   0.97805   0.00000  Uiso   1.00
H217   H     0.44422   0.89958   0.89277   0.00000  Uiso   1.00
H218   H     0.32864   0.11563   0.99927   0.00000  Uiso   1.00
H219   H     0.03860   0.80715   0.97578   0.00000  Uiso   1.00
H220   H     0.57149   0.83170   0.79599   0.00000  Uiso   1.00
H221   H     0.32777   0.28729   0.02055   0.00000  Uiso   1.00
O222   O     0.91499   0.78775   0.87815   0.00000  Uiso   1.00
O223   O     0.61412   0.81997   0.64227   0.00000  Uiso   1.00
O224   O     0.29437   0.41769   0.93689   0.00000  Uiso   1.00
N225   N     0.99776   0.86902   0.80111   0.00000  Uiso   1.00
N226   N     0.49596   0.89196   0.63302   0.00000  Uiso   1.00
N227   N     0.26814   0.31790   0.84296   0.00000  Uiso   1.00
N228   N     0.03881   0.83340   0.92128   0.00000  Uiso   1.00
N229   N     0.53701   0.85634   0.75319   0.00000  Uiso   1.00
N230   N     0.30919   0.28228   0.96312   0.00000  Uiso   1.00
C231   C     0.74970   0.97056   0.74847   0.00000  Uiso   1.00
C232   C     0.80928   0.02347   0.79235   0.00000  Uiso   1.00
C233   C     0.88223   0.04812   0.76230   0.00000  Uiso   1.00
C234   C     0.92809   0.09639   0.81179   0.00000  Uiso   1.00
C235   C     0.02456   0.17511   0.86823   0.00000  Uiso   1.00
C236   C     0.67197   0.01716   0.74602   0.00000  Uiso   1.00
C237   C     0.62947   0.03650   0.67702   0.00000  Uiso   1.00
C238   C     0.55974   0.07944   0.68751   0.00000  Uiso   1.00
C239   C     0.44302   0.14832   0.67202   0.00000  Uiso   1.00
C240   C     0.73477   0.89977   0.80388   0.00000  Uiso   1.00
C241   C     0.74506   0.82041   0.78353   0.00000  Uiso   1.00
C242   C     0.72819   0.76452   0.84272   0.00000  Uiso   1.00
C243   C     0.70897   0.65114   0.91708   0.00000  Uiso   1.00
C244   C     0.70142   0.01245   0.88979   0.00000  Uiso   1.00
C245   C     0.78305   0.04622   0.86911   0.00000  Uiso   1.00
C246   C     0.82881   0.09446   0.91865   0.00000  Uiso   1.00
C247   C     0.90182   0.11918   0.88868   0.00000  Uiso   1.00
C248   C     0.64575   0.03991   0.82277   0.00000  Uiso   1.00
C249   C     0.57606   0.08283   0.83337   0.00000  Uiso   1.00
C250   C     0.53347   0.10224   0.76440   0.00000  Uiso   1.00
C251   C     0.70855   0.92252   0.88064   0.00000  Uiso   1.00
C252   C     0.69165   0.86675   0.93988   0.00000  Uiso   1.00
C253   C     0.70191   0.78731   0.91962   0.00000  Uiso   1.00
H254   H     0.77011   0.95285   0.68871   0.00000  Uiso   1.00
H255   H     0.90250   0.03051   0.70289   0.00000  Uiso   1.00
H256   H     0.64978   0.01888   0.61763   0.00000  Uiso   1.00
H257   H     0.76535   0.80282   0.72412   0.00000  Uiso   1.00
H258   H     0.03769   0.12666   0.75246   0.00000  Uiso   1.00
H259   H     0.50481   0.10211   0.57267   0.00000  Uiso   1.00
H260   H     0.74851   0.64652   0.79723   0.00000  Uiso   1.00
H261   H     0.68101   0.03016   0.94955   0.00000  Uiso   1.00
H262   H     0.80850   0.11205   0.97805   0.00000  Uiso   1.00
H263   H     0.55578   0.10042   0.89277   0.00000  Uiso   1.00
H264   H     0.67136   0.88437   0.99927   0.00000  Uiso   1.00
H265   H     0.96140   0.19285   0.97578   0.00000  Uiso   1.00
H266   H     0.42851   0.16830   0.79599   0.00000  Uiso   1.00
H267   H     0.67223   0.71271   0.02055   0.00000  Uiso   1.00
O268   O     0.08501   0.21225   0.87815   0.00000  Uiso   1.00
O269   O     0.38588   0.18003   0.64227   0.00000  Uiso   1.00
O270   O     0.70563   0.58231   0.93689   0.00000  Uiso   1.00
N271   N     0.00224   0.13098   0.80111   0.00000  Uiso   1.00
N272   N     0.50404   0.10804   0.63302   0.00000  Uiso   1.00
N273   N     0.73186   0.68210   0.84296   0.00000  Uiso   1.00
N274   N     0.96119   0.16660   0.92128   0.00000  Uiso   1.00
N275   N     0.46299   0.14366   0.75319   0.00000  Uiso   1.00
N276   N     0.69081   0.71772   0.96312   0.00000  Uiso   1.00
C277   C     0.97056   0.25030   0.25153   0.00000  Uiso   1.00
C278   C     0.02347   0.19072   0.20765   0.00000  Uiso   1.00
C279   C     0.04812   0.11777   0.23770   0.00000  Uiso   1.00
C280   C     0.09639   0.07191   0.18821   0.00000  Uiso   1.00
C281   C     0.17511   0.97544   0.13177   0.00000  Uiso   1.00
C282   C     0.01716   0.32803   0.25398   0.00000  Uiso   1.00
C283   C     0.03650   0.37053   0.32298   0.00000  Uiso   1.00
C284   C     0.07944   0.44026   0.31249   0.00000  Uiso   1.00
C285   C     0.14832   0.55698   0.32798   0.00000  Uiso   1.00
C286   C     0.89977   0.26523   0.19612   0.00000  Uiso   1.00
C287   C     0.82041   0.25494   0.21647   0.00000  Uiso   1.00
C288   C     0.76452   0.27181   0.15728   0.00000  Uiso   1.00
C289   C     0.65114   0.29103   0.08292   0.00000  Uiso   1.00
C290   C     0.01245   0.29858   0.11021   0.00000  Uiso   1.00
C291   C     0.04622   0.21695   0.13089   0.00000  Uiso   1.00
C292   C     0.09446   0.17119   0.08135   0.00000  Uiso   1.00
C293   C     0.11918   0.09818   0.11132   0.00000  Uiso   1.00
C294   C     0.03991   0.35425   0.17723   0.00000  Uiso   1.00
C295   C     0.08283   0.42394   0.16663   0.00000  Uiso   1.00
C296   C     0.10224   0.46653   0.23560   0.00000  Uiso   1.00
C297   C     0.92252   0.29145   0.11936   0.00000  Uiso   1.00
C298   C     0.86675   0.30835   0.06012   0.00000  Uiso   1.00
C299   C     0.78731   0.29809   0.08038   0.00000  Uiso   1.00
H300   H     0.95285   0.22989   0.31129   0.00000  Uiso   1.00
H301   H     0.03051   0.09750   0.29711   0.00000  Uiso   1.00
H302   H     0.01888   0.35022   0.38237   0.00000  Uiso   1.00
H303   H     0.80282   0.23465   0.27588   0.00000  Uiso   1.00
H304   H     0.12666   0.96231   0.24754   0.00000  Uiso   1.00
H305   H     0.10211   0.49519   0.42733   0.00000  Uiso   1.00
H306   H     0.64652   0.25149   0.20277   0.00000  Uiso   1.00
H307   H     0.03016   0.31899   0.05045   0.00000  Uiso   1.00
H308   H     0.11205   0.19150   0.02195   0.00000  Uiso   1.00
H309   H     0.10042   0.44422   0.10723   0.00000  Uiso   1.00
H310   H     0.88437   0.32864   0.00073   0.00000  Uiso   1.00
H311   H     0.19285   0.03860   0.02422   0.00000  Uiso   1.00
H312   H     0.16830   0.57149   0.20401   0.00000  Uiso   1.00
H313   H     0.71271   0.32777   0.97945   0.00000  Uiso   1.00
O314   O     0.21225   0.91499   0.12185   0.00000  Uiso   1.00
O315   O     0.18003   0.61412   0.35773   0.00000  Uiso   1.00
O316   O     0.58231   0.29437   0.06311   0.00000  Uiso   1.00
N317   N     0.13098   0.99776   0.19889   0.00000  Uiso   1.00
N318   N     0.10804   0.49596   0.36698   0.00000  Uiso   1.00
N319   N     0.68210   0.26814   0.15704   0.00000  Uiso   1.00
N320   N     0.16660   0.03881   0.07872   0.00000  Uiso   1.00
N321   N     0.14366   0.53701   0.24681   0.00000  Uiso   1.00
N322   N     0.71772   0.30919   0.03688   0.00000  Uiso   1.00
C323   C     0.02944   0.74970   0.25153   0.00000  Uiso   1.00
C324   C     0.97653   0.80928   0.20765   0.00000  Uiso   1.00
C325   C     0.95188   0.88223   0.23770   0.00000  Uiso   1.00
C326   C     0.90361   0.92809   0.18821   0.00000  Uiso   1.00
C327   C     0.82489   0.02456   0.13177   0.00000  Uiso   1.00
C328   C     0.98284   0.67197   0.25398   0.00000  Uiso   1.00
C329   C     0.96350   0.62947   0.32298   0.00000  Uiso   1.00
C330   C     0.92056   0.55974   0.31249   0.00000  Uiso   1.00
C331   C     0.85168   0.44302   0.32798   0.00000  Uiso   1.00
C332   C     0.10023   0.73477   0.19612   0.00000  Uiso   1.00
C333   C     0.17959   0.74506   0.21647   0.00000  Uiso   1.00
C334   C     0.23548   0.72819   0.15728   0.00000  Uiso   1.00
C335   C     0.34886   0.70897   0.08292   0.00000  Uiso   1.00
C336   C     0.98755   0.70142   0.11021   0.00000  Uiso   1.00
C337   C     0.95378   0.78305   0.13089   0.00000  Uiso   1.00
C338   C     0.90554   0.82881   0.08135   0.00000  Uiso   1.00
C339   C     0.88082   0.90182   0.11132   0.00000  Uiso   1.00
C340   C     0.96009   0.64575   0.17723   0.00000  Uiso   1.00
C341   C     0.91717   0.57606   0.16663   0.00000  Uiso   1.00
C342   C     0.89776   0.53347   0.23560   0.00000  Uiso   1.00
C343   C     0.07748   0.70855   0.11936   0.00000  Uiso   1.00
C344   C     0.13325   0.69165   0.06012   0.00000  Uiso   1.00
C345   C     0.21269   0.70191   0.08038   0.00000  Uiso   1.00
H346   H     0.04715   0.77011   0.31129   0.00000  Uiso   1.00
H347   H     0.96949   0.90250   0.29711   0.00000  Uiso   1.00
H348   H     0.98112   0.64978   0.38237   0.00000  Uiso   1.00
H349   H     0.19718   0.76535   0.27588   0.00000  Uiso   1.00
H350   H     0.87334   0.03769   0.24754   0.00000  Uiso   1.00
H351   H     0.89789   0.50481   0.42733   0.00000  Uiso   1.00
H352   H     0.35348   0.74851   0.20277   0.00000  Uiso   1.00
H353   H     0.96984   0.68101   0.05045   0.00000  Uiso   1.00
H354   H     0.88795   0.80850   0.02195   0.00000  Uiso   1.00
H355   H     0.89958   0.55578   0.10723   0.00000  Uiso   1.00
H356   H     0.11563   0.67136   0.00073   0.00000  Uiso   1.00
H357   H     0.80715   0.96140   0.02422   0.00000  Uiso   1.00
H358   H     0.83170   0.42851   0.20401   0.00000  Uiso   1.00
H359   H     0.28729   0.67223   0.97945   0.00000  Uiso   1.00
O360   O     0.78775   0.08501   0.12185   0.00000  Uiso   1.00
O361   O     0.81997   0.38588   0.35773   0.00000  Uiso   1.00
O362   O     0.41769   0.70563   0.06311   0.00000  Uiso   1.00
N363   N     0.86902   0.00224   0.19889   0.00000  Uiso   1.00
N364   N     0.89196   0.50404   0.36698   0.00000  Uiso   1.00
N365   N     0.31790   0.73186   0.15704   0.00000  Uiso   1.00
N366   N     0.83340   0.96119   0.07872   0.00000  Uiso   1.00
N367   N     0.85634   0.46299   0.24681   0.00000  Uiso   1.00
N368   N     0.28228   0.69081   0.03688   0.00000  Uiso   1.00
