data_job_00837
_audit_creation_date              2018-12-19
_audit_creation_method            'Materials Studio'
_symmetry_space_group_name_H-M    'P1'
_symmetry_Int_Tables_number       1
_symmetry_cell_setting            triclinic
loop_
_symmetry_equiv_pos_as_xyz
  x,y,z
_cell_length_a                    13.3205
_cell_length_b                    13.3205
_cell_length_c                    13.2938
_cell_angle_alpha                 90.0000
_cell_angle_beta                  90.0000
_cell_angle_gamma                 90.0000
loop_
_atom_site_label
_atom_site_type_symbol
_atom_site_fract_x
_atom_site_fract_y
_atom_site_fract_z
_atom_site_U_iso_or_equiv
_atom_site_adp_type
_atom_site_occupancy
C1     C     0.19476   0.76328   0.53315   0.00000  Uiso   1.00
C2     C     0.17826   0.77613   0.64593   0.00000  Uiso   1.00
C3     C     0.09336   0.81658   0.69084   0.00000  Uiso   1.00
C4     C     0.09279   0.82186   0.79515   0.00000  Uiso   1.00
C5     C     0.05480   0.84702   0.96156   0.00000  Uiso   1.00
C6     C     0.29195   0.81872   0.50886   0.00000  Uiso   1.00
C7     C     0.30262   0.89496   0.43851   0.00000  Uiso   1.00
C8     C     0.39776   0.93608   0.42742   0.00000  Uiso   1.00
C9     C     0.53628   0.02731   0.38097   0.00000  Uiso   1.00
C10    C     0.21686   0.65214   0.51687   0.00000  Uiso   1.00
C11    C     0.16443   0.58833   0.45324   0.00000  Uiso   1.00
C12    C     0.19637   0.48920   0.44887   0.00000  Uiso   1.00
C13    C     0.21830   0.32180   0.41486   0.00000  Uiso   1.00
C14    C     0.34474   0.70073   0.63852   0.00000  Uiso   1.00
C15    C     0.25973   0.74216   0.70316   0.00000  Uiso   1.00
C16    C     0.25929   0.74737   0.80743   0.00000  Uiso   1.00
C17    C     0.17440   0.78781   0.85249   0.00000  Uiso   1.00
C18    C     0.37341   0.78475   0.56609   0.00000  Uiso   1.00
C19    C     0.46856   0.82575   0.55509   0.00000  Uiso   1.00
C20    C     0.47937   0.90204   0.48476   0.00000  Uiso   1.00
C21    C     0.29832   0.61816   0.57410   0.00000  Uiso   1.00
C22    C     0.33036   0.51912   0.56983   0.00000  Uiso   1.00
C23    C     0.27798   0.45517   0.50621   0.00000  Uiso   1.00
H24    H     0.13135   0.78974   0.48859   0.00000  Uiso   1.00
H25    H     0.03033   0.84287   0.64652   0.00000  Uiso   1.00
H26    H     0.23957   0.92123   0.39423   0.00000  Uiso   1.00
H27    H     0.10139   0.61465   0.40896   0.00000  Uiso   1.00
H28    H     0.95428   0.88683   0.84687   0.00000  Uiso   1.00
H29    H     0.39548   0.05203   0.31486   0.00000  Uiso   1.00
H30    H     0.10410   0.40554   0.34592   0.00000  Uiso   1.00
H31    H     0.40817   0.67428   0.68308   0.00000  Uiso   1.00
H32    H     0.32234   0.72107   0.85169   0.00000  Uiso   1.00
H33    H     0.53158   0.79944   0.59939   0.00000  Uiso   1.00
H34    H     0.39340   0.49285   0.61413   0.00000  Uiso   1.00
H35    H     0.19129   0.78798   0.01339   0.00000  Uiso   1.00
H36    H     0.63249   0.95318   0.48137   0.00000  Uiso   1.00
H37    H     0.34111   0.30669   0.51244   0.00000  Uiso   1.00
O38    O     0.01135   0.87030   0.03754   0.00000  Uiso   1.00
O39    O     0.59018   0.08703   0.33955   0.00000  Uiso   1.00
O40    O     0.20789   0.23884   0.38030   0.00000  Uiso   1.00
N41    N     0.02183   0.85712   0.86292   0.00000  Uiso   1.00
N42    N     0.43432   0.01159   0.36553   0.00000  Uiso   1.00
N43    N     0.16192   0.40718   0.39455   0.00000  Uiso   1.00
N44    N     0.14936   0.80393   0.95252   0.00000  Uiso   1.00
N45    N     0.56185   0.95840   0.45514   0.00000  Uiso   1.00
N46    N     0.28945   0.35399   0.48415   0.00000  Uiso   1.00
C47    C     0.80524   0.23672   0.03315   0.00000  Uiso   1.00
C48    C     0.82174   0.22387   0.14593   0.00000  Uiso   1.00
C49    C     0.90664   0.18342   0.19084   0.00000  Uiso   1.00
C50    C     0.90721   0.17814   0.29515   0.00000  Uiso   1.00
C51    C     0.94520   0.15298   0.46156   0.00000  Uiso   1.00
C52    C     0.70805   0.18128   0.00886   0.00000  Uiso   1.00
C53    C     0.69738   0.10504   0.93851   0.00000  Uiso   1.00
C54    C     0.60224   0.06392   0.92742   0.00000  Uiso   1.00
C55    C     0.46372   0.97269   0.88097   0.00000  Uiso   1.00
C56    C     0.78314   0.34786   0.01687   0.00000  Uiso   1.00
C57    C     0.83557   0.41167   0.95324   0.00000  Uiso   1.00
C58    C     0.80363   0.51080   0.94887   0.00000  Uiso   1.00
C59    C     0.78170   0.67820   0.91486   0.00000  Uiso   1.00
C60    C     0.65526   0.29927   0.13852   0.00000  Uiso   1.00
C61    C     0.74027   0.25784   0.20316   0.00000  Uiso   1.00
C62    C     0.74071   0.25263   0.30743   0.00000  Uiso   1.00
C63    C     0.82560   0.21219   0.35249   0.00000  Uiso   1.00
C64    C     0.62659   0.21525   0.06609   0.00000  Uiso   1.00
C65    C     0.53144   0.17425   0.05509   0.00000  Uiso   1.00
C66    C     0.52063   0.09796   0.98476   0.00000  Uiso   1.00
C67    C     0.70168   0.38184   0.07410   0.00000  Uiso   1.00
C68    C     0.66964   0.48088   0.06983   0.00000  Uiso   1.00
C69    C     0.72202   0.54483   0.00621   0.00000  Uiso   1.00
H70    H     0.86865   0.21026   0.98859   0.00000  Uiso   1.00
H71    H     0.96967   0.15713   0.14652   0.00000  Uiso   1.00
H72    H     0.76043   0.07877   0.89423   0.00000  Uiso   1.00
H73    H     0.89861   0.38535   0.90896   0.00000  Uiso   1.00
H74    H     0.04572   0.11317   0.34687   0.00000  Uiso   1.00
H75    H     0.60452   0.94797   0.81486   0.00000  Uiso   1.00
H76    H     0.89590   0.59446   0.84592   0.00000  Uiso   1.00
H77    H     0.59183   0.32572   0.18308   0.00000  Uiso   1.00
H78    H     0.67766   0.27893   0.35169   0.00000  Uiso   1.00
H79    H     0.46842   0.20056   0.09939   0.00000  Uiso   1.00
H80    H     0.60660   0.50715   0.11413   0.00000  Uiso   1.00
H81    H     0.80871   0.21202   0.51339   0.00000  Uiso   1.00
H82    H     0.36751   0.04682   0.98137   0.00000  Uiso   1.00
H83    H     0.65889   0.69331   0.01244   0.00000  Uiso   1.00
O84    O     0.98865   0.12970   0.53754   0.00000  Uiso   1.00
O85    O     0.40982   0.91297   0.83955   0.00000  Uiso   1.00
O86    O     0.79211   0.76116   0.88030   0.00000  Uiso   1.00
N87    N     0.97817   0.14288   0.36292   0.00000  Uiso   1.00
N88    N     0.56568   0.98841   0.86553   0.00000  Uiso   1.00
N89    N     0.83808   0.59282   0.89455   0.00000  Uiso   1.00
N90    N     0.85064   0.19607   0.45252   0.00000  Uiso   1.00
N91    N     0.43815   0.04160   0.95514   0.00000  Uiso   1.00
N92    N     0.71055   0.64601   0.98415   0.00000  Uiso   1.00
C93    C     0.23672   0.19476   0.78315   0.00000  Uiso   1.00
C94    C     0.22387   0.17826   0.89593   0.00000  Uiso   1.00
C95    C     0.18342   0.09336   0.94084   0.00000  Uiso   1.00
C96    C     0.17814   0.09279   0.04515   0.00000  Uiso   1.00
C97    C     0.15298   0.05480   0.21156   0.00000  Uiso   1.00
C98    C     0.18128   0.29195   0.75886   0.00000  Uiso   1.00
C99    C     0.10504   0.30262   0.68851   0.00000  Uiso   1.00
C100   C     0.06392   0.39776   0.67742   0.00000  Uiso   1.00
C101   C     0.97269   0.53628   0.63097   0.00000  Uiso   1.00
C102   C     0.34786   0.21686   0.76687   0.00000  Uiso   1.00
C103   C     0.41167   0.16443   0.70324   0.00000  Uiso   1.00
C104   C     0.51080   0.19637   0.69887   0.00000  Uiso   1.00
C105   C     0.67820   0.21830   0.66486   0.00000  Uiso   1.00
C106   C     0.29927   0.34474   0.88852   0.00000  Uiso   1.00
C107   C     0.25784   0.25973   0.95316   0.00000  Uiso   1.00
C108   C     0.25263   0.25929   0.05743   0.00000  Uiso   1.00
C109   C     0.21219   0.17440   0.10249   0.00000  Uiso   1.00
C110   C     0.21525   0.37341   0.81609   0.00000  Uiso   1.00
C111   C     0.17425   0.46856   0.80509   0.00000  Uiso   1.00
C112   C     0.09796   0.47937   0.73476   0.00000  Uiso   1.00
C113   C     0.38184   0.29832   0.82410   0.00000  Uiso   1.00
C114   C     0.48088   0.33036   0.81983   0.00000  Uiso   1.00
C115   C     0.54483   0.27798   0.75621   0.00000  Uiso   1.00
H116   H     0.21026   0.13135   0.73859   0.00000  Uiso   1.00
H117   H     0.15713   0.03033   0.89652   0.00000  Uiso   1.00
H118   H     0.07877   0.23957   0.64423   0.00000  Uiso   1.00
H119   H     0.38535   0.10139   0.65896   0.00000  Uiso   1.00
H120   H     0.11317   0.95428   0.09687   0.00000  Uiso   1.00
H121   H     0.94797   0.39548   0.56486   0.00000  Uiso   1.00
H122   H     0.59446   0.10410   0.59592   0.00000  Uiso   1.00
H123   H     0.32572   0.40817   0.93308   0.00000  Uiso   1.00
H124   H     0.27893   0.32234   0.10169   0.00000  Uiso   1.00
H125   H     0.20056   0.53158   0.84939   0.00000  Uiso   1.00
H126   H     0.50715   0.39340   0.86413   0.00000  Uiso   1.00
H127   H     0.21202   0.19129   0.26339   0.00000  Uiso   1.00
H128   H     0.04682   0.63249   0.73137   0.00000  Uiso   1.00
H129   H     0.69331   0.34111   0.76244   0.00000  Uiso   1.00
O130   O     0.12970   0.01135   0.28754   0.00000  Uiso   1.00
O131   O     0.91297   0.59018   0.58955   0.00000  Uiso   1.00
O132   O     0.76116   0.20789   0.63030   0.00000  Uiso   1.00
N133   N     0.14288   0.02183   0.11292   0.00000  Uiso   1.00
N134   N     0.98841   0.43432   0.61553   0.00000  Uiso   1.00
N135   N     0.59282   0.16192   0.64455   0.00000  Uiso   1.00
N136   N     0.19607   0.14936   0.20252   0.00000  Uiso   1.00
N137   N     0.04160   0.56185   0.70514   0.00000  Uiso   1.00
N138   N     0.64601   0.28945   0.73415   0.00000  Uiso   1.00
C139   C     0.76328   0.80524   0.28315   0.00000  Uiso   1.00
C140   C     0.77613   0.82174   0.39593   0.00000  Uiso   1.00
C141   C     0.81658   0.90664   0.44084   0.00000  Uiso   1.00
C142   C     0.82186   0.90721   0.54515   0.00000  Uiso   1.00
C143   C     0.84702   0.94520   0.71156   0.00000  Uiso   1.00
C144   C     0.81872   0.70805   0.25886   0.00000  Uiso   1.00
C145   C     0.89496   0.69738   0.18851   0.00000  Uiso   1.00
C146   C     0.93608   0.60224   0.17742   0.00000  Uiso   1.00
C147   C     0.02731   0.46372   0.13097   0.00000  Uiso   1.00
C148   C     0.65214   0.78314   0.26687   0.00000  Uiso   1.00
C149   C     0.58833   0.83557   0.20324   0.00000  Uiso   1.00
C150   C     0.48920   0.80363   0.19887   0.00000  Uiso   1.00
C151   C     0.32180   0.78170   0.16486   0.00000  Uiso   1.00
C152   C     0.70073   0.65526   0.38852   0.00000  Uiso   1.00
C153   C     0.74216   0.74027   0.45316   0.00000  Uiso   1.00
C154   C     0.74737   0.74071   0.55743   0.00000  Uiso   1.00
C155   C     0.78781   0.82560   0.60249   0.00000  Uiso   1.00
C156   C     0.78475   0.62659   0.31609   0.00000  Uiso   1.00
C157   C     0.82575   0.53144   0.30509   0.00000  Uiso   1.00
C158   C     0.90204   0.52063   0.23476   0.00000  Uiso   1.00
C159   C     0.61816   0.70168   0.32410   0.00000  Uiso   1.00
C160   C     0.51912   0.66964   0.31983   0.00000  Uiso   1.00
C161   C     0.45517   0.72202   0.25621   0.00000  Uiso   1.00
H162   H     0.78974   0.86865   0.23859   0.00000  Uiso   1.00
H163   H     0.84287   0.96967   0.39652   0.00000  Uiso   1.00
H164   H     0.92123   0.76043   0.14423   0.00000  Uiso   1.00
H165   H     0.61465   0.89861   0.15896   0.00000  Uiso   1.00
H166   H     0.88683   0.04572   0.59687   0.00000  Uiso   1.00
H167   H     0.05203   0.60452   0.06486   0.00000  Uiso   1.00
H168   H     0.40554   0.89590   0.09592   0.00000  Uiso   1.00
H169   H     0.67428   0.59183   0.43308   0.00000  Uiso   1.00
H170   H     0.72107   0.67766   0.60169   0.00000  Uiso   1.00
H171   H     0.79944   0.46842   0.34939   0.00000  Uiso   1.00
H172   H     0.49285   0.60660   0.36413   0.00000  Uiso   1.00
H173   H     0.78798   0.80871   0.76339   0.00000  Uiso   1.00
H174   H     0.95318   0.36751   0.23137   0.00000  Uiso   1.00
H175   H     0.30669   0.65889   0.26244   0.00000  Uiso   1.00
O176   O     0.87030   0.98865   0.78754   0.00000  Uiso   1.00
O177   O     0.08703   0.40982   0.08955   0.00000  Uiso   1.00
O178   O     0.23884   0.79211   0.13030   0.00000  Uiso   1.00
N179   N     0.85712   0.97817   0.61292   0.00000  Uiso   1.00
N180   N     0.01159   0.56568   0.11553   0.00000  Uiso   1.00
N181   N     0.40718   0.83808   0.14455   0.00000  Uiso   1.00
N182   N     0.80393   0.85064   0.70252   0.00000  Uiso   1.00
N183   N     0.95840   0.43815   0.20514   0.00000  Uiso   1.00
N184   N     0.35399   0.71055   0.23415   0.00000  Uiso   1.00
