data_job_01018
_audit_creation_date              2018-12-19
_audit_creation_method            'Materials Studio'
_symmetry_space_group_name_H-M    'P1'
_symmetry_Int_Tables_number       1
_symmetry_cell_setting            triclinic
loop_
_symmetry_equiv_pos_as_xyz
  x,y,z
_cell_length_a                    22.3245
_cell_length_b                    23.7476
_cell_length_c                    10.6237
_cell_angle_alpha                 90.0000
_cell_angle_beta                  90.0000
_cell_angle_gamma                 90.0000
loop_
_atom_site_label
_atom_site_type_symbol
_atom_site_fract_x
_atom_site_fract_y
_atom_site_fract_z
_atom_site_U_iso_or_equiv
_atom_site_adp_type
_atom_site_occupancy
C1     C     0.06440   0.11214   0.47113   0.00000  Uiso   1.00
C2     C     0.10956   0.06868   0.42470   0.00000  Uiso   1.00
C3     C     0.10037   0.03059   0.32752   0.00000  Uiso   1.00
C4     C     0.14723   0.99428   0.29935   0.00000  Uiso   1.00
C5     C     0.20912   0.92650   0.21715   0.00000  Uiso   1.00
C6     C     0.05625   0.10088   0.61141   0.00000  Uiso   1.00
C7     C     0.00223   0.08987   0.67121   0.00000  Uiso   1.00
C8     C     0.00422   0.08067   0.80021   0.00000  Uiso   1.00
C9     C     0.98333   0.06292   0.00788   0.00000  Uiso   1.00
C10    C     0.09561   0.16909   0.46143   0.00000  Uiso   1.00
C11    C     0.07468   0.21545   0.39516   0.00000  Uiso   1.00
C12    C     0.10980   0.26369   0.39791   0.00000  Uiso   1.00
C13    C     0.15003   0.35186   0.37273   0.00000  Uiso   1.00
C14    C     0.16397   0.11538   0.59389   0.00000  Uiso   1.00
C15    C     0.16364   0.07044   0.49138   0.00000  Uiso   1.00
C16    C     0.21053   0.03417   0.46334   0.00000  Uiso   1.00
C17    C     0.20141   0.99604   0.36614   0.00000  Uiso   1.00
C18    C     0.11033   0.10263   0.67809   0.00000  Uiso   1.00
C19    C     0.11239   0.09345   0.80703   0.00000  Uiso   1.00
C20    C     0.05839   0.08243   0.86701   0.00000  Uiso   1.00
C21    C     0.14969   0.17085   0.52811   0.00000  Uiso   1.00
C22    C     0.18485   0.21903   0.53097   0.00000  Uiso   1.00
C23    C     0.16398   0.26546   0.46471   0.00000  Uiso   1.00
H24    H     0.02229   0.11077   0.41923   0.00000  Uiso   1.00
H25    H     0.05851   0.02924   0.27595   0.00000  Uiso   1.00
H26    H     0.96039   0.08852   0.61958   0.00000  Uiso   1.00
H27    H     0.03283   0.21408   0.34357   0.00000  Uiso   1.00
H28    H     0.12250   0.93961   0.14654   0.00000  Uiso   1.00
H29    H     0.91561   0.06461   0.87111   0.00000  Uiso   1.00
H30    H     0.06837   0.32938   0.28909   0.00000  Uiso   1.00
H31    H     0.20607   0.11675   0.64581   0.00000  Uiso   1.00
H32    H     0.25238   0.03554   0.51496   0.00000  Uiso   1.00
H33    H     0.15425   0.09482   0.85860   0.00000  Uiso   1.00
H34    H     0.22670   0.22038   0.58258   0.00000  Uiso   1.00
H35    H     0.27985   0.94472   0.34053   0.00000  Uiso   1.00
H36    H     0.07295   0.06973   0.06511   0.00000  Uiso   1.00
H37    H     0.22571   0.33450   0.48308   0.00000  Uiso   1.00
O38    O     0.22832   0.88862   0.15340   0.00000  Uiso   1.00
O39    O     0.95687   0.05264   0.10401   0.00000  Uiso   1.00
O40    O     0.15729   0.40001   0.34040   0.00000  Uiso   1.00
N41    N     0.15319   0.95196   0.21013   0.00000  Uiso   1.00
N42    N     0.95975   0.06883   0.88757   0.00000  Uiso   1.00
N43    N     0.10256   0.31637   0.34345   0.00000  Uiso   1.00
N44    N     0.23785   0.95471   0.31452   0.00000  Uiso   1.00
N45    N     0.04442   0.07158   0.99195   0.00000  Uiso   1.00
N46    N     0.18723   0.31912   0.44783   0.00000  Uiso   1.00
C47    C     0.06440   0.61214   0.97113   0.00000  Uiso   1.00
C48    C     0.10956   0.56868   0.92470   0.00000  Uiso   1.00
C49    C     0.10037   0.53059   0.82752   0.00000  Uiso   1.00
C50    C     0.14723   0.49428   0.79935   0.00000  Uiso   1.00
C51    C     0.20912   0.42650   0.71715   0.00000  Uiso   1.00
C52    C     0.05625   0.60088   0.11141   0.00000  Uiso   1.00
C53    C     0.00223   0.58987   0.17121   0.00000  Uiso   1.00
C54    C     0.00422   0.58067   0.30021   0.00000  Uiso   1.00
C55    C     0.98333   0.56292   0.50788   0.00000  Uiso   1.00
C56    C     0.09561   0.66909   0.96143   0.00000  Uiso   1.00
C57    C     0.07468   0.71545   0.89516   0.00000  Uiso   1.00
C58    C     0.10980   0.76369   0.89791   0.00000  Uiso   1.00
C59    C     0.15003   0.85186   0.87273   0.00000  Uiso   1.00
C60    C     0.16397   0.61538   0.09389   0.00000  Uiso   1.00
C61    C     0.16364   0.57044   0.99138   0.00000  Uiso   1.00
C62    C     0.21053   0.53417   0.96334   0.00000  Uiso   1.00
C63    C     0.20141   0.49604   0.86614   0.00000  Uiso   1.00
C64    C     0.11033   0.60263   0.17809   0.00000  Uiso   1.00
C65    C     0.11239   0.59345   0.30703   0.00000  Uiso   1.00
C66    C     0.05839   0.58243   0.36701   0.00000  Uiso   1.00
C67    C     0.14969   0.67085   0.02811   0.00000  Uiso   1.00
C68    C     0.18485   0.71903   0.03097   0.00000  Uiso   1.00
C69    C     0.16398   0.76546   0.96471   0.00000  Uiso   1.00
H70    H     0.02229   0.61077   0.91923   0.00000  Uiso   1.00
H71    H     0.05851   0.52924   0.77595   0.00000  Uiso   1.00
H72    H     0.96039   0.58852   0.11958   0.00000  Uiso   1.00
H73    H     0.03283   0.71408   0.84357   0.00000  Uiso   1.00
H74    H     0.12250   0.43961   0.64654   0.00000  Uiso   1.00
H75    H     0.91561   0.56461   0.37111   0.00000  Uiso   1.00
H76    H     0.06837   0.82938   0.78909   0.00000  Uiso   1.00
H77    H     0.20607   0.61675   0.14581   0.00000  Uiso   1.00
H78    H     0.25238   0.53554   0.01496   0.00000  Uiso   1.00
H79    H     0.15425   0.59482   0.35860   0.00000  Uiso   1.00
H80    H     0.22670   0.72038   0.08258   0.00000  Uiso   1.00
H81    H     0.27985   0.44472   0.84053   0.00000  Uiso   1.00
H82    H     0.07295   0.56973   0.56511   0.00000  Uiso   1.00
H83    H     0.22571   0.83450   0.98308   0.00000  Uiso   1.00
O84    O     0.22832   0.38862   0.65340   0.00000  Uiso   1.00
O85    O     0.95687   0.55264   0.60401   0.00000  Uiso   1.00
O86    O     0.15729   0.90001   0.84040   0.00000  Uiso   1.00
N87    N     0.15319   0.45196   0.71013   0.00000  Uiso   1.00
N88    N     0.95975   0.56883   0.38757   0.00000  Uiso   1.00
N89    N     0.10256   0.81637   0.84345   0.00000  Uiso   1.00
N90    N     0.23785   0.45471   0.81452   0.00000  Uiso   1.00
N91    N     0.04442   0.57158   0.49195   0.00000  Uiso   1.00
N92    N     0.18723   0.81912   0.94783   0.00000  Uiso   1.00
C93    C     0.93560   0.88786   0.47113   0.00000  Uiso   1.00
C94    C     0.89044   0.93132   0.42470   0.00000  Uiso   1.00
C95    C     0.89963   0.96941   0.32752   0.00000  Uiso   1.00
C96    C     0.85277   0.00572   0.29935   0.00000  Uiso   1.00
C97    C     0.79088   0.07350   0.21715   0.00000  Uiso   1.00
C98    C     0.94375   0.89912   0.61141   0.00000  Uiso   1.00
C99    C     0.99777   0.91013   0.67121   0.00000  Uiso   1.00
C100   C     0.99578   0.91933   0.80021   0.00000  Uiso   1.00
C101   C     0.01667   0.93708   0.00788   0.00000  Uiso   1.00
C102   C     0.90439   0.83091   0.46143   0.00000  Uiso   1.00
C103   C     0.92532   0.78455   0.39516   0.00000  Uiso   1.00
C104   C     0.89020   0.73631   0.39791   0.00000  Uiso   1.00
C105   C     0.84997   0.64814   0.37273   0.00000  Uiso   1.00
C106   C     0.83603   0.88462   0.59389   0.00000  Uiso   1.00
C107   C     0.83636   0.92956   0.49138   0.00000  Uiso   1.00
C108   C     0.78947   0.96583   0.46334   0.00000  Uiso   1.00
C109   C     0.79859   0.00396   0.36614   0.00000  Uiso   1.00
C110   C     0.88967   0.89737   0.67809   0.00000  Uiso   1.00
C111   C     0.88761   0.90655   0.80703   0.00000  Uiso   1.00
C112   C     0.94161   0.91757   0.86701   0.00000  Uiso   1.00
C113   C     0.85031   0.82915   0.52811   0.00000  Uiso   1.00
C114   C     0.81515   0.78097   0.53097   0.00000  Uiso   1.00
C115   C     0.83602   0.73454   0.46471   0.00000  Uiso   1.00
H116   H     0.97771   0.88923   0.41923   0.00000  Uiso   1.00
H117   H     0.94149   0.97076   0.27595   0.00000  Uiso   1.00
H118   H     0.03961   0.91148   0.61958   0.00000  Uiso   1.00
H119   H     0.96717   0.78592   0.34357   0.00000  Uiso   1.00
H120   H     0.87750   0.06039   0.14654   0.00000  Uiso   1.00
H121   H     0.08439   0.93539   0.87111   0.00000  Uiso   1.00
H122   H     0.93163   0.67062   0.28909   0.00000  Uiso   1.00
H123   H     0.79393   0.88325   0.64581   0.00000  Uiso   1.00
H124   H     0.74762   0.96446   0.51496   0.00000  Uiso   1.00
H125   H     0.84575   0.90518   0.85860   0.00000  Uiso   1.00
H126   H     0.77330   0.77962   0.58258   0.00000  Uiso   1.00
H127   H     0.72015   0.05528   0.34053   0.00000  Uiso   1.00
H128   H     0.92705   0.93027   0.06511   0.00000  Uiso   1.00
H129   H     0.77429   0.66550   0.48308   0.00000  Uiso   1.00
O130   O     0.77168   0.11138   0.15340   0.00000  Uiso   1.00
O131   O     0.04313   0.94736   0.10401   0.00000  Uiso   1.00
O132   O     0.84271   0.59999   0.34040   0.00000  Uiso   1.00
N133   N     0.84681   0.04804   0.21013   0.00000  Uiso   1.00
N134   N     0.04025   0.93117   0.88757   0.00000  Uiso   1.00
N135   N     0.89744   0.68363   0.34345   0.00000  Uiso   1.00
N136   N     0.76215   0.04529   0.31452   0.00000  Uiso   1.00
N137   N     0.95558   0.92842   0.99195   0.00000  Uiso   1.00
N138   N     0.81277   0.68088   0.44783   0.00000  Uiso   1.00
C139   C     0.93560   0.38786   0.97113   0.00000  Uiso   1.00
C140   C     0.89044   0.43132   0.92470   0.00000  Uiso   1.00
C141   C     0.89963   0.46941   0.82752   0.00000  Uiso   1.00
C142   C     0.85277   0.50572   0.79935   0.00000  Uiso   1.00
C143   C     0.79088   0.57350   0.71715   0.00000  Uiso   1.00
C144   C     0.94375   0.39912   0.11141   0.00000  Uiso   1.00
C145   C     0.99777   0.41013   0.17121   0.00000  Uiso   1.00
C146   C     0.99578   0.41933   0.30021   0.00000  Uiso   1.00
C147   C     0.01667   0.43708   0.50788   0.00000  Uiso   1.00
C148   C     0.90439   0.33091   0.96143   0.00000  Uiso   1.00
C149   C     0.92532   0.28455   0.89516   0.00000  Uiso   1.00
C150   C     0.89020   0.23631   0.89791   0.00000  Uiso   1.00
C151   C     0.84997   0.14814   0.87273   0.00000  Uiso   1.00
C152   C     0.83603   0.38462   0.09389   0.00000  Uiso   1.00
C153   C     0.83636   0.42956   0.99138   0.00000  Uiso   1.00
C154   C     0.78947   0.46583   0.96334   0.00000  Uiso   1.00
C155   C     0.79859   0.50396   0.86614   0.00000  Uiso   1.00
C156   C     0.88967   0.39737   0.17809   0.00000  Uiso   1.00
C157   C     0.88761   0.40655   0.30703   0.00000  Uiso   1.00
C158   C     0.94161   0.41757   0.36701   0.00000  Uiso   1.00
C159   C     0.85031   0.32915   0.02811   0.00000  Uiso   1.00
C160   C     0.81515   0.28097   0.03097   0.00000  Uiso   1.00
C161   C     0.83602   0.23454   0.96471   0.00000  Uiso   1.00
H162   H     0.97771   0.38923   0.91923   0.00000  Uiso   1.00
H163   H     0.94149   0.47076   0.77595   0.00000  Uiso   1.00
H164   H     0.03961   0.41148   0.11958   0.00000  Uiso   1.00
H165   H     0.96717   0.28592   0.84357   0.00000  Uiso   1.00
H166   H     0.87750   0.56039   0.64654   0.00000  Uiso   1.00
H167   H     0.08439   0.43539   0.37111   0.00000  Uiso   1.00
H168   H     0.93163   0.17062   0.78909   0.00000  Uiso   1.00
H169   H     0.79393   0.38325   0.14581   0.00000  Uiso   1.00
H170   H     0.74762   0.46446   0.01496   0.00000  Uiso   1.00
H171   H     0.84575   0.40518   0.35860   0.00000  Uiso   1.00
H172   H     0.77330   0.27962   0.08258   0.00000  Uiso   1.00
H173   H     0.72015   0.55528   0.84053   0.00000  Uiso   1.00
H174   H     0.92705   0.43027   0.56511   0.00000  Uiso   1.00
H175   H     0.77429   0.16550   0.98308   0.00000  Uiso   1.00
O176   O     0.77168   0.61138   0.65340   0.00000  Uiso   1.00
O177   O     0.04313   0.44736   0.60401   0.00000  Uiso   1.00
O178   O     0.84271   0.09999   0.84040   0.00000  Uiso   1.00
N179   N     0.84681   0.54804   0.71013   0.00000  Uiso   1.00
N180   N     0.04025   0.43117   0.38757   0.00000  Uiso   1.00
N181   N     0.89744   0.18363   0.84345   0.00000  Uiso   1.00
N182   N     0.76215   0.54529   0.81452   0.00000  Uiso   1.00
N183   N     0.95558   0.42842   0.49195   0.00000  Uiso   1.00
N184   N     0.81277   0.18088   0.94783   0.00000  Uiso   1.00
C185   C     0.56440   0.38786   0.47113   0.00000  Uiso   1.00
C186   C     0.60956   0.43132   0.42470   0.00000  Uiso   1.00
C187   C     0.60037   0.46941   0.32752   0.00000  Uiso   1.00
C188   C     0.64723   0.50572   0.29935   0.00000  Uiso   1.00
C189   C     0.70912   0.57350   0.21715   0.00000  Uiso   1.00
C190   C     0.55625   0.39912   0.61141   0.00000  Uiso   1.00
C191   C     0.50223   0.41013   0.67121   0.00000  Uiso   1.00
C192   C     0.50422   0.41933   0.80021   0.00000  Uiso   1.00
C193   C     0.48333   0.43708   0.00788   0.00000  Uiso   1.00
C194   C     0.59561   0.33091   0.46143   0.00000  Uiso   1.00
C195   C     0.57468   0.28455   0.39516   0.00000  Uiso   1.00
C196   C     0.60980   0.23631   0.39791   0.00000  Uiso   1.00
C197   C     0.65003   0.14814   0.37273   0.00000  Uiso   1.00
C198   C     0.66397   0.38462   0.59389   0.00000  Uiso   1.00
C199   C     0.66364   0.42956   0.49138   0.00000  Uiso   1.00
C200   C     0.71053   0.46583   0.46334   0.00000  Uiso   1.00
C201   C     0.70141   0.50396   0.36614   0.00000  Uiso   1.00
C202   C     0.61033   0.39737   0.67809   0.00000  Uiso   1.00
C203   C     0.61239   0.40655   0.80703   0.00000  Uiso   1.00
C204   C     0.55839   0.41757   0.86701   0.00000  Uiso   1.00
C205   C     0.64969   0.32915   0.52811   0.00000  Uiso   1.00
C206   C     0.68485   0.28097   0.53097   0.00000  Uiso   1.00
C207   C     0.66398   0.23454   0.46471   0.00000  Uiso   1.00
H208   H     0.52229   0.38923   0.41923   0.00000  Uiso   1.00
H209   H     0.55851   0.47076   0.27595   0.00000  Uiso   1.00
H210   H     0.46039   0.41148   0.61958   0.00000  Uiso   1.00
H211   H     0.53283   0.28592   0.34357   0.00000  Uiso   1.00
H212   H     0.62250   0.56039   0.14654   0.00000  Uiso   1.00
H213   H     0.41561   0.43539   0.87111   0.00000  Uiso   1.00
H214   H     0.56837   0.17062   0.28909   0.00000  Uiso   1.00
H215   H     0.70607   0.38325   0.64581   0.00000  Uiso   1.00
H216   H     0.75238   0.46446   0.51496   0.00000  Uiso   1.00
H217   H     0.65425   0.40518   0.85860   0.00000  Uiso   1.00
H218   H     0.72670   0.27962   0.58258   0.00000  Uiso   1.00
H219   H     0.77985   0.55528   0.34053   0.00000  Uiso   1.00
H220   H     0.57295   0.43027   0.06511   0.00000  Uiso   1.00
H221   H     0.72571   0.16550   0.48308   0.00000  Uiso   1.00
O222   O     0.72832   0.61138   0.15340   0.00000  Uiso   1.00
O223   O     0.45687   0.44736   0.10401   0.00000  Uiso   1.00
O224   O     0.65729   0.09999   0.34040   0.00000  Uiso   1.00
N225   N     0.65319   0.54804   0.21013   0.00000  Uiso   1.00
N226   N     0.45975   0.43117   0.88757   0.00000  Uiso   1.00
N227   N     0.60256   0.18363   0.34345   0.00000  Uiso   1.00
N228   N     0.73785   0.54529   0.31452   0.00000  Uiso   1.00
N229   N     0.54442   0.42842   0.99195   0.00000  Uiso   1.00
N230   N     0.68723   0.18088   0.44783   0.00000  Uiso   1.00
C231   C     0.56440   0.88786   0.97113   0.00000  Uiso   1.00
C232   C     0.60956   0.93132   0.92470   0.00000  Uiso   1.00
C233   C     0.60037   0.96941   0.82752   0.00000  Uiso   1.00
C234   C     0.64723   0.00572   0.79935   0.00000  Uiso   1.00
C235   C     0.70912   0.07350   0.71715   0.00000  Uiso   1.00
C236   C     0.55625   0.89912   0.11141   0.00000  Uiso   1.00
C237   C     0.50223   0.91013   0.17121   0.00000  Uiso   1.00
C238   C     0.50422   0.91933   0.30021   0.00000  Uiso   1.00
C239   C     0.48333   0.93708   0.50788   0.00000  Uiso   1.00
C240   C     0.59561   0.83091   0.96143   0.00000  Uiso   1.00
C241   C     0.57468   0.78455   0.89516   0.00000  Uiso   1.00
C242   C     0.60980   0.73631   0.89791   0.00000  Uiso   1.00
C243   C     0.65003   0.64814   0.87273   0.00000  Uiso   1.00
C244   C     0.66397   0.88462   0.09389   0.00000  Uiso   1.00
C245   C     0.66364   0.92956   0.99138   0.00000  Uiso   1.00
C246   C     0.71053   0.96583   0.96334   0.00000  Uiso   1.00
C247   C     0.70141   0.00396   0.86614   0.00000  Uiso   1.00
C248   C     0.61033   0.89737   0.17809   0.00000  Uiso   1.00
C249   C     0.61239   0.90655   0.30703   0.00000  Uiso   1.00
C250   C     0.55839   0.91757   0.36701   0.00000  Uiso   1.00
C251   C     0.64969   0.82915   0.02811   0.00000  Uiso   1.00
C252   C     0.68485   0.78097   0.03097   0.00000  Uiso   1.00
C253   C     0.66398   0.73454   0.96471   0.00000  Uiso   1.00
H254   H     0.52229   0.88923   0.91923   0.00000  Uiso   1.00
H255   H     0.55851   0.97076   0.77595   0.00000  Uiso   1.00
H256   H     0.46039   0.91148   0.11958   0.00000  Uiso   1.00
H257   H     0.53283   0.78592   0.84357   0.00000  Uiso   1.00
H258   H     0.62250   0.06039   0.64654   0.00000  Uiso   1.00
H259   H     0.41561   0.93539   0.37111   0.00000  Uiso   1.00
H260   H     0.56837   0.67062   0.78909   0.00000  Uiso   1.00
H261   H     0.70607   0.88325   0.14581   0.00000  Uiso   1.00
H262   H     0.75238   0.96446   0.01496   0.00000  Uiso   1.00
H263   H     0.65425   0.90518   0.35860   0.00000  Uiso   1.00
H264   H     0.72670   0.77962   0.08258   0.00000  Uiso   1.00
H265   H     0.77985   0.05528   0.84053   0.00000  Uiso   1.00
H266   H     0.57295   0.93027   0.56511   0.00000  Uiso   1.00
H267   H     0.72571   0.66550   0.98308   0.00000  Uiso   1.00
O268   O     0.72832   0.11138   0.65340   0.00000  Uiso   1.00
O269   O     0.45687   0.94736   0.60401   0.00000  Uiso   1.00
O270   O     0.65729   0.59999   0.84040   0.00000  Uiso   1.00
N271   N     0.65319   0.04804   0.71013   0.00000  Uiso   1.00
N272   N     0.45975   0.93117   0.38757   0.00000  Uiso   1.00
N273   N     0.60256   0.68363   0.84345   0.00000  Uiso   1.00
N274   N     0.73785   0.04529   0.81452   0.00000  Uiso   1.00
N275   N     0.54442   0.92842   0.49195   0.00000  Uiso   1.00
N276   N     0.68723   0.68088   0.94783   0.00000  Uiso   1.00
C277   C     0.43560   0.61214   0.47113   0.00000  Uiso   1.00
C278   C     0.39044   0.56868   0.42470   0.00000  Uiso   1.00
C279   C     0.39963   0.53059   0.32752   0.00000  Uiso   1.00
C280   C     0.35277   0.49428   0.29935   0.00000  Uiso   1.00
C281   C     0.29088   0.42650   0.21715   0.00000  Uiso   1.00
C282   C     0.44375   0.60088   0.61141   0.00000  Uiso   1.00
C283   C     0.49777   0.58987   0.67121   0.00000  Uiso   1.00
C284   C     0.49578   0.58067   0.80021   0.00000  Uiso   1.00
C285   C     0.51667   0.56292   0.00788   0.00000  Uiso   1.00
C286   C     0.40439   0.66909   0.46143   0.00000  Uiso   1.00
C287   C     0.42532   0.71545   0.39516   0.00000  Uiso   1.00
C288   C     0.39020   0.76369   0.39791   0.00000  Uiso   1.00
C289   C     0.34997   0.85186   0.37273   0.00000  Uiso   1.00
C290   C     0.33603   0.61538   0.59389   0.00000  Uiso   1.00
C291   C     0.33636   0.57044   0.49138   0.00000  Uiso   1.00
C292   C     0.28947   0.53417   0.46334   0.00000  Uiso   1.00
C293   C     0.29859   0.49604   0.36614   0.00000  Uiso   1.00
C294   C     0.38967   0.60263   0.67809   0.00000  Uiso   1.00
C295   C     0.38761   0.59345   0.80703   0.00000  Uiso   1.00
C296   C     0.44161   0.58243   0.86701   0.00000  Uiso   1.00
C297   C     0.35031   0.67085   0.52811   0.00000  Uiso   1.00
C298   C     0.31515   0.71903   0.53097   0.00000  Uiso   1.00
C299   C     0.33602   0.76546   0.46471   0.00000  Uiso   1.00
H300   H     0.47771   0.61077   0.41923   0.00000  Uiso   1.00
H301   H     0.44149   0.52924   0.27595   0.00000  Uiso   1.00
H302   H     0.53961   0.58852   0.61958   0.00000  Uiso   1.00
H303   H     0.46717   0.71408   0.34357   0.00000  Uiso   1.00
H304   H     0.37750   0.43961   0.14654   0.00000  Uiso   1.00
H305   H     0.58439   0.56461   0.87111   0.00000  Uiso   1.00
H306   H     0.43163   0.82938   0.28909   0.00000  Uiso   1.00
H307   H     0.29393   0.61675   0.64581   0.00000  Uiso   1.00
H308   H     0.24762   0.53554   0.51496   0.00000  Uiso   1.00
H309   H     0.34575   0.59482   0.85860   0.00000  Uiso   1.00
H310   H     0.27330   0.72038   0.58258   0.00000  Uiso   1.00
H311   H     0.22015   0.44472   0.34053   0.00000  Uiso   1.00
H312   H     0.42705   0.56973   0.06511   0.00000  Uiso   1.00
H313   H     0.27429   0.83450   0.48308   0.00000  Uiso   1.00
O314   O     0.27168   0.38862   0.15340   0.00000  Uiso   1.00
O315   O     0.54313   0.55264   0.10401   0.00000  Uiso   1.00
O316   O     0.34271   0.90001   0.34040   0.00000  Uiso   1.00
N317   N     0.34681   0.45196   0.21013   0.00000  Uiso   1.00
N318   N     0.54025   0.56883   0.88757   0.00000  Uiso   1.00
N319   N     0.39744   0.81637   0.34345   0.00000  Uiso   1.00
N320   N     0.26215   0.45471   0.31452   0.00000  Uiso   1.00
N321   N     0.45558   0.57158   0.99195   0.00000  Uiso   1.00
N322   N     0.31277   0.81912   0.44783   0.00000  Uiso   1.00
C323   C     0.43560   0.11214   0.97113   0.00000  Uiso   1.00
C324   C     0.39044   0.06868   0.92470   0.00000  Uiso   1.00
C325   C     0.39963   0.03059   0.82752   0.00000  Uiso   1.00
C326   C     0.35277   0.99428   0.79935   0.00000  Uiso   1.00
C327   C     0.29088   0.92650   0.71715   0.00000  Uiso   1.00
C328   C     0.44375   0.10088   0.11141   0.00000  Uiso   1.00
C329   C     0.49777   0.08987   0.17121   0.00000  Uiso   1.00
C330   C     0.49578   0.08067   0.30021   0.00000  Uiso   1.00
C331   C     0.51667   0.06292   0.50788   0.00000  Uiso   1.00
C332   C     0.40439   0.16909   0.96143   0.00000  Uiso   1.00
C333   C     0.42532   0.21545   0.89516   0.00000  Uiso   1.00
C334   C     0.39020   0.26369   0.89791   0.00000  Uiso   1.00
C335   C     0.34997   0.35186   0.87273   0.00000  Uiso   1.00
C336   C     0.33603   0.11538   0.09389   0.00000  Uiso   1.00
C337   C     0.33636   0.07044   0.99138   0.00000  Uiso   1.00
C338   C     0.28947   0.03417   0.96334   0.00000  Uiso   1.00
C339   C     0.29859   0.99604   0.86614   0.00000  Uiso   1.00
C340   C     0.38967   0.10263   0.17809   0.00000  Uiso   1.00
C341   C     0.38761   0.09345   0.30703   0.00000  Uiso   1.00
C342   C     0.44161   0.08243   0.36701   0.00000  Uiso   1.00
C343   C     0.35031   0.17085   0.02811   0.00000  Uiso   1.00
C344   C     0.31515   0.21903   0.03097   0.00000  Uiso   1.00
C345   C     0.33602   0.26546   0.96471   0.00000  Uiso   1.00
H346   H     0.47771   0.11077   0.91923   0.00000  Uiso   1.00
H347   H     0.44149   0.02924   0.77595   0.00000  Uiso   1.00
H348   H     0.53961   0.08852   0.11958   0.00000  Uiso   1.00
H349   H     0.46717   0.21408   0.84357   0.00000  Uiso   1.00
H350   H     0.37750   0.93961   0.64654   0.00000  Uiso   1.00
H351   H     0.58439   0.06461   0.37111   0.00000  Uiso   1.00
H352   H     0.43163   0.32938   0.78909   0.00000  Uiso   1.00
H353   H     0.29393   0.11675   0.14581   0.00000  Uiso   1.00
H354   H     0.24762   0.03554   0.01496   0.00000  Uiso   1.00
H355   H     0.34575   0.09482   0.35860   0.00000  Uiso   1.00
H356   H     0.27330   0.22038   0.08258   0.00000  Uiso   1.00
H357   H     0.22015   0.94472   0.84053   0.00000  Uiso   1.00
H358   H     0.42705   0.06973   0.56511   0.00000  Uiso   1.00
H359   H     0.27429   0.33450   0.98308   0.00000  Uiso   1.00
O360   O     0.27168   0.88862   0.65340   0.00000  Uiso   1.00
O361   O     0.54313   0.05264   0.60401   0.00000  Uiso   1.00
O362   O     0.34271   0.40001   0.84040   0.00000  Uiso   1.00
N363   N     0.34681   0.95196   0.71013   0.00000  Uiso   1.00
N364   N     0.54025   0.06883   0.38757   0.00000  Uiso   1.00
N365   N     0.39744   0.31637   0.84345   0.00000  Uiso   1.00
N366   N     0.26215   0.95471   0.81452   0.00000  Uiso   1.00
N367   N     0.45558   0.07158   0.49195   0.00000  Uiso   1.00
N368   N     0.31277   0.31912   0.94783   0.00000  Uiso   1.00
