data_job_06526
_audit_creation_date              2018-12-19
_audit_creation_method            'Materials Studio'
_symmetry_space_group_name_H-M    'P1'
_symmetry_Int_Tables_number       1
_symmetry_cell_setting            triclinic
loop_
_symmetry_equiv_pos_as_xyz
  x,y,z
_cell_length_a                    15.6358
_cell_length_b                    22.4943
_cell_length_c                    23.4807
_cell_angle_alpha                 108.0394
_cell_angle_beta                  84.4445
_cell_angle_gamma                 71.8940
loop_
_atom_site_label
_atom_site_type_symbol
_atom_site_fract_x
_atom_site_fract_y
_atom_site_fract_z
_atom_site_U_iso_or_equiv
_atom_site_adp_type
_atom_site_occupancy
C1     C     0.47713   0.35635   0.41745   0.00000  Uiso   1.00
C2     C     0.56036   0.30069   0.42043   0.00000  Uiso   1.00
C3     C     0.60112   0.23666   0.37653   0.00000  Uiso   1.00
C4     C     0.67665   0.19303   0.38775   0.00000  Uiso   1.00
C5     C     0.80076   0.10358   0.38431   0.00000  Uiso   1.00
C6     C     0.40561   0.37759   0.47587   0.00000  Uiso   1.00
C7     C     0.31625   0.37823   0.47856   0.00000  Uiso   1.00
C8     C     0.26151   0.39934   0.53645   0.00000  Uiso   1.00
C9     C     0.14534   0.42933   0.61906   0.00000  Uiso   1.00
C10    C     0.50768   0.41569   0.42321   0.00000  Uiso   1.00
C11    C     0.50413   0.44838   0.38164   0.00000  Uiso   1.00
C12    C     0.53531   0.50158   0.39519   0.00000  Uiso   1.00
C13    C     0.57762   0.59073   0.39604   0.00000  Uiso   1.00
C14    C     0.53880   0.39272   0.51545   0.00000  Uiso   1.00
C15    C     0.59385   0.32044   0.47366   0.00000  Uiso   1.00
C16    C     0.66935   0.27689   0.48495   0.00000  Uiso   1.00
C17    C     0.71021   0.21281   0.44107   0.00000  Uiso   1.00
C18    C     0.43910   0.39734   0.52909   0.00000  Uiso   1.00
C19    C     0.38448   0.41846   0.58699   0.00000  Uiso   1.00
C20    C     0.29506   0.41913   0.58977   0.00000  Uiso   1.00
C21    C     0.54118   0.43544   0.47643   0.00000  Uiso   1.00
C22    C     0.57236   0.48861   0.49006   0.00000  Uiso   1.00
C23    C     0.56886   0.52137   0.44852   0.00000  Uiso   1.00
H24    H     0.45105   0.34098   0.37601   0.00000  Uiso   1.00
H25    H     0.57517   0.22140   0.33535   0.00000  Uiso   1.00
H26    H     0.29035   0.36295   0.43737   0.00000  Uiso   1.00
H27    H     0.47820   0.43308   0.34045   0.00000  Uiso   1.00
H28    H     0.72753   0.09752   0.31375   0.00000  Uiso   1.00
H29    H     0.12696   0.39601   0.52886   0.00000  Uiso   1.00
H30    H     0.52308   0.54391   0.32450   0.00000  Uiso   1.00
H31    H     0.56488   0.40809   0.55689   0.00000  Uiso   1.00
H32    H     0.69525   0.29219   0.52615   0.00000  Uiso   1.00
H33    H     0.41042   0.43375   0.62817   0.00000  Uiso   1.00
H34    H     0.59828   0.50388   0.53125   0.00000  Uiso   1.00
H35    H     0.82499   0.15498   0.46861   0.00000  Uiso   1.00
H36    H     0.22441   0.45348   0.68372   0.00000  Uiso   1.00
H37    H     0.62054   0.60137   0.47936   0.00000  Uiso   1.00
O38    O     0.85996   0.04879   0.36771   0.00000  Uiso   1.00
O39    O     0.07201   0.44041   0.64992   0.00000  Uiso   1.00
O40    O     0.59172   0.63445   0.38180   0.00000  Uiso   1.00
N41    N     0.73259   0.12695   0.35441   0.00000  Uiso   1.00
N42    N     0.17109   0.40602   0.55552   0.00000  Uiso   1.00
N43    N     0.54141   0.54430   0.36447   0.00000  Uiso   1.00
N44    N     0.78503   0.15787   0.43774   0.00000  Uiso   1.00
N45    N     0.22353   0.43694   0.63885   0.00000  Uiso   1.00
N46    N     0.59385   0.57522   0.44780   0.00000  Uiso   1.00
C47    C     0.02832   0.20586   0.80298   0.00000  Uiso   1.00
C48    C     0.06764   0.23606   0.85701   0.00000  Uiso   1.00
C49    C     0.03782   0.24439   0.91755   0.00000  Uiso   1.00
C50    C     0.08270   0.27302   0.96020   0.00000  Uiso   1.00
C51    C     0.13275   0.31696   0.04672   0.00000  Uiso   1.00
C52    C     0.99896   0.25857   0.77353   0.00000  Uiso   1.00
C53    C     0.91139   0.28581   0.76388   0.00000  Uiso   1.00
C54    C     0.89847   0.33338   0.73626   0.00000  Uiso   1.00
C55    C     0.84191   0.41223   0.69315   0.00000  Uiso   1.00
C56    C     0.10933   0.14766   0.75653   0.00000  Uiso   1.00
C57    C     0.11455   0.08165   0.73258   0.00000  Uiso   1.00
C58    C     0.19453   0.03585   0.69063   0.00000  Uiso   1.00
C59    C     0.30933   0.94250   0.62113   0.00000  Uiso   1.00
C60    C     0.16107   0.24189   0.77106   0.00000  Uiso   1.00
C61    C     0.13975   0.25563   0.83966   0.00000  Uiso   1.00
C62    C     0.18469   0.28426   0.88223   0.00000  Uiso   1.00
C63    C     0.15493   0.29263   0.94283   0.00000  Uiso   1.00
C64    C     0.07106   0.27814   0.75619   0.00000  Uiso   1.00
C65    C     0.05826   0.32568   0.72857   0.00000  Uiso   1.00
C66    C     0.97070   0.35299   0.71889   0.00000  Uiso   1.00
C67    C     0.18143   0.16723   0.73919   0.00000  Uiso   1.00
C68    C     0.26142   0.12152   0.69727   0.00000  Uiso   1.00
C69    C     0.26676   0.05546   0.67326   0.00000  Uiso   1.00
H70    H     0.97219   0.19063   0.81648   0.00000  Uiso   1.00
H71    H     0.98201   0.22924   0.93095   0.00000  Uiso   1.00
H72    H     0.85561   0.27065   0.77730   0.00000  Uiso   1.00
H73    H     0.05874   0.06653   0.74601   0.00000  Uiso   1.00
H74    H     0.02468   0.28071   0.05022   0.00000  Uiso   1.00
H75    H     0.75817   0.36800   0.72623   0.00000  Uiso   1.00
H76    H     0.18649   0.93757   0.66023   0.00000  Uiso   1.00
H77    H     0.21721   0.25713   0.75756   0.00000  Uiso   1.00
H78    H     0.24048   0.29940   0.86880   0.00000  Uiso   1.00
H79    H     0.11408   0.34081   0.71515   0.00000  Uiso   1.00
H80    H     0.31720   0.13669   0.68386   0.00000  Uiso   1.00
H81    H     0.23446   0.33765   0.99978   0.00000  Uiso   1.00
H82    H     0.96794   0.42495   0.67578   0.00000  Uiso   1.00
H83    H     0.39627   0.99451   0.60979   0.00000  Uiso   1.00
O84    O     0.14043   0.33580   0.09924   0.00000  Uiso   1.00
O85    O     0.79079   0.45032   0.67417   0.00000  Uiso   1.00
O86    O     0.35274   0.88560   0.58759   0.00000  Uiso   1.00
N87    N     0.07087   0.28830   0.02308   0.00000  Uiso   1.00
N88    N     0.82169   0.36992   0.72017   0.00000  Uiso   1.00
N89    N     0.22213   0.96750   0.65846   0.00000  Uiso   1.00
N90    N     0.18375   0.31894   0.99594   0.00000  Uiso   1.00
N91    N     0.93457   0.40056   0.69303   0.00000  Uiso   1.00
N92    N     0.33501   0.99814   0.63132   0.00000  Uiso   1.00
C93    C     0.96418   0.69329   0.87032   0.00000  Uiso   1.00
C94    C     0.06136   0.64080   0.84921   0.00000  Uiso   1.00
C95    C     0.14170   0.65253   0.83593   0.00000  Uiso   1.00
C96    C     0.22378   0.59786   0.81731   0.00000  Uiso   1.00
C97    C     0.37444   0.52610   0.78528   0.00000  Uiso   1.00
C98    C     0.90949   0.66760   0.82444   0.00000  Uiso   1.00
C99    C     0.86213   0.70187   0.79034   0.00000  Uiso   1.00
C100   C     0.81635   0.66977   0.75087   0.00000  Uiso   1.00
C101   C     0.73118   0.63963   0.68042   0.00000  Uiso   1.00
C102   C     0.92366   0.69065   0.93083   0.00000  Uiso   1.00
C103   C     0.88818   0.74430   0.98618   0.00000  Uiso   1.00
C104   C     0.85431   0.73160   0.03629   0.00000  Uiso   1.00
C105   C     0.79113   0.73725   0.13103   0.00000  Uiso   1.00
C106   C     0.96707   0.57536   0.86088   0.00000  Uiso   1.00
C107   C     0.06293   0.57674   0.84408   0.00000  Uiso   1.00
C108   C     0.14491   0.52205   0.82549   0.00000  Uiso   1.00
C109   C     0.22536   0.53369   0.81218   0.00000  Uiso   1.00
C110   C     0.91107   0.60355   0.81931   0.00000  Uiso   1.00
C111   C     0.86534   0.57139   0.77989   0.00000  Uiso   1.00
C112   C     0.81793   0.60560   0.74573   0.00000  Uiso   1.00
C113   C     0.92523   0.62659   0.92571   0.00000  Uiso   1.00
C114   C     0.89140   0.61382   0.97574   0.00000  Uiso   1.00
C115   C     0.85588   0.66743   0.03116   0.00000  Uiso   1.00
H116   H     0.96295   0.74316   0.87431   0.00000  Uiso   1.00
H117   H     0.14046   0.70210   0.83989   0.00000  Uiso   1.00
H118   H     0.86092   0.75144   0.79432   0.00000  Uiso   1.00
H119   H     0.88698   0.79386   0.99013   0.00000  Uiso   1.00
H120   H     0.33795   0.62833   0.79946   0.00000  Uiso   1.00
H121   H     0.74851   0.73237   0.70337   0.00000  Uiso   1.00
H122   H     0.80345   0.82182   0.11629   0.00000  Uiso   1.00
H123   H     0.96830   0.52549   0.85689   0.00000  Uiso   1.00
H124   H     0.14611   0.47249   0.82152   0.00000  Uiso   1.00
H125   H     0.86657   0.52182   0.77594   0.00000  Uiso   1.00
H126   H     0.89263   0.56424   0.97176   0.00000  Uiso   1.00
H127   H     0.34253   0.44197   0.78454   0.00000  Uiso   1.00
H128   H     0.75309   0.54600   0.68845   0.00000  Uiso   1.00
H129   H     0.80803   0.63545   0.10137   0.00000  Uiso   1.00
O130   O     0.45711   0.50421   0.76903   0.00000  Uiso   1.00
O131   O     0.68377   0.64070   0.64297   0.00000  Uiso   1.00
O132   O     0.75586   0.75806   0.18471   0.00000  Uiso   1.00
N133   N     0.31463   0.59175   0.80081   0.00000  Uiso   1.00
N134   N     0.76355   0.68901   0.71097   0.00000  Uiso   1.00
N135   N     0.81489   0.77264   0.09701   0.00000  Uiso   1.00
N136   N     0.31710   0.49147   0.79279   0.00000  Uiso   1.00
N137   N     0.76601   0.58873   0.70294   0.00000  Uiso   1.00
N138   N     0.81736   0.67236   0.08898   0.00000  Uiso   1.00
C139   C     0.42531   0.75621   0.93250   0.00000  Uiso   1.00
C140   C     0.47688   0.78893   0.97667   0.00000  Uiso   1.00
C141   C     0.55012   0.80711   0.96052   0.00000  Uiso   1.00
C142   C     0.58793   0.83642   0.00769   0.00000  Uiso   1.00
C143   C     0.67319   0.88562   0.06698   0.00000  Uiso   1.00
C144   C     0.32419   0.80177   0.95512   0.00000  Uiso   1.00
C145   C     0.26905   0.83075   0.92084   0.00000  Uiso   1.00
C146   C     0.17831   0.87085   0.94987   0.00000  Uiso   1.00
C147   C     0.02649   0.93995   0.97569   0.00000  Uiso   1.00
C148   C     0.43161   0.69144   0.94282   0.00000  Uiso   1.00
C149   C     0.46677   0.62765   0.89820   0.00000  Uiso   1.00
C150   C     0.46645   0.57487   0.91688   0.00000  Uiso   1.00
C151   C     0.48143   0.47266   0.92359   0.00000  Uiso   1.00
C152   C     0.36221   0.77590   0.04501   0.00000  Uiso   1.00
C153   C     0.44261   0.79962   0.03778   0.00000  Uiso   1.00
C154   C     0.48031   0.82890   0.08500   0.00000  Uiso   1.00
C155   C     0.55360   0.84713   0.06891   0.00000  Uiso   1.00
C156   C     0.28991   0.81247   0.01623   0.00000  Uiso   1.00
C157   C     0.19924   0.85253   0.04532   0.00000  Uiso   1.00
C158   C     0.14397   0.88157   0.01109   0.00000  Uiso   1.00
C159   C     0.39734   0.70213   0.00393   0.00000  Uiso   1.00
C160   C     0.39696   0.64944   0.02268   0.00000  Uiso   1.00
C161   C     0.43212   0.58558   0.97810   0.00000  Uiso   1.00
H162   H     0.45199   0.74789   0.88493   0.00000  Uiso   1.00
H163   H     0.57662   0.79883   0.91322   0.00000  Uiso   1.00
H164   H     0.29559   0.82245   0.87355   0.00000  Uiso   1.00
H165   H     0.49328   0.61939   0.85091   0.00000  Uiso   1.00
H166   H     0.69966   0.86006   0.97154   0.00000  Uiso   1.00
H167   H     0.10708   0.90985   0.88788   0.00000  Uiso   1.00
H168   H     0.52396   0.48165   0.84015   0.00000  Uiso   1.00
H169   H     0.33552   0.78423   0.09259   0.00000  Uiso   1.00
H170   H     0.45377   0.83717   0.13228   0.00000  Uiso   1.00
H171   H     0.17274   0.86080   0.09261   0.00000  Uiso   1.00
H172   H     0.37043   0.65773   0.06997   0.00000  Uiso   1.00
H173   H     0.59995   0.89118   0.14934   0.00000  Uiso   1.00
H174   H     0.00737   0.94097   0.06568   0.00000  Uiso   1.00
H175   H     0.42425   0.51277   0.01795   0.00000  Uiso   1.00
O176   O     0.72968   0.90981   0.08280   0.00000  Uiso   1.00
O177   O     0.95223   0.97512   0.97304   0.00000  Uiso   1.00
O178   O     0.49917   0.41333   0.91042   0.00000  Uiso   1.00
N179   N     0.65998   0.86011   0.00794   0.00000  Uiso   1.00
N180   N     0.10595   0.90666   0.92973   0.00000  Uiso   1.00
N181   N     0.49568   0.50633   0.88510   0.00000  Uiso   1.00
N182   N     0.60633   0.87685   0.10361   0.00000  Uiso   1.00
N183   N     0.05230   0.92341   0.02540   0.00000  Uiso   1.00
N184   N     0.44203   0.52308   0.98077   0.00000  Uiso   1.00
C185   C     0.96445   0.34413   0.39953   0.00000  Uiso   1.00
C186   C     0.00479   0.29312   0.42911   0.00000  Uiso   1.00
C187   C     0.99406   0.30600   0.49163   0.00000  Uiso   1.00
C188   C     0.03638   0.25261   0.50949   0.00000  Uiso   1.00
C189   C     0.09120   0.18313   0.56199   0.00000  Uiso   1.00
C190   C     0.90735   0.31524   0.35754   0.00000  Uiso   1.00
C191   C     0.81470   0.34671   0.35988   0.00000  Uiso   1.00
C192   C     0.77500   0.31193   0.31748   0.00000  Uiso   1.00
C193   C     0.67855   0.27681   0.25884   0.00000  Uiso   1.00
C194   C     0.04578   0.34334   0.35746   0.00000  Uiso   1.00
C195   C     0.06951   0.39845   0.35972   0.00000  Uiso   1.00
C196   C     0.14635   0.38734   0.31724   0.00000  Uiso   1.00
C197   C     0.26484   0.39586   0.25847   0.00000  Uiso   1.00
C198   C     0.05870   0.22641   0.32005   0.00000  Uiso   1.00
C199   C     0.05598   0.22918   0.38594   0.00000  Uiso   1.00
C200   C     0.09833   0.17576   0.40371   0.00000  Uiso   1.00
C201   C     0.08767   0.18855   0.46624   0.00000  Uiso   1.00
C202   C     0.95854   0.25130   0.31437   0.00000  Uiso   1.00
C203   C     0.91897   0.21647   0.27195   0.00000  Uiso   1.00
C204   C     0.82628   0.24788   0.27423   0.00000  Uiso   1.00
C205   C     0.09698   0.27940   0.31429   0.00000  Uiso   1.00
C206   C     0.17379   0.26820   0.27179   0.00000  Uiso   1.00
C207   C     0.19763   0.32328   0.27399   0.00000  Uiso   1.00
H208   H     0.92459   0.39391   0.43313   0.00000  Uiso   1.00
H209   H     0.95443   0.35549   0.52503   0.00000  Uiso   1.00
H210   H     0.77510   0.39619   0.39329   0.00000  Uiso   1.00
H211   H     0.02988   0.44792   0.39313   0.00000  Uiso   1.00
H212   H     0.01006   0.28469   0.60787   0.00000  Uiso   1.00
H213   H     0.63194   0.37053   0.33008   0.00000  Uiso   1.00
H214   H     0.16919   0.47962   0.32975   0.00000  Uiso   1.00
H215   H     0.09855   0.17662   0.28644   0.00000  Uiso   1.00
H216   H     0.13794   0.12628   0.37029   0.00000  Uiso   1.00
H217   H     0.95861   0.16699   0.23855   0.00000  Uiso   1.00
H218   H     0.21339   0.21872   0.23840   0.00000  Uiso   1.00
H219   H     0.15900   0.09866   0.48228   0.00000  Uiso   1.00
H220   H     0.78088   0.18450   0.20449   0.00000  Uiso   1.00
H221   H     0.31813   0.29358   0.20416   0.00000  Uiso   1.00
O222   O     0.10728   0.16247   0.60288   0.00000  Uiso   1.00
O223   O     0.61121   0.27510   0.23843   0.00000  Uiso   1.00
O224   O     0.31606   0.41821   0.23799   0.00000  Uiso   1.00
N225   N     0.03972   0.24782   0.56681   0.00000  Uiso   1.00
N226   N     0.68620   0.32807   0.30710   0.00000  Uiso   1.00
N227   N     0.18847   0.43006   0.30677   0.00000  Uiso   1.00
N228   N     0.11987   0.14772   0.49923   0.00000  Uiso   1.00
N229   N     0.76635   0.22797   0.23952   0.00000  Uiso   1.00
N230   N     0.26861   0.32996   0.23920   0.00000  Uiso   1.00
C231   C     0.95032   0.71000   0.37769   0.00000  Uiso   1.00
C232   C     0.05527   0.68481   0.36496   0.00000  Uiso   1.00
C233   C     0.11394   0.61977   0.33047   0.00000  Uiso   1.00
C234   C     0.20784   0.60678   0.32420   0.00000  Uiso   1.00
C235   C     0.36564   0.56002   0.30026   0.00000  Uiso   1.00
C236   C     0.92044   0.76854   0.35525   0.00000  Uiso   1.00
C237   C     0.86573   0.77391   0.31259   0.00000  Uiso   1.00
C238   C     0.84612   0.83142   0.29816   0.00000  Uiso   1.00
C239   C     0.79454   0.91469   0.25917   0.00000  Uiso   1.00
C240   C     0.91804   0.74010   0.44727   0.00000  Uiso   1.00
C241   C     0.86129   0.72157   0.48200   0.00000  Uiso   1.00
C242   C     0.83965   0.75515   0.54504   0.00000  Uiso   1.00
C243   C     0.78435   0.79426   0.64893   0.00000  Uiso   1.00
C244   C     0.01277   0.80259   0.42791   0.00000  Uiso   1.00
C245   C     0.08919   0.73510   0.39224   0.00000  Uiso   1.00
C246   C     0.18302   0.72221   0.38602   0.00000  Uiso   1.00
C247   C     0.24182   0.65717   0.35152   0.00000  Uiso   1.00
C248   C     0.95436   0.81884   0.38252   0.00000  Uiso   1.00
C249   C     0.93482   0.87636   0.36815   0.00000  Uiso   1.00
C250   C     0.88010   0.88181   0.32548   0.00000  Uiso   1.00
C251   C     0.95196   0.79040   0.47455   0.00000  Uiso   1.00
C252   C     0.93039   0.82402   0.53755   0.00000  Uiso   1.00
C253   C     0.87363   0.80554   0.57236   0.00000  Uiso   1.00
H254   H     0.92391   0.67085   0.35646   0.00000  Uiso   1.00
H255   H     0.08766   0.58086   0.30936   0.00000  Uiso   1.00
H256   H     0.83949   0.73499   0.29150   0.00000  Uiso   1.00
H257   H     0.83506   0.68265   0.46087   0.00000  Uiso   1.00
H258   H     0.28416   0.50328   0.26916   0.00000  Uiso   1.00
H259   H     0.76085   0.82827   0.23151   0.00000  Uiso   1.00
H260   H     0.75151   0.71792   0.58867   0.00000  Uiso   1.00
H261   H     0.03917   0.84175   0.44914   0.00000  Uiso   1.00
H262   H     0.20925   0.76114   0.40713   0.00000  Uiso   1.00
H263   H     0.96108   0.91527   0.38926   0.00000  Uiso   1.00
H264   H     0.95665   0.86293   0.55864   0.00000  Uiso   1.00
H265   H     0.38285   0.64961   0.34851   0.00000  Uiso   1.00
H266   H     0.85953   0.97460   0.31086   0.00000  Uiso   1.00
H267   H     0.85020   0.86424   0.66801   0.00000  Uiso   1.00
O268   O     0.44331   0.52034   0.27951   0.00000  Uiso   1.00
O269   O     0.75673   0.94672   0.23012   0.00000  Uiso   1.00
O270   O     0.74448   0.80193   0.69870   0.00000  Uiso   1.00
N271   N     0.28405   0.54878   0.29361   0.00000  Uiso   1.00
N272   N     0.79479   0.85262   0.25840   0.00000  Uiso   1.00
N273   N     0.78604   0.74946   0.59231   0.00000  Uiso   1.00
N274   N     0.33715   0.62752   0.33631   0.00000  Uiso   1.00
N275   N     0.84790   0.93136   0.30110   0.00000  Uiso   1.00
N276   N     0.83915   0.82819   0.63501   0.00000  Uiso   1.00
C277   C     0.21272   0.79035   0.57973   0.00000  Uiso   1.00
C278   C     0.25006   0.80394   0.52451   0.00000  Uiso   1.00
C279   C     0.20953   0.85977   0.50950   0.00000  Uiso   1.00
C280   C     0.25445   0.86289   0.45713   0.00000  Uiso   1.00
C281   C     0.29991   0.89175   0.37688   0.00000  Uiso   1.00
C282   C     0.28952   0.78053   0.61516   0.00000  Uiso   1.00
C283   C     0.28217   0.81668   0.67637   0.00000  Uiso   1.00
C284   C     0.36032   0.80009   0.70031   0.00000  Uiso   1.00
C285   C     0.46702   0.79258   0.76082   0.00000  Uiso   1.00
C286   C     0.20265   0.72234   0.55408   0.00000  Uiso   1.00
C287   C     0.12226   0.70955   0.56395   0.00000  Uiso   1.00
C288   C     0.12727   0.64397   0.53647   0.00000  Uiso   1.00
C289   C     0.09909   0.54611   0.50213   0.00000  Uiso   1.00
C290   C     0.36458   0.69661   0.51341   0.00000  Uiso   1.00
C291   C     0.33254   0.75302   0.48849   0.00000  Uiso   1.00
C292   C     0.37754   0.75606   0.43612   0.00000  Uiso   1.00
C293   C     0.33708   0.81188   0.42104   0.00000  Uiso   1.00
C294   C     0.37200   0.72962   0.57915   0.00000  Uiso   1.00
C295   C     0.45018   0.71296   0.60300   0.00000  Uiso   1.00
C296   C     0.44295   0.74908   0.66423   0.00000  Uiso   1.00
C297   C     0.28513   0.67142   0.51806   0.00000  Uiso   1.00
C298   C     0.29027   0.60584   0.49057   0.00000  Uiso   1.00
C299   C     0.20990   0.59296   0.50038   0.00000  Uiso   1.00
H300   H     0.14851   0.82999   0.60778   0.00000  Uiso   1.00
H301   H     0.14570   0.89917   0.53739   0.00000  Uiso   1.00
H302   H     0.21833   0.85607   0.70424   0.00000  Uiso   1.00
H303   H     0.05844   0.74897   0.59182   0.00000  Uiso   1.00
H304   H     0.17898   0.95342   0.44348   0.00000  Uiso   1.00
H305   H     0.33211   0.86254   0.79529   0.00000  Uiso   1.00
H306   H     0.99496   0.63669   0.55825   0.00000  Uiso   1.00
H307   H     0.42880   0.65696   0.48537   0.00000  Uiso   1.00
H308   H     0.44137   0.71665   0.40826   0.00000  Uiso   1.00
H309   H     0.51400   0.67356   0.57511   0.00000  Uiso   1.00
H310   H     0.35411   0.56645   0.46269   0.00000  Uiso   1.00
H311   H     0.41896   0.80528   0.33867   0.00000  Uiso   1.00
H312   H     0.57209   0.71440   0.69049   0.00000  Uiso   1.00
H313   H     0.23494   0.48855   0.45344   0.00000  Uiso   1.00
O314   O     0.30220   0.92174   0.34257   0.00000  Uiso   1.00
O315   O     0.50309   0.80251   0.80414   0.00000  Uiso   1.00
O316   O     0.06075   0.50620   0.49314   0.00000  Uiso   1.00
N317   N     0.23372   0.91036   0.42939   0.00000  Uiso   1.00
N318   N     0.37690   0.82540   0.75831   0.00000  Uiso   1.00
N319   N     0.06169   0.61424   0.53670   0.00000  Uiso   1.00
N320   N     0.36285   0.83065   0.37299   0.00000  Uiso   1.00
N321   N     0.50603   0.74569   0.70191   0.00000  Uiso   1.00
N322   N     0.19082   0.53453   0.48031   0.00000  Uiso   1.00
C323   C     0.57214   0.03784   0.43905   0.00000  Uiso   1.00
C324   C     0.52537   0.03726   0.38493   0.00000  Uiso   1.00
C325   C     0.56599   0.03258   0.32770   0.00000  Uiso   1.00
C326   C     0.51163   0.03286   0.28433   0.00000  Uiso   1.00
C327   C     0.45296   0.03119   0.19824   0.00000  Uiso   1.00
C328   C     0.56280   0.98030   0.45718   0.00000  Uiso   1.00
C329   C     0.63489   0.92772   0.46071   0.00000  Uiso   1.00
C330   C     0.61203   0.88006   0.47817   0.00000  Uiso   1.00
C331   C     0.61147   0.78998   0.50431   0.00000  Uiso   1.00
C332   C     0.51260   0.10202   0.49199   0.00000  Uiso   1.00
C333   C     0.54249   0.15179   0.52480   0.00000  Uiso   1.00
C334   C     0.47738   0.20660   0.57159   0.00000  Uiso   1.00
C335   C     0.39888   0.30551   0.65177   0.00000  Uiso   1.00
C336   C     0.40336   0.04667   0.46380   0.00000  Uiso   1.00
C337   C     0.43369   0.04205   0.39838   0.00000  Uiso   1.00
C338   C     0.37925   0.04235   0.35509   0.00000  Uiso   1.00
C339   C     0.41979   0.03767   0.29780   0.00000  Uiso   1.00
C340   C     0.47112   0.98509   0.47063   0.00000  Uiso   1.00
C341   C     0.44815   0.93749   0.48810   0.00000  Uiso   1.00
C342   C     0.52019   0.88486   0.49165   0.00000  Uiso   1.00
C343   C     0.42092   0.10682   0.50544   0.00000  Uiso   1.00
C344   C     0.35575   0.16155   0.55219   0.00000  Uiso   1.00
C345   C     0.38554   0.21140   0.58506   0.00000  Uiso   1.00
H346   H     0.64352   0.03411   0.42858   0.00000  Uiso   1.00
H347   H     0.63694   0.02886   0.31731   0.00000  Uiso   1.00
H348   H     0.70583   0.92403   0.45031   0.00000  Uiso   1.00
H349   H     0.61344   0.14806   0.51439   0.00000  Uiso   1.00
H350   H     0.58924   0.02514   0.19987   0.00000  Uiso   1.00
H351   H     0.73448   0.80410   0.48032   0.00000  Uiso   1.00
H352   H     0.53967   0.27651   0.61545   0.00000  Uiso   1.00
H353   H     0.33198   0.05040   0.47427   0.00000  Uiso   1.00
H354   H     0.30831   0.04606   0.36550   0.00000  Uiso   1.00
H355   H     0.37720   0.94122   0.49850   0.00000  Uiso   1.00
H356   H     0.28482   0.16525   0.56258   0.00000  Uiso   1.00
H357   H     0.32251   0.03909   0.23898   0.00000  Uiso   1.00
H358   H     0.46775   0.81806   0.51944   0.00000  Uiso   1.00
H359   H     0.27294   0.29046   0.65456   0.00000  Uiso   1.00
O360   O     0.44593   0.02894   0.14704   0.00000  Uiso   1.00
O361   O     0.63648   0.73896   0.51500   0.00000  Uiso   1.00
O362   O     0.38090   0.35874   0.69228   0.00000  Uiso   1.00
N363   N     0.52970   0.02903   0.22400   0.00000  Uiso   1.00
N364   N     0.66550   0.82237   0.48620   0.00000  Uiso   1.00
N365   N     0.48338   0.26403   0.61254   0.00000  Uiso   1.00
N366   N     0.38618   0.03654   0.24505   0.00000  Uiso   1.00
N367   N     0.52198   0.82988   0.50725   0.00000  Uiso   1.00
N368   N     0.33985   0.27153   0.63359   0.00000  Uiso   1.00
C369   C     0.55964   0.54962   0.13939   0.00000  Uiso   1.00
C370   C     0.46654   0.60696   0.16414   0.00000  Uiso   1.00
C371   C     0.38221   0.60062   0.17784   0.00000  Uiso   1.00
C372   C     0.30497   0.65913   0.20002   0.00000  Uiso   1.00
C373   C     0.15936   0.73866   0.23724   0.00000  Uiso   1.00
C374   C     0.61998   0.56697   0.18440   0.00000  Uiso   1.00
C375   C     0.66466   0.52699   0.21512   0.00000  Uiso   1.00
C376   C     0.71659   0.55183   0.25434   0.00000  Uiso   1.00
C377   C     0.80924   0.56924   0.32297   0.00000  Uiso   1.00
C378   C     0.60117   0.55386   0.07994   0.00000  Uiso   1.00
C379   C     0.63007   0.50286   0.02283   0.00000  Uiso   1.00
C380   C     0.66619   0.51666   0.97411   0.00000  Uiso   1.00
C381   C     0.72964   0.51372   0.88055   0.00000  Uiso   1.00
C382   C     0.57244   0.66480   0.15441   0.00000  Uiso   1.00
C383   C     0.47350   0.66953   0.17230   0.00000  Uiso   1.00
C384   C     0.39636   0.72806   0.19446   0.00000  Uiso   1.00
C385   C     0.31193   0.72180   0.20819   0.00000  Uiso   1.00
C386   C     0.62693   0.62953   0.19255   0.00000  Uiso   1.00
C387   C     0.67881   0.65443   0.23174   0.00000  Uiso   1.00
C388   C     0.72355   0.61450   0.26252   0.00000  Uiso   1.00
C389   C     0.60812   0.61643   0.08809   0.00000  Uiso   1.00
C390   C     0.64421   0.63030   0.03945   0.00000  Uiso   1.00
C391   C     0.67315   0.57933   0.98228   0.00000  Uiso   1.00
H392   H     0.55424   0.50091   0.13304   0.00000  Uiso   1.00
H393   H     0.37686   0.55219   0.17153   0.00000  Uiso   1.00
H394   H     0.65927   0.47857   0.20879   0.00000  Uiso   1.00
H395   H     0.62468   0.45445   0.01654   0.00000  Uiso   1.00
H396   H     0.18328   0.63665   0.21782   0.00000  Uiso   1.00
H397   H     0.77878   0.48140   0.29638   0.00000  Uiso   1.00
H398   H     0.70584   0.43053   0.89096   0.00000  Uiso   1.00
H399   H     0.57785   0.71351   0.16076   0.00000  Uiso   1.00
H400   H     0.40176   0.77647   0.20077   0.00000  Uiso   1.00
H401   H     0.68418   0.70284   0.23804   0.00000  Uiso   1.00
H402   H     0.64958   0.67872   0.04578   0.00000  Uiso   1.00
H403   H     0.20349   0.81868   0.24156   0.00000  Uiso   1.00
H404   H     0.79900   0.66343   0.32011   0.00000  Uiso   1.00
H405   H     0.72605   0.61256   0.91470   0.00000  Uiso   1.00
O406   O     0.07713   0.76524   0.25553   0.00000  Uiso   1.00
O407   O     0.85842   0.56156   0.35858   0.00000  Uiso   1.00
O408   O     0.76271   0.49482   0.82669   0.00000  Uiso   1.00
N409   N     0.21220   0.67085   0.21790   0.00000  Uiso   1.00
N410   N     0.76895   0.52571   0.29136   0.00000  Uiso   1.00
N411   N     0.70077   0.47814   0.91233   0.00000  Uiso   1.00
N412   N     0.22307   0.76879   0.23068   0.00000  Uiso   1.00
N413   N     0.77982   0.62365   0.30413   0.00000  Uiso   1.00
N414   N     0.71165   0.57609   0.92510   0.00000  Uiso   1.00
C415   C     0.08212   0.52801   0.10244   0.00000  Uiso   1.00
C416   C     0.03538   0.49267   0.05620   0.00000  Uiso   1.00
C417   C     0.96275   0.47292   0.07017   0.00000  Uiso   1.00
C418   C     0.92966   0.44129   0.02133   0.00000  Uiso   1.00
C419   C     0.85129   0.38812   0.95875   0.00000  Uiso   1.00
C420   C     0.18415   0.48434   0.08319   0.00000  Uiso   1.00
C421   C     0.23660   0.45761   0.11985   0.00000  Uiso   1.00
C422   C     0.32875   0.41897   0.09372   0.00000  Uiso   1.00
C423   C     0.48136   0.35292   0.07304   0.00000  Uiso   1.00
C424   C     0.07507   0.59258   0.09148   0.00000  Uiso   1.00
C425   C     0.03585   0.65685   0.13512   0.00000  Uiso   1.00
C426   C     0.03618   0.70934   0.11599   0.00000  Uiso   1.00
C427   C     0.01944   0.81133   0.10819   0.00000  Uiso   1.00
C428   C     0.15249   0.50694   0.99087   0.00000  Uiso   1.00
C429   C     0.07360   0.48122   0.99560   0.00000  Uiso   1.00
C430   C     0.04061   0.44961   0.94673   0.00000  Uiso   1.00
C431   C     0.96794   0.42982   0.96062   0.00000  Uiso   1.00
C432   C     0.22237   0.47289   0.02258   0.00000  Uiso   1.00
C433   C     0.31446   0.43429   0.99640   0.00000  Uiso   1.00
C434   C     0.36704   0.40750   0.03301   0.00000  Uiso   1.00
C435   C     0.11329   0.58113   0.03088   0.00000  Uiso   1.00
C436   C     0.11370   0.63353   0.01168   0.00000  Uiso   1.00
C437   C     0.07447   0.69787   0.05528   0.00000  Uiso   1.00
H438   H     0.05237   0.53692   0.14963   0.00000  Uiso   1.00
H439   H     0.93320   0.48179   0.11708   0.00000  Uiso   1.00
H440   H     0.20701   0.46648   0.16674   0.00000  Uiso   1.00
H441   H     0.00628   0.66569   0.18202   0.00000  Uiso   1.00
H442   H     0.81795   0.41559   0.05426   0.00000  Uiso   1.00
H443   H     0.39530   0.38333   0.15900   0.00000  Uiso   1.00
H444   H     0.97202   0.80340   0.19120   0.00000  Uiso   1.00
H445   H     0.18225   0.49803   0.94368   0.00000  Uiso   1.00
H446   H     0.07020   0.44076   0.89983   0.00000  Uiso   1.00
H447   H     0.34401   0.42545   0.94950   0.00000  Uiso   1.00
H448   H     0.14328   0.62466   0.96477   0.00000  Uiso   1.00
H449   H     0.92915   0.38228   0.87794   0.00000  Uiso   1.00
H450   H     0.50650   0.35003   0.98267   0.00000  Uiso   1.00
H451   H     0.08322   0.77010   0.01488   0.00000  Uiso   1.00
O452   O     0.79751   0.36194   0.94097   0.00000  Uiso   1.00
O453   O     0.55498   0.31964   0.07838   0.00000  Uiso   1.00
O454   O     0.99964   0.87076   0.12063   0.00000  Uiso   1.00
N455   N     0.85948   0.41562   0.01879   0.00000  Uiso   1.00
N456   N     0.39927   0.38545   0.11670   0.00000  Uiso   1.00
N457   N     0.00356   0.77818   0.14682   0.00000  Uiso   1.00
N458   N     0.91932   0.39770   0.92391   0.00000  Uiso   1.00
N459   N     0.45911   0.36754   0.02182   0.00000  Uiso   1.00
N460   N     0.06340   0.76026   0.05194   0.00000  Uiso   1.00
C461   C     0.49236   0.99716   0.96533   0.00000  Uiso   1.00
C462   C     0.48537   0.00188   0.90243   0.00000  Uiso   1.00
C463   C     0.52143   0.94890   0.84667   0.00000  Uiso   1.00
C464   C     0.50769   0.96355   0.79426   0.00000  Uiso   1.00
C465   C     0.50418   0.96095   0.69609   0.00000  Uiso   1.00
C466   C     0.53735   0.04656   0.99548   0.00000  Uiso   1.00
C467   C     0.61712   0.03113   0.01795   0.00000  Uiso   1.00
C468   C     0.64713   0.08339   0.04387   0.00000  Uiso   1.00
C469   C     0.72429   0.15016   0.09020   0.00000  Uiso   1.00
C470   C     0.39371   0.02545   0.00225   0.00000  Uiso   1.00
C471   C     0.35270   0.99229   0.03043   0.00000  Uiso   1.00
C472   C     0.26178   0.02680   0.06207   0.00000  Uiso   1.00
C473   C     0.11592   0.06080   0.11891   0.00000  Uiso   1.00
C474   C     0.40382   0.11741   0.97142   0.00000  Uiso   1.00
C475   C     0.43728   0.06719   0.90574   0.00000  Uiso   1.00
C476   C     0.42347   0.08193   0.85340   0.00000  Uiso   1.00
C477   C     0.45951   0.02897   0.79757   0.00000  Uiso   1.00
C478   C     0.48926   0.11186   0.99879   0.00000  Uiso   1.00
C479   C     0.51916   0.16416   0.02469   0.00000  Uiso   1.00
C480   C     0.59895   0.14882   0.04719   0.00000  Uiso   1.00
C481   C     0.34562   0.09077   0.00556   0.00000  Uiso   1.00
C482   C     0.25474   0.12533   0.03716   0.00000  Uiso   1.00
C483   C     0.21361   0.09223   0.06538   0.00000  Uiso   1.00
H484   H     0.52981   0.94632   0.96276   0.00000  Uiso   1.00
H485   H     0.55865   0.89836   0.84413   0.00000  Uiso   1.00
H486   H     0.65431   0.98058   0.01539   0.00000  Uiso   1.00
H487   H     0.38994   0.94175   0.02786   0.00000  Uiso   1.00
H488   H     0.56945   0.87400   0.71406   0.00000  Uiso   1.00
H489   H     0.77114   0.04737   0.07519   0.00000  Uiso   1.00
H490   H     0.21366   0.96550   0.10150   0.00000  Uiso   1.00
H491   H     0.36638   0.16826   0.97400   0.00000  Uiso   1.00
H492   H     0.38626   0.13248   0.85598   0.00000  Uiso   1.00
H493   H     0.48192   0.21470   0.02724   0.00000  Uiso   1.00
H494   H     0.21755   0.17587   0.03971   0.00000  Uiso   1.00
H495   H     0.42954   0.06402   0.72368   0.00000  Uiso   1.00
H496   H     0.63123   0.23739   0.08482   0.00000  Uiso   1.00
H497   H     0.07374   0.15551   0.11112   0.00000  Uiso   1.00
O498   O     0.51554   0.94147   0.64103   0.00000  Uiso   1.00
O499   O     0.78014   0.16893   0.11483   0.00000  Uiso   1.00
O500   O     0.04874   0.06151   0.14934   0.00000  Uiso   1.00
N501   N     0.53378   0.92363   0.73252   0.00000  Uiso   1.00
N502   N     0.72236   0.08572   0.07015   0.00000  Uiso   1.00
N503   N     0.20116   0.00918   0.09475   0.00000  Uiso   1.00
N504   N     0.45849   0.02587   0.73770   0.00000  Uiso   1.00
N505   N     0.64707   0.18797   0.07533   0.00000  Uiso   1.00
N506   N     0.12587   0.11142   0.09993   0.00000  Uiso   1.00
C507   C     0.77327   0.12283   0.77562   0.00000  Uiso   1.00
C508   C     0.67433   0.16136   0.77490   0.00000  Uiso   1.00
C509   C     0.62479   0.22855   0.80880   0.00000  Uiso   1.00
C510   C     0.53518   0.25446   0.80173   0.00000  Uiso   1.00
C511   C     0.38740   0.32034   0.80666   0.00000  Uiso   1.00
C512   C     0.77043   0.06331   0.79280   0.00000  Uiso   1.00
C513   C     0.80169   0.04805   0.84174   0.00000  Uiso   1.00
C514   C     0.79299   0.99142   0.84974   0.00000  Uiso   1.00
C515   C     0.79447   0.90505   0.88242   0.00000  Uiso   1.00
C516   C     0.82638   0.09347   0.70925   0.00000  Uiso   1.00
C517   C     0.90470   0.10357   0.68795   0.00000  Uiso   1.00
C518   C     0.94311   0.07232   0.62561   0.00000  Uiso   1.00
C519   C     0.03146   0.03279   0.52858   0.00000  Uiso   1.00
C520   C     0.70224   0.04936   0.70278   0.00000  Uiso   1.00
C521   C     0.63575   0.12145   0.73534   0.00000  Uiso   1.00
C522   C     0.54620   0.14726   0.72822   0.00000  Uiso   1.00
C523   C     0.49653   0.21448   0.76210   0.00000  Uiso   1.00
C524   C     0.73185   0.02340   0.75324   0.00000  Uiso   1.00
C525   C     0.72311   0.96677   0.76116   0.00000  Uiso   1.00
C526   C     0.75434   0.95144   0.81011   0.00000  Uiso   1.00
C527   C     0.78780   0.05356   0.66969   0.00000  Uiso   1.00
C528   C     0.82611   0.02228   0.60737   0.00000  Uiso   1.00
C529   C     0.90446   0.03234   0.58598   0.00000  Uiso   1.00
H530   H     0.80331   0.15389   0.80642   0.00000  Uiso   1.00
H531   H     0.65466   0.25941   0.83941   0.00000  Uiso   1.00
H532   H     0.83155   0.07894   0.87235   0.00000  Uiso   1.00
H533   H     0.93453   0.13445   0.71858   0.00000  Uiso   1.00
H534   H     0.47284   0.35879   0.85856   0.00000  Uiso   1.00
H535   H     0.84584   0.97825   0.92799   0.00000  Uiso   1.00
H536   H     0.06301   0.09530   0.60374   0.00000  Uiso   1.00
H537   H     0.67221   0.01828   0.67198   0.00000  Uiso   1.00
H538   H     0.51636   0.11636   0.69760   0.00000  Uiso   1.00
H539   H     0.69325   0.93590   0.73054   0.00000  Uiso   1.00
H540   H     0.79623   0.99141   0.57677   0.00000  Uiso   1.00
H541   H     0.36058   0.24269   0.74346   0.00000  Uiso   1.00
H542   H     0.73360   0.86215   0.81289   0.00000  Uiso   1.00
H543   H     0.95075   0.97920   0.48864   0.00000  Uiso   1.00
O544   O     0.31654   0.36770   0.82031   0.00000  Uiso   1.00
O545   O     0.80594   0.86845   0.91139   0.00000  Uiso   1.00
O546   O     0.09084   0.02202   0.48598   0.00000  Uiso   1.00
N547   N     0.46781   0.31801   0.82795   0.00000  Uiso   1.00
N548   N     0.81654   0.96224   0.89287   0.00000  Uiso   1.00
N549   N     0.01958   0.07165   0.58973   0.00000  Uiso   1.00
N550   N     0.40741   0.25554   0.76602   0.00000  Uiso   1.00
N551   N     0.75614   0.89976   0.83094   0.00000  Uiso   1.00
N552   N     0.95918   0.00918   0.52779   0.00000  Uiso   1.00
