data_job_03787
_audit_creation_date              2018-12-19
_audit_creation_method            'Materials Studio'
_symmetry_space_group_name_H-M    'P1'
_symmetry_Int_Tables_number       1
_symmetry_cell_setting            triclinic
loop_
_symmetry_equiv_pos_as_xyz
  x,y,z
_cell_length_a                    9.9704
_cell_length_b                    12.4423
_cell_length_c                    36.2086
_cell_angle_alpha                 90.0000
_cell_angle_beta                  104.5095
_cell_angle_gamma                 90.0000
loop_
_atom_site_label
_atom_site_type_symbol
_atom_site_fract_x
_atom_site_fract_y
_atom_site_fract_z
_atom_site_U_iso_or_equiv
_atom_site_adp_type
_atom_site_occupancy
C1     C     0.13957   0.41741   0.90339   0.00000  Uiso   1.00
C2     C     0.21741   0.50274   0.88677   0.00000  Uiso   1.00
C3     C     0.26134   0.60149   0.90323   0.00000  Uiso   1.00
C4     C     0.33088   0.66828   0.88354   0.00000  Uiso   1.00
C5     C     0.44793   0.80551   0.86304   0.00000  Uiso   1.00
C6     C     0.00643   0.39529   0.87285   0.00000  Uiso   1.00
C7     C     0.87296   0.40368   0.87760   0.00000  Uiso   1.00
C8     C     0.76489   0.38000   0.84618   0.00000  Uiso   1.00
C9     C     0.55439   0.35033   0.80407   0.00000  Uiso   1.00
C10    C     0.22598   0.31514   0.90651   0.00000  Uiso   1.00
C11    C     0.27709   0.25612   0.93957   0.00000  Uiso   1.00
C12    C     0.35385   0.16494   0.93649   0.00000  Uiso   1.00
C13    C     0.48423   0.01084   0.94665   0.00000  Uiso   1.00
C14    C     0.18497   0.36041   0.83914   0.00000  Uiso   1.00
C15    C     0.24206   0.47178   0.85187   0.00000  Uiso   1.00
C16    C     0.31156   0.53844   0.83215   0.00000  Uiso   1.00
C17    C     0.35559   0.63727   0.84858   0.00000  Uiso   1.00
C18    C     0.03108   0.36433   0.83795   0.00000  Uiso   1.00
C19    C     0.92318   0.34063   0.80651   0.00000  Uiso   1.00
C20    C     0.78959   0.34899   0.81122   0.00000  Uiso   1.00
C21    C     0.25064   0.28418   0.87161   0.00000  Uiso   1.00
C22    C     0.32732   0.19307   0.86848   0.00000  Uiso   1.00
C23    C     0.37854   0.13393   0.90153   0.00000  Uiso   1.00
H24    H     0.12037   0.44151   0.93056   0.00000  Uiso   1.00
H25    H     0.24222   0.62542   0.93024   0.00000  Uiso   1.00
H26    H     0.85391   0.42763   0.90461   0.00000  Uiso   1.00
H27    H     0.25799   0.28010   0.96657   0.00000  Uiso   1.00
H28    H     0.38815   0.81569   0.91450   0.00000  Uiso   1.00
H29    H     0.56938   0.39860   0.86046   0.00000  Uiso   1.00
H30    H     0.42144   0.08750   0.99111   0.00000  Uiso   1.00
H31    H     0.20416   0.33631   0.81196   0.00000  Uiso   1.00
H32    H     0.33063   0.51446   0.80514   0.00000  Uiso   1.00
H33    H     0.94231   0.31667   0.77951   0.00000  Uiso   1.00
H34    H     0.34638   0.16914   0.84147   0.00000  Uiso   1.00
H35    H     0.45990   0.72563   0.81296   0.00000  Uiso   1.00
H36    H     0.64111   0.30854   0.75892   0.00000  Uiso   1.00
H37    H     0.49318   0.99745   0.88957   0.00000  Uiso   1.00
O38    O     0.50566   0.88976   0.86137   0.00000  Uiso   1.00
O39    O     0.43146   0.34254   0.79048   0.00000  Uiso   1.00
O40    O     0.54935   0.93440   0.96189   0.00000  Uiso   1.00
N41    N     0.38771   0.77004   0.89154   0.00000  Uiso   1.00
N42    N     0.62220   0.38010   0.84102   0.00000  Uiso   1.00
N43    N     0.41878   0.08924   0.96316   0.00000  Uiso   1.00
N44    N     0.42631   0.72158   0.83690   0.00000  Uiso   1.00
N45    N     0.66080   0.33164   0.78638   0.00000  Uiso   1.00
N46    N     0.45738   0.04078   0.90852   0.00000  Uiso   1.00
C47    C     0.86043   0.41741   0.59661   0.00000  Uiso   1.00
C48    C     0.78259   0.50274   0.61323   0.00000  Uiso   1.00
C49    C     0.73866   0.60149   0.59677   0.00000  Uiso   1.00
C50    C     0.66912   0.66828   0.61646   0.00000  Uiso   1.00
C51    C     0.55207   0.80551   0.63696   0.00000  Uiso   1.00
C52    C     0.99357   0.39529   0.62715   0.00000  Uiso   1.00
C53    C     0.12704   0.40368   0.62240   0.00000  Uiso   1.00
C54    C     0.23511   0.38000   0.65382   0.00000  Uiso   1.00
C55    C     0.44561   0.35033   0.69593   0.00000  Uiso   1.00
C56    C     0.77402   0.31514   0.59349   0.00000  Uiso   1.00
C57    C     0.72291   0.25612   0.56043   0.00000  Uiso   1.00
C58    C     0.64615   0.16494   0.56351   0.00000  Uiso   1.00
C59    C     0.51577   0.01084   0.55335   0.00000  Uiso   1.00
C60    C     0.81503   0.36041   0.66086   0.00000  Uiso   1.00
C61    C     0.75794   0.47178   0.64813   0.00000  Uiso   1.00
C62    C     0.68844   0.53844   0.66785   0.00000  Uiso   1.00
C63    C     0.64441   0.63727   0.65142   0.00000  Uiso   1.00
C64    C     0.96892   0.36433   0.66205   0.00000  Uiso   1.00
C65    C     0.07682   0.34063   0.69349   0.00000  Uiso   1.00
C66    C     0.21041   0.34899   0.68878   0.00000  Uiso   1.00
C67    C     0.74936   0.28418   0.62839   0.00000  Uiso   1.00
C68    C     0.67268   0.19307   0.63152   0.00000  Uiso   1.00
C69    C     0.62146   0.13393   0.59847   0.00000  Uiso   1.00
H70    H     0.87963   0.44151   0.56944   0.00000  Uiso   1.00
H71    H     0.75778   0.62542   0.56976   0.00000  Uiso   1.00
H72    H     0.14609   0.42763   0.59539   0.00000  Uiso   1.00
H73    H     0.74201   0.28010   0.53343   0.00000  Uiso   1.00
H74    H     0.61185   0.81569   0.58550   0.00000  Uiso   1.00
H75    H     0.43062   0.39860   0.63954   0.00000  Uiso   1.00
H76    H     0.57856   0.08750   0.50889   0.00000  Uiso   1.00
H77    H     0.79584   0.33631   0.68804   0.00000  Uiso   1.00
H78    H     0.66937   0.51446   0.69486   0.00000  Uiso   1.00
H79    H     0.05769   0.31667   0.72049   0.00000  Uiso   1.00
H80    H     0.65362   0.16914   0.65853   0.00000  Uiso   1.00
H81    H     0.54010   0.72563   0.68704   0.00000  Uiso   1.00
H82    H     0.35889   0.30854   0.74108   0.00000  Uiso   1.00
H83    H     0.50682   0.99745   0.61043   0.00000  Uiso   1.00
O84    O     0.49434   0.88976   0.63863   0.00000  Uiso   1.00
O85    O     0.56854   0.34254   0.70952   0.00000  Uiso   1.00
O86    O     0.45065   0.93440   0.53811   0.00000  Uiso   1.00
N87    N     0.61229   0.77004   0.60846   0.00000  Uiso   1.00
N88    N     0.37780   0.38010   0.65898   0.00000  Uiso   1.00
N89    N     0.58122   0.08924   0.53684   0.00000  Uiso   1.00
N90    N     0.57369   0.72158   0.66310   0.00000  Uiso   1.00
N91    N     0.33920   0.33164   0.71362   0.00000  Uiso   1.00
N92    N     0.54262   0.04078   0.59148   0.00000  Uiso   1.00
C93    C     0.86043   0.58259   0.09661   0.00000  Uiso   1.00
C94    C     0.78259   0.49726   0.11323   0.00000  Uiso   1.00
C95    C     0.73866   0.39851   0.09677   0.00000  Uiso   1.00
C96    C     0.66912   0.33172   0.11646   0.00000  Uiso   1.00
C97    C     0.55207   0.19449   0.13696   0.00000  Uiso   1.00
C98    C     0.99357   0.60471   0.12715   0.00000  Uiso   1.00
C99    C     0.12704   0.59632   0.12240   0.00000  Uiso   1.00
C100   C     0.23511   0.62000   0.15382   0.00000  Uiso   1.00
C101   C     0.44561   0.64967   0.19593   0.00000  Uiso   1.00
C102   C     0.77402   0.68486   0.09349   0.00000  Uiso   1.00
C103   C     0.72291   0.74388   0.06043   0.00000  Uiso   1.00
C104   C     0.64615   0.83506   0.06351   0.00000  Uiso   1.00
C105   C     0.51577   0.98916   0.05335   0.00000  Uiso   1.00
C106   C     0.81503   0.63959   0.16086   0.00000  Uiso   1.00
C107   C     0.75794   0.52822   0.14813   0.00000  Uiso   1.00
C108   C     0.68844   0.46156   0.16785   0.00000  Uiso   1.00
C109   C     0.64441   0.36273   0.15142   0.00000  Uiso   1.00
C110   C     0.96892   0.63567   0.16205   0.00000  Uiso   1.00
C111   C     0.07682   0.65937   0.19349   0.00000  Uiso   1.00
C112   C     0.21041   0.65101   0.18878   0.00000  Uiso   1.00
C113   C     0.74936   0.71582   0.12839   0.00000  Uiso   1.00
C114   C     0.67268   0.80693   0.13152   0.00000  Uiso   1.00
C115   C     0.62146   0.86607   0.09847   0.00000  Uiso   1.00
H116   H     0.87963   0.55849   0.06944   0.00000  Uiso   1.00
H117   H     0.75778   0.37458   0.06976   0.00000  Uiso   1.00
H118   H     0.14609   0.57237   0.09539   0.00000  Uiso   1.00
H119   H     0.74201   0.71990   0.03343   0.00000  Uiso   1.00
H120   H     0.61185   0.18431   0.08550   0.00000  Uiso   1.00
H121   H     0.43062   0.60140   0.13954   0.00000  Uiso   1.00
H122   H     0.57856   0.91250   0.00889   0.00000  Uiso   1.00
H123   H     0.79584   0.66369   0.18804   0.00000  Uiso   1.00
H124   H     0.66937   0.48554   0.19486   0.00000  Uiso   1.00
H125   H     0.05769   0.68333   0.22049   0.00000  Uiso   1.00
H126   H     0.65362   0.83086   0.15853   0.00000  Uiso   1.00
H127   H     0.54010   0.27437   0.18704   0.00000  Uiso   1.00
H128   H     0.35889   0.69146   0.24108   0.00000  Uiso   1.00
H129   H     0.50682   0.00255   0.11043   0.00000  Uiso   1.00
O130   O     0.49434   0.11024   0.13863   0.00000  Uiso   1.00
O131   O     0.56854   0.65746   0.20952   0.00000  Uiso   1.00
O132   O     0.45065   0.06560   0.03811   0.00000  Uiso   1.00
N133   N     0.61229   0.22996   0.10846   0.00000  Uiso   1.00
N134   N     0.37780   0.61990   0.15898   0.00000  Uiso   1.00
N135   N     0.58122   0.91076   0.03684   0.00000  Uiso   1.00
N136   N     0.57369   0.27842   0.16310   0.00000  Uiso   1.00
N137   N     0.33920   0.66836   0.21362   0.00000  Uiso   1.00
N138   N     0.54262   0.95922   0.09148   0.00000  Uiso   1.00
C139   C     0.13957   0.58259   0.40339   0.00000  Uiso   1.00
C140   C     0.21741   0.49726   0.38677   0.00000  Uiso   1.00
C141   C     0.26134   0.39851   0.40323   0.00000  Uiso   1.00
C142   C     0.33088   0.33172   0.38354   0.00000  Uiso   1.00
C143   C     0.44793   0.19449   0.36304   0.00000  Uiso   1.00
C144   C     0.00643   0.60471   0.37285   0.00000  Uiso   1.00
C145   C     0.87296   0.59632   0.37760   0.00000  Uiso   1.00
C146   C     0.76489   0.62000   0.34618   0.00000  Uiso   1.00
C147   C     0.55439   0.64967   0.30407   0.00000  Uiso   1.00
C148   C     0.22598   0.68486   0.40651   0.00000  Uiso   1.00
C149   C     0.27709   0.74388   0.43957   0.00000  Uiso   1.00
C150   C     0.35385   0.83506   0.43649   0.00000  Uiso   1.00
C151   C     0.48423   0.98916   0.44665   0.00000  Uiso   1.00
C152   C     0.18497   0.63959   0.33914   0.00000  Uiso   1.00
C153   C     0.24206   0.52822   0.35187   0.00000  Uiso   1.00
C154   C     0.31156   0.46156   0.33215   0.00000  Uiso   1.00
C155   C     0.35559   0.36273   0.34858   0.00000  Uiso   1.00
C156   C     0.03108   0.63567   0.33795   0.00000  Uiso   1.00
C157   C     0.92318   0.65937   0.30651   0.00000  Uiso   1.00
C158   C     0.78959   0.65101   0.31122   0.00000  Uiso   1.00
C159   C     0.25064   0.71582   0.37161   0.00000  Uiso   1.00
C160   C     0.32732   0.80693   0.36848   0.00000  Uiso   1.00
C161   C     0.37854   0.86607   0.40153   0.00000  Uiso   1.00
H162   H     0.12037   0.55849   0.43056   0.00000  Uiso   1.00
H163   H     0.24222   0.37458   0.43024   0.00000  Uiso   1.00
H164   H     0.85391   0.57237   0.40461   0.00000  Uiso   1.00
H165   H     0.25799   0.71990   0.46657   0.00000  Uiso   1.00
H166   H     0.38815   0.18431   0.41450   0.00000  Uiso   1.00
H167   H     0.56938   0.60140   0.36046   0.00000  Uiso   1.00
H168   H     0.42144   0.91250   0.49111   0.00000  Uiso   1.00
H169   H     0.20416   0.66369   0.31196   0.00000  Uiso   1.00
H170   H     0.33063   0.48554   0.30514   0.00000  Uiso   1.00
H171   H     0.94231   0.68333   0.27951   0.00000  Uiso   1.00
H172   H     0.34638   0.83086   0.34147   0.00000  Uiso   1.00
H173   H     0.45990   0.27437   0.31296   0.00000  Uiso   1.00
H174   H     0.64111   0.69146   0.25892   0.00000  Uiso   1.00
H175   H     0.49318   0.00255   0.38957   0.00000  Uiso   1.00
O176   O     0.50566   0.11024   0.36137   0.00000  Uiso   1.00
O177   O     0.43146   0.65746   0.29048   0.00000  Uiso   1.00
O178   O     0.54935   0.06560   0.46189   0.00000  Uiso   1.00
N179   N     0.38771   0.22996   0.39154   0.00000  Uiso   1.00
N180   N     0.62220   0.61990   0.34102   0.00000  Uiso   1.00
N181   N     0.41878   0.91076   0.46316   0.00000  Uiso   1.00
N182   N     0.42631   0.27842   0.33690   0.00000  Uiso   1.00
N183   N     0.66080   0.66836   0.28638   0.00000  Uiso   1.00
N184   N     0.45738   0.95922   0.40852   0.00000  Uiso   1.00
