data_job_02247
_audit_creation_date              2018-12-19
_audit_creation_method            'Materials Studio'
_symmetry_space_group_name_H-M    'P1'
_symmetry_Int_Tables_number       1
_symmetry_cell_setting            triclinic
loop_
_symmetry_equiv_pos_as_xyz
  x,y,z
_cell_length_a                    17.4272
_cell_length_b                    17.4272
_cell_length_c                    14.4625
_cell_angle_alpha                 90.0000
_cell_angle_beta                  90.0000
_cell_angle_gamma                 90.0000
loop_
_atom_site_label
_atom_site_type_symbol
_atom_site_fract_x
_atom_site_fract_y
_atom_site_fract_z
_atom_site_U_iso_or_equiv
_atom_site_adp_type
_atom_site_occupancy
C1     C     0.84793   0.00532   0.29954   0.00000  Uiso   1.00
C2     C     0.86168   0.93269   0.24312   0.00000  Uiso   1.00
C3     C     0.93277   0.90396   0.21726   0.00000  Uiso   1.00
C4     C     0.93319   0.83676   0.16570   0.00000  Uiso   1.00
C5     C     0.96492   0.72964   0.08182   0.00000  Uiso   1.00
C6     C     0.79536   0.05574   0.24112   0.00000  Uiso   1.00
C7     C     0.81069   0.13048   0.21358   0.00000  Uiso   1.00
C8     C     0.75527   0.16686   0.16035   0.00000  Uiso   1.00
C9     C     0.68401   0.25080   0.07342   0.00000  Uiso   1.00
C10    C     0.80061   0.98077   0.38315   0.00000  Uiso   1.00
C11    C     0.82035   0.99247   0.47504   0.00000  Uiso   1.00
C12    C     0.76934   0.96575   0.54139   0.00000  Uiso   1.00
C13    C     0.70624   0.93328   0.67498   0.00000  Uiso   1.00
C14    C     0.72223   0.93707   0.25397   0.00000  Uiso   1.00
C15    C     0.79340   0.89562   0.21837   0.00000  Uiso   1.00
C16    C     0.79371   0.82845   0.16684   0.00000  Uiso   1.00
C17    C     0.86479   0.79962   0.14091   0.00000  Uiso   1.00
C18    C     0.72708   0.01868   0.21637   0.00000  Uiso   1.00
C19    C     0.67162   0.05496   0.16317   0.00000  Uiso   1.00
C20    C     0.68687   0.12972   0.13555   0.00000  Uiso   1.00
C21    C     0.73234   0.94369   0.35840   0.00000  Uiso   1.00
C22    C     0.68128   0.91696   0.42462   0.00000  Uiso   1.00
C23    C     0.70094   0.92861   0.51659   0.00000  Uiso   1.00
H24    H     0.90108   0.03419   0.31881   0.00000  Uiso   1.00
H25    H     0.98560   0.93267   0.23642   0.00000  Uiso   1.00
H26    H     0.86353   0.15915   0.23276   0.00000  Uiso   1.00
H27    H     0.87319   0.02116   0.49417   0.00000  Uiso   1.00
H28    H     0.04919   0.80378   0.13413   0.00000  Uiso   1.00
H29    H     0.79179   0.28134   0.12643   0.00000  Uiso   1.00
H30    H     0.81216   0.99037   0.67767   0.00000  Uiso   1.00
H31    H     0.66907   0.90821   0.23470   0.00000  Uiso   1.00
H32    H     0.74086   0.79977   0.14770   0.00000  Uiso   1.00
H33    H     0.61879   0.02626   0.14403   0.00000  Uiso   1.00
H34    H     0.62845   0.88827   0.40544   0.00000  Uiso   1.00
H35    H     0.85056   0.69592   0.06211   0.00000  Uiso   1.00
H36    H     0.59315   0.17348   0.05442   0.00000  Uiso   1.00
H37    H     0.61352   0.88251   0.60565   0.00000  Uiso   1.00
O38    O     0.00129   0.68080   0.04238   0.00000  Uiso   1.00
O39    O     0.66358   0.30735   0.03230   0.00000  Uiso   1.00
O40    O     0.69030   0.92560   0.75550   0.00000  Uiso   1.00
N41    N     0.99259   0.79327   0.12914   0.00000  Uiso   1.00
N42    N     0.75194   0.23975   0.12193   0.00000  Uiso   1.00
N43    N     0.77097   0.96774   0.63729   0.00000  Uiso   1.00
N44    N     0.88571   0.73523   0.09039   0.00000  Uiso   1.00
N45    N     0.64506   0.18171   0.08318   0.00000  Uiso   1.00
N46    N     0.66409   0.90970   0.59854   0.00000  Uiso   1.00
C47    C     0.15207   0.99468   0.29954   0.00000  Uiso   1.00
C48    C     0.13832   0.06731   0.24312   0.00000  Uiso   1.00
C49    C     0.06723   0.09604   0.21726   0.00000  Uiso   1.00
C50    C     0.06681   0.16324   0.16570   0.00000  Uiso   1.00
C51    C     0.03508   0.27036   0.08182   0.00000  Uiso   1.00
C52    C     0.20464   0.94426   0.24112   0.00000  Uiso   1.00
C53    C     0.18931   0.86952   0.21358   0.00000  Uiso   1.00
C54    C     0.24473   0.83314   0.16035   0.00000  Uiso   1.00
C55    C     0.31599   0.74920   0.07342   0.00000  Uiso   1.00
C56    C     0.19939   0.01923   0.38315   0.00000  Uiso   1.00
C57    C     0.17965   0.00753   0.47504   0.00000  Uiso   1.00
C58    C     0.23066   0.03425   0.54139   0.00000  Uiso   1.00
C59    C     0.29376   0.06672   0.67498   0.00000  Uiso   1.00
C60    C     0.27777   0.06293   0.25397   0.00000  Uiso   1.00
C61    C     0.20660   0.10438   0.21837   0.00000  Uiso   1.00
C62    C     0.20629   0.17155   0.16684   0.00000  Uiso   1.00
C63    C     0.13521   0.20038   0.14091   0.00000  Uiso   1.00
C64    C     0.27292   0.98132   0.21637   0.00000  Uiso   1.00
C65    C     0.32838   0.94504   0.16317   0.00000  Uiso   1.00
C66    C     0.31313   0.87028   0.13555   0.00000  Uiso   1.00
C67    C     0.26766   0.05631   0.35840   0.00000  Uiso   1.00
C68    C     0.31872   0.08304   0.42462   0.00000  Uiso   1.00
C69    C     0.29906   0.07139   0.51659   0.00000  Uiso   1.00
H70    H     0.09892   0.96581   0.31881   0.00000  Uiso   1.00
H71    H     0.01440   0.06733   0.23642   0.00000  Uiso   1.00
H72    H     0.13647   0.84085   0.23276   0.00000  Uiso   1.00
H73    H     0.12681   0.97884   0.49417   0.00000  Uiso   1.00
H74    H     0.95081   0.19622   0.13413   0.00000  Uiso   1.00
H75    H     0.20821   0.71866   0.12643   0.00000  Uiso   1.00
H76    H     0.18784   0.00963   0.67767   0.00000  Uiso   1.00
H77    H     0.33093   0.09179   0.23470   0.00000  Uiso   1.00
H78    H     0.25914   0.20023   0.14770   0.00000  Uiso   1.00
H79    H     0.38121   0.97374   0.14403   0.00000  Uiso   1.00
H80    H     0.37155   0.11173   0.40544   0.00000  Uiso   1.00
H81    H     0.14944   0.30408   0.06211   0.00000  Uiso   1.00
H82    H     0.40685   0.82652   0.05442   0.00000  Uiso   1.00
H83    H     0.38648   0.11749   0.60565   0.00000  Uiso   1.00
O84    O     0.99871   0.31920   0.04238   0.00000  Uiso   1.00
O85    O     0.33642   0.69265   0.03230   0.00000  Uiso   1.00
O86    O     0.30970   0.07440   0.75550   0.00000  Uiso   1.00
N87    N     0.00741   0.20673   0.12914   0.00000  Uiso   1.00
N88    N     0.24806   0.76025   0.12193   0.00000  Uiso   1.00
N89    N     0.22903   0.03226   0.63729   0.00000  Uiso   1.00
N90    N     0.11429   0.26477   0.09039   0.00000  Uiso   1.00
N91    N     0.35494   0.81829   0.08318   0.00000  Uiso   1.00
N92    N     0.33591   0.09030   0.59854   0.00000  Uiso   1.00
C93    C     0.00532   0.15207   0.70046   0.00000  Uiso   1.00
C94    C     0.93269   0.13832   0.75688   0.00000  Uiso   1.00
C95    C     0.90396   0.06723   0.78274   0.00000  Uiso   1.00
C96    C     0.83676   0.06681   0.83430   0.00000  Uiso   1.00
C97    C     0.72964   0.03508   0.91818   0.00000  Uiso   1.00
C98    C     0.05574   0.20464   0.75888   0.00000  Uiso   1.00
C99    C     0.13048   0.18931   0.78642   0.00000  Uiso   1.00
C100   C     0.16686   0.24473   0.83965   0.00000  Uiso   1.00
C101   C     0.25080   0.31599   0.92658   0.00000  Uiso   1.00
C102   C     0.98077   0.19939   0.61685   0.00000  Uiso   1.00
C103   C     0.99247   0.17965   0.52496   0.00000  Uiso   1.00
C104   C     0.96575   0.23066   0.45861   0.00000  Uiso   1.00
C105   C     0.93328   0.29376   0.32502   0.00000  Uiso   1.00
C106   C     0.93707   0.27777   0.74603   0.00000  Uiso   1.00
C107   C     0.89562   0.20660   0.78163   0.00000  Uiso   1.00
C108   C     0.82845   0.20629   0.83316   0.00000  Uiso   1.00
C109   C     0.79962   0.13521   0.85909   0.00000  Uiso   1.00
C110   C     0.01868   0.27292   0.78363   0.00000  Uiso   1.00
C111   C     0.05496   0.32838   0.83683   0.00000  Uiso   1.00
C112   C     0.12972   0.31313   0.86445   0.00000  Uiso   1.00
C113   C     0.94369   0.26766   0.64160   0.00000  Uiso   1.00
C114   C     0.91696   0.31872   0.57538   0.00000  Uiso   1.00
C115   C     0.92861   0.29906   0.48341   0.00000  Uiso   1.00
H116   H     0.03419   0.09892   0.68119   0.00000  Uiso   1.00
H117   H     0.93267   0.01440   0.76358   0.00000  Uiso   1.00
H118   H     0.15915   0.13647   0.76724   0.00000  Uiso   1.00
H119   H     0.02116   0.12681   0.50583   0.00000  Uiso   1.00
H120   H     0.80378   0.95081   0.86587   0.00000  Uiso   1.00
H121   H     0.28134   0.20821   0.87357   0.00000  Uiso   1.00
H122   H     0.99037   0.18784   0.32233   0.00000  Uiso   1.00
H123   H     0.90821   0.33093   0.76530   0.00000  Uiso   1.00
H124   H     0.79977   0.25914   0.85230   0.00000  Uiso   1.00
H125   H     0.02626   0.38121   0.85597   0.00000  Uiso   1.00
H126   H     0.88827   0.37155   0.59456   0.00000  Uiso   1.00
H127   H     0.69592   0.14944   0.93789   0.00000  Uiso   1.00
H128   H     0.17348   0.40685   0.94558   0.00000  Uiso   1.00
H129   H     0.88251   0.38648   0.39435   0.00000  Uiso   1.00
O130   O     0.68080   0.99871   0.95762   0.00000  Uiso   1.00
O131   O     0.30735   0.33642   0.96770   0.00000  Uiso   1.00
O132   O     0.92560   0.30970   0.24450   0.00000  Uiso   1.00
N133   N     0.79327   0.00741   0.87086   0.00000  Uiso   1.00
N134   N     0.23975   0.24806   0.87807   0.00000  Uiso   1.00
N135   N     0.96774   0.22903   0.36271   0.00000  Uiso   1.00
N136   N     0.73523   0.11429   0.90961   0.00000  Uiso   1.00
N137   N     0.18171   0.35494   0.91682   0.00000  Uiso   1.00
N138   N     0.90970   0.33591   0.40146   0.00000  Uiso   1.00
C139   C     0.99468   0.84793   0.70046   0.00000  Uiso   1.00
C140   C     0.06731   0.86168   0.75688   0.00000  Uiso   1.00
C141   C     0.09604   0.93277   0.78274   0.00000  Uiso   1.00
C142   C     0.16324   0.93319   0.83430   0.00000  Uiso   1.00
C143   C     0.27036   0.96492   0.91818   0.00000  Uiso   1.00
C144   C     0.94426   0.79536   0.75888   0.00000  Uiso   1.00
C145   C     0.86952   0.81069   0.78642   0.00000  Uiso   1.00
C146   C     0.83314   0.75527   0.83965   0.00000  Uiso   1.00
C147   C     0.74920   0.68401   0.92658   0.00000  Uiso   1.00
C148   C     0.01923   0.80061   0.61685   0.00000  Uiso   1.00
C149   C     0.00753   0.82035   0.52496   0.00000  Uiso   1.00
C150   C     0.03425   0.76934   0.45861   0.00000  Uiso   1.00
C151   C     0.06672   0.70624   0.32502   0.00000  Uiso   1.00
C152   C     0.06293   0.72223   0.74603   0.00000  Uiso   1.00
C153   C     0.10438   0.79340   0.78163   0.00000  Uiso   1.00
C154   C     0.17155   0.79371   0.83316   0.00000  Uiso   1.00
C155   C     0.20038   0.86479   0.85909   0.00000  Uiso   1.00
C156   C     0.98132   0.72708   0.78363   0.00000  Uiso   1.00
C157   C     0.94504   0.67162   0.83683   0.00000  Uiso   1.00
C158   C     0.87028   0.68687   0.86445   0.00000  Uiso   1.00
C159   C     0.05631   0.73234   0.64160   0.00000  Uiso   1.00
C160   C     0.08304   0.68128   0.57538   0.00000  Uiso   1.00
C161   C     0.07139   0.70094   0.48341   0.00000  Uiso   1.00
H162   H     0.96581   0.90108   0.68119   0.00000  Uiso   1.00
H163   H     0.06733   0.98560   0.76358   0.00000  Uiso   1.00
H164   H     0.84085   0.86353   0.76724   0.00000  Uiso   1.00
H165   H     0.97884   0.87319   0.50583   0.00000  Uiso   1.00
H166   H     0.19622   0.04919   0.86587   0.00000  Uiso   1.00
H167   H     0.71866   0.79179   0.87357   0.00000  Uiso   1.00
H168   H     0.00963   0.81216   0.32233   0.00000  Uiso   1.00
H169   H     0.09179   0.66907   0.76530   0.00000  Uiso   1.00
H170   H     0.20023   0.74086   0.85230   0.00000  Uiso   1.00
H171   H     0.97374   0.61879   0.85597   0.00000  Uiso   1.00
H172   H     0.11173   0.62845   0.59456   0.00000  Uiso   1.00
H173   H     0.30408   0.85056   0.93789   0.00000  Uiso   1.00
H174   H     0.82652   0.59315   0.94558   0.00000  Uiso   1.00
H175   H     0.11749   0.61352   0.39435   0.00000  Uiso   1.00
O176   O     0.31920   0.00129   0.95762   0.00000  Uiso   1.00
O177   O     0.69265   0.66358   0.96770   0.00000  Uiso   1.00
O178   O     0.07440   0.69030   0.24450   0.00000  Uiso   1.00
N179   N     0.20673   0.99259   0.87086   0.00000  Uiso   1.00
N180   N     0.76025   0.75194   0.87807   0.00000  Uiso   1.00
N181   N     0.03226   0.77097   0.36271   0.00000  Uiso   1.00
N182   N     0.26477   0.88571   0.90961   0.00000  Uiso   1.00
N183   N     0.81829   0.64506   0.91682   0.00000  Uiso   1.00
N184   N     0.09030   0.66409   0.40146   0.00000  Uiso   1.00
C185   C     0.34793   0.49468   0.79954   0.00000  Uiso   1.00
C186   C     0.36168   0.56731   0.74312   0.00000  Uiso   1.00
C187   C     0.43277   0.59604   0.71726   0.00000  Uiso   1.00
C188   C     0.43319   0.66324   0.66570   0.00000  Uiso   1.00
C189   C     0.46492   0.77036   0.58182   0.00000  Uiso   1.00
C190   C     0.29536   0.44426   0.74112   0.00000  Uiso   1.00
C191   C     0.31069   0.36952   0.71358   0.00000  Uiso   1.00
C192   C     0.25527   0.33314   0.66035   0.00000  Uiso   1.00
C193   C     0.18401   0.24920   0.57342   0.00000  Uiso   1.00
C194   C     0.30061   0.51923   0.88315   0.00000  Uiso   1.00
C195   C     0.32035   0.50753   0.97504   0.00000  Uiso   1.00
C196   C     0.26934   0.53425   0.04139   0.00000  Uiso   1.00
C197   C     0.20624   0.56672   0.17498   0.00000  Uiso   1.00
C198   C     0.22223   0.56293   0.75397   0.00000  Uiso   1.00
C199   C     0.29340   0.60438   0.71837   0.00000  Uiso   1.00
C200   C     0.29371   0.67155   0.66684   0.00000  Uiso   1.00
C201   C     0.36479   0.70038   0.64091   0.00000  Uiso   1.00
C202   C     0.22708   0.48132   0.71637   0.00000  Uiso   1.00
C203   C     0.17162   0.44504   0.66317   0.00000  Uiso   1.00
C204   C     0.18687   0.37028   0.63555   0.00000  Uiso   1.00
C205   C     0.23234   0.55631   0.85840   0.00000  Uiso   1.00
C206   C     0.18128   0.58304   0.92462   0.00000  Uiso   1.00
C207   C     0.20094   0.57139   0.01659   0.00000  Uiso   1.00
H208   H     0.40108   0.46581   0.81881   0.00000  Uiso   1.00
H209   H     0.48560   0.56733   0.73642   0.00000  Uiso   1.00
H210   H     0.36353   0.34085   0.73276   0.00000  Uiso   1.00
H211   H     0.37319   0.47884   0.99417   0.00000  Uiso   1.00
H212   H     0.54919   0.69622   0.63413   0.00000  Uiso   1.00
H213   H     0.29179   0.21866   0.62643   0.00000  Uiso   1.00
H214   H     0.31216   0.50963   0.17767   0.00000  Uiso   1.00
H215   H     0.16907   0.59179   0.73470   0.00000  Uiso   1.00
H216   H     0.24086   0.70023   0.64770   0.00000  Uiso   1.00
H217   H     0.11879   0.47374   0.64403   0.00000  Uiso   1.00
H218   H     0.12845   0.61173   0.90544   0.00000  Uiso   1.00
H219   H     0.35056   0.80408   0.56211   0.00000  Uiso   1.00
H220   H     0.09315   0.32652   0.55442   0.00000  Uiso   1.00
H221   H     0.11352   0.61749   0.10565   0.00000  Uiso   1.00
O222   O     0.50129   0.81920   0.54238   0.00000  Uiso   1.00
O223   O     0.16358   0.19265   0.53230   0.00000  Uiso   1.00
O224   O     0.19030   0.57440   0.25550   0.00000  Uiso   1.00
N225   N     0.49259   0.70673   0.62914   0.00000  Uiso   1.00
N226   N     0.25194   0.26025   0.62193   0.00000  Uiso   1.00
N227   N     0.27097   0.53226   0.13729   0.00000  Uiso   1.00
N228   N     0.38571   0.76477   0.59039   0.00000  Uiso   1.00
N229   N     0.14506   0.31829   0.58318   0.00000  Uiso   1.00
N230   N     0.16409   0.59030   0.09854   0.00000  Uiso   1.00
C231   C     0.65207   0.50532   0.79954   0.00000  Uiso   1.00
C232   C     0.63832   0.43269   0.74312   0.00000  Uiso   1.00
C233   C     0.56723   0.40396   0.71726   0.00000  Uiso   1.00
C234   C     0.56681   0.33676   0.66570   0.00000  Uiso   1.00
C235   C     0.53508   0.22964   0.58182   0.00000  Uiso   1.00
C236   C     0.70464   0.55574   0.74112   0.00000  Uiso   1.00
C237   C     0.68931   0.63048   0.71358   0.00000  Uiso   1.00
C238   C     0.74473   0.66686   0.66035   0.00000  Uiso   1.00
C239   C     0.81599   0.75080   0.57342   0.00000  Uiso   1.00
C240   C     0.69939   0.48077   0.88315   0.00000  Uiso   1.00
C241   C     0.67965   0.49247   0.97504   0.00000  Uiso   1.00
C242   C     0.73066   0.46575   0.04139   0.00000  Uiso   1.00
C243   C     0.79376   0.43328   0.17498   0.00000  Uiso   1.00
C244   C     0.77777   0.43707   0.75397   0.00000  Uiso   1.00
C245   C     0.70660   0.39562   0.71837   0.00000  Uiso   1.00
C246   C     0.70629   0.32845   0.66684   0.00000  Uiso   1.00
C247   C     0.63521   0.29962   0.64091   0.00000  Uiso   1.00
C248   C     0.77292   0.51868   0.71637   0.00000  Uiso   1.00
C249   C     0.82838   0.55496   0.66317   0.00000  Uiso   1.00
C250   C     0.81313   0.62972   0.63555   0.00000  Uiso   1.00
C251   C     0.76766   0.44369   0.85840   0.00000  Uiso   1.00
C252   C     0.81872   0.41696   0.92462   0.00000  Uiso   1.00
C253   C     0.79906   0.42861   0.01659   0.00000  Uiso   1.00
H254   H     0.59892   0.53419   0.81881   0.00000  Uiso   1.00
H255   H     0.51440   0.43267   0.73642   0.00000  Uiso   1.00
H256   H     0.63647   0.65915   0.73276   0.00000  Uiso   1.00
H257   H     0.62681   0.52116   0.99417   0.00000  Uiso   1.00
H258   H     0.45081   0.30378   0.63413   0.00000  Uiso   1.00
H259   H     0.70821   0.78134   0.62643   0.00000  Uiso   1.00
H260   H     0.68784   0.49037   0.17767   0.00000  Uiso   1.00
H261   H     0.83093   0.40821   0.73470   0.00000  Uiso   1.00
H262   H     0.75914   0.29977   0.64770   0.00000  Uiso   1.00
H263   H     0.88121   0.52626   0.64403   0.00000  Uiso   1.00
H264   H     0.87155   0.38827   0.90544   0.00000  Uiso   1.00
H265   H     0.64944   0.19592   0.56211   0.00000  Uiso   1.00
H266   H     0.90685   0.67348   0.55442   0.00000  Uiso   1.00
H267   H     0.88648   0.38251   0.10565   0.00000  Uiso   1.00
O268   O     0.49871   0.18080   0.54238   0.00000  Uiso   1.00
O269   O     0.83642   0.80735   0.53230   0.00000  Uiso   1.00
O270   O     0.80970   0.42560   0.25550   0.00000  Uiso   1.00
N271   N     0.50741   0.29327   0.62914   0.00000  Uiso   1.00
N272   N     0.74806   0.73975   0.62193   0.00000  Uiso   1.00
N273   N     0.72903   0.46774   0.13729   0.00000  Uiso   1.00
N274   N     0.61429   0.23523   0.59039   0.00000  Uiso   1.00
N275   N     0.85494   0.68171   0.58318   0.00000  Uiso   1.00
N276   N     0.83591   0.40970   0.09854   0.00000  Uiso   1.00
C277   C     0.50532   0.34793   0.20046   0.00000  Uiso   1.00
C278   C     0.43269   0.36168   0.25688   0.00000  Uiso   1.00
C279   C     0.40396   0.43277   0.28274   0.00000  Uiso   1.00
C280   C     0.33676   0.43319   0.33430   0.00000  Uiso   1.00
C281   C     0.22964   0.46492   0.41818   0.00000  Uiso   1.00
C282   C     0.55574   0.29536   0.25888   0.00000  Uiso   1.00
C283   C     0.63048   0.31069   0.28642   0.00000  Uiso   1.00
C284   C     0.66686   0.25527   0.33965   0.00000  Uiso   1.00
C285   C     0.75080   0.18401   0.42658   0.00000  Uiso   1.00
C286   C     0.48077   0.30061   0.11685   0.00000  Uiso   1.00
C287   C     0.49247   0.32035   0.02496   0.00000  Uiso   1.00
C288   C     0.46575   0.26934   0.95861   0.00000  Uiso   1.00
C289   C     0.43328   0.20624   0.82502   0.00000  Uiso   1.00
C290   C     0.43707   0.22223   0.24603   0.00000  Uiso   1.00
C291   C     0.39562   0.29340   0.28163   0.00000  Uiso   1.00
C292   C     0.32845   0.29371   0.33316   0.00000  Uiso   1.00
C293   C     0.29962   0.36479   0.35909   0.00000  Uiso   1.00
C294   C     0.51868   0.22708   0.28363   0.00000  Uiso   1.00
C295   C     0.55496   0.17162   0.33683   0.00000  Uiso   1.00
C296   C     0.62972   0.18687   0.36445   0.00000  Uiso   1.00
C297   C     0.44369   0.23234   0.14160   0.00000  Uiso   1.00
C298   C     0.41696   0.18128   0.07538   0.00000  Uiso   1.00
C299   C     0.42861   0.20094   0.98341   0.00000  Uiso   1.00
H300   H     0.53419   0.40108   0.18119   0.00000  Uiso   1.00
H301   H     0.43267   0.48560   0.26358   0.00000  Uiso   1.00
H302   H     0.65915   0.36353   0.26724   0.00000  Uiso   1.00
H303   H     0.52116   0.37319   0.00583   0.00000  Uiso   1.00
H304   H     0.30378   0.54919   0.36587   0.00000  Uiso   1.00
H305   H     0.78134   0.29179   0.37357   0.00000  Uiso   1.00
H306   H     0.49037   0.31216   0.82233   0.00000  Uiso   1.00
H307   H     0.40821   0.16907   0.26530   0.00000  Uiso   1.00
H308   H     0.29977   0.24086   0.35230   0.00000  Uiso   1.00
H309   H     0.52626   0.11879   0.35597   0.00000  Uiso   1.00
H310   H     0.38827   0.12845   0.09456   0.00000  Uiso   1.00
H311   H     0.19592   0.35056   0.43789   0.00000  Uiso   1.00
H312   H     0.67348   0.09315   0.44558   0.00000  Uiso   1.00
H313   H     0.38251   0.11352   0.89435   0.00000  Uiso   1.00
O314   O     0.18080   0.50129   0.45762   0.00000  Uiso   1.00
O315   O     0.80735   0.16358   0.46770   0.00000  Uiso   1.00
O316   O     0.42560   0.19030   0.74450   0.00000  Uiso   1.00
N317   N     0.29327   0.49259   0.37086   0.00000  Uiso   1.00
N318   N     0.73975   0.25194   0.37807   0.00000  Uiso   1.00
N319   N     0.46774   0.27097   0.86271   0.00000  Uiso   1.00
N320   N     0.23523   0.38571   0.40961   0.00000  Uiso   1.00
N321   N     0.68171   0.14506   0.41682   0.00000  Uiso   1.00
N322   N     0.40970   0.16409   0.90146   0.00000  Uiso   1.00
C323   C     0.49468   0.65207   0.20046   0.00000  Uiso   1.00
C324   C     0.56731   0.63832   0.25688   0.00000  Uiso   1.00
C325   C     0.59604   0.56723   0.28274   0.00000  Uiso   1.00
C326   C     0.66324   0.56681   0.33430   0.00000  Uiso   1.00
C327   C     0.77036   0.53508   0.41818   0.00000  Uiso   1.00
C328   C     0.44426   0.70464   0.25888   0.00000  Uiso   1.00
C329   C     0.36952   0.68931   0.28642   0.00000  Uiso   1.00
C330   C     0.33314   0.74473   0.33965   0.00000  Uiso   1.00
C331   C     0.24920   0.81599   0.42658   0.00000  Uiso   1.00
C332   C     0.51923   0.69939   0.11685   0.00000  Uiso   1.00
C333   C     0.50753   0.67965   0.02496   0.00000  Uiso   1.00
C334   C     0.53425   0.73066   0.95861   0.00000  Uiso   1.00
C335   C     0.56672   0.79376   0.82502   0.00000  Uiso   1.00
C336   C     0.56293   0.77777   0.24603   0.00000  Uiso   1.00
C337   C     0.60438   0.70660   0.28163   0.00000  Uiso   1.00
C338   C     0.67155   0.70629   0.33316   0.00000  Uiso   1.00
C339   C     0.70038   0.63521   0.35909   0.00000  Uiso   1.00
C340   C     0.48132   0.77292   0.28363   0.00000  Uiso   1.00
C341   C     0.44504   0.82838   0.33683   0.00000  Uiso   1.00
C342   C     0.37028   0.81313   0.36445   0.00000  Uiso   1.00
C343   C     0.55631   0.76766   0.14160   0.00000  Uiso   1.00
C344   C     0.58304   0.81872   0.07538   0.00000  Uiso   1.00
C345   C     0.57139   0.79906   0.98341   0.00000  Uiso   1.00
H346   H     0.46581   0.59892   0.18119   0.00000  Uiso   1.00
H347   H     0.56733   0.51440   0.26358   0.00000  Uiso   1.00
H348   H     0.34085   0.63647   0.26724   0.00000  Uiso   1.00
H349   H     0.47884   0.62681   0.00583   0.00000  Uiso   1.00
H350   H     0.69622   0.45081   0.36587   0.00000  Uiso   1.00
H351   H     0.21866   0.70821   0.37357   0.00000  Uiso   1.00
H352   H     0.50963   0.68784   0.82233   0.00000  Uiso   1.00
H353   H     0.59179   0.83093   0.26530   0.00000  Uiso   1.00
H354   H     0.70023   0.75914   0.35230   0.00000  Uiso   1.00
H355   H     0.47374   0.88121   0.35597   0.00000  Uiso   1.00
H356   H     0.61173   0.87155   0.09456   0.00000  Uiso   1.00
H357   H     0.80408   0.64944   0.43789   0.00000  Uiso   1.00
H358   H     0.32652   0.90685   0.44558   0.00000  Uiso   1.00
H359   H     0.61749   0.88648   0.89435   0.00000  Uiso   1.00
O360   O     0.81920   0.49871   0.45762   0.00000  Uiso   1.00
O361   O     0.19265   0.83642   0.46770   0.00000  Uiso   1.00
O362   O     0.57440   0.80970   0.74450   0.00000  Uiso   1.00
N363   N     0.70673   0.50741   0.37086   0.00000  Uiso   1.00
N364   N     0.26025   0.74806   0.37807   0.00000  Uiso   1.00
N365   N     0.53226   0.72903   0.86271   0.00000  Uiso   1.00
N366   N     0.76477   0.61429   0.40961   0.00000  Uiso   1.00
N367   N     0.31829   0.85494   0.41682   0.00000  Uiso   1.00
N368   N     0.59030   0.83591   0.90146   0.00000  Uiso   1.00
