data_job_02272
_audit_creation_date              2018-12-19
_audit_creation_method            'Materials Studio'
_symmetry_space_group_name_H-M    'P1'
_symmetry_Int_Tables_number       1
_symmetry_cell_setting            triclinic
loop_
_symmetry_equiv_pos_as_xyz
  x,y,z
_cell_length_a                    20.3804
_cell_length_b                    32.2733
_cell_length_c                    8.8750
_cell_angle_alpha                 90.0000
_cell_angle_beta                  90.0000
_cell_angle_gamma                 90.0000
loop_
_atom_site_label
_atom_site_type_symbol
_atom_site_fract_x
_atom_site_fract_y
_atom_site_fract_z
_atom_site_U_iso_or_equiv
_atom_site_adp_type
_atom_site_occupancy
C1     C     0.58103   0.40270   0.13478   0.00000  Uiso   1.00
C2     C     0.63257   0.36874   0.15098   0.00000  Uiso   1.00
C3     C     0.65730   0.35363   0.28591   0.00000  Uiso   1.00
C4     C     0.70419   0.32252   0.27680   0.00000  Uiso   1.00
C5     C     0.78099   0.27215   0.32311   0.00000  Uiso   1.00
C6     C     0.61196   0.43600   0.03572   0.00000  Uiso   1.00
C7     C     0.61935   0.47745   0.07375   0.00000  Uiso   1.00
C8     C     0.64888   0.50297   0.96760   0.00000  Uiso   1.00
C9     C     0.69365   0.55703   0.83493   0.00000  Uiso   1.00
C10    C     0.52549   0.38391   0.04212   0.00000  Uiso   1.00
C11    C     0.46017   0.38158   0.08551   0.00000  Uiso   1.00
C12    C     0.41689   0.36324   0.98473   0.00000  Uiso   1.00
C13    C     0.32740   0.33643   0.86200   0.00000  Uiso   1.00
C14    C     0.62032   0.37432   0.87865   0.00000  Uiso   1.00
C15    C     0.65391   0.35332   0.01185   0.00000  Uiso   1.00
C16    C     0.70077   0.32223   0.00253   0.00000  Uiso   1.00
C17    C     0.72556   0.30708   0.13743   0.00000  Uiso   1.00
C18    C     0.63330   0.42059   0.89660   0.00000  Uiso   1.00
C19    C     0.66282   0.44605   0.79037   0.00000  Uiso   1.00
C20    C     0.67026   0.48752   0.82823   0.00000  Uiso   1.00
C21    C     0.54683   0.36849   0.90300   0.00000  Uiso   1.00
C22    C     0.50364   0.35017   0.80213   0.00000  Uiso   1.00
C23    C     0.43827   0.34780   0.84536   0.00000  Uiso   1.00
H24    H     0.56442   0.41471   0.24309   0.00000  Uiso   1.00
H25    H     0.64078   0.36558   0.39355   0.00000  Uiso   1.00
H26    H     0.60283   0.48938   0.18141   0.00000  Uiso   1.00
H27    H     0.44367   0.39351   0.19317   0.00000  Uiso   1.00
H28    H     0.73487   0.30431   0.49902   0.00000  Uiso   1.00
H29    H     0.65483   0.56536   0.05169   0.00000  Uiso   1.00
H30    H     0.31922   0.36321   0.07649   0.00000  Uiso   1.00
H31    H     0.63693   0.36231   0.77033   0.00000  Uiso   1.00
H32    H     0.71727   0.31030   0.89486   0.00000  Uiso   1.00
H33    H     0.67932   0.43411   0.68272   0.00000  Uiso   1.00
H34    H     0.52017   0.33824   0.69448   0.00000  Uiso   1.00
H35    H     0.79695   0.25945   0.09426   0.00000  Uiso   1.00
H36    H     0.71691   0.52050   0.64692   0.00000  Uiso   1.00
H37    H     0.38131   0.31835   0.67173   0.00000  Uiso   1.00
O38    O     0.81747   0.24863   0.38709   0.00000  Uiso   1.00
O39    O     0.71245   0.59111   0.80019   0.00000  Uiso   1.00
O40    O     0.27214   0.32589   0.83274   0.00000  Uiso   1.00
N41    N     0.73844   0.30089   0.38667   0.00000  Uiso   1.00
N42    N     0.66362   0.54495   0.96845   0.00000  Uiso   1.00
N43    N     0.34985   0.35596   0.99162   0.00000  Uiso   1.00
N44    N     0.77185   0.27675   0.16887   0.00000  Uiso   1.00
N45    N     0.69703   0.52081   0.75065   0.00000  Uiso   1.00
N46    N     0.38326   0.33182   0.77382   0.00000  Uiso   1.00
C47    C     0.91897   0.59730   0.63478   0.00000  Uiso   1.00
C48    C     0.86743   0.63126   0.65098   0.00000  Uiso   1.00
C49    C     0.84270   0.64637   0.78591   0.00000  Uiso   1.00
C50    C     0.79581   0.67748   0.77680   0.00000  Uiso   1.00
C51    C     0.71901   0.72785   0.82311   0.00000  Uiso   1.00
C52    C     0.88804   0.56400   0.53572   0.00000  Uiso   1.00
C53    C     0.88065   0.52255   0.57375   0.00000  Uiso   1.00
C54    C     0.85112   0.49703   0.46760   0.00000  Uiso   1.00
C55    C     0.80635   0.44297   0.33493   0.00000  Uiso   1.00
C56    C     0.97451   0.61609   0.54212   0.00000  Uiso   1.00
C57    C     0.03983   0.61842   0.58551   0.00000  Uiso   1.00
C58    C     0.08311   0.63676   0.48473   0.00000  Uiso   1.00
C59    C     0.17260   0.66357   0.36200   0.00000  Uiso   1.00
C60    C     0.87968   0.62568   0.37865   0.00000  Uiso   1.00
C61    C     0.84609   0.64668   0.51185   0.00000  Uiso   1.00
C62    C     0.79923   0.67777   0.50253   0.00000  Uiso   1.00
C63    C     0.77444   0.69292   0.63743   0.00000  Uiso   1.00
C64    C     0.86670   0.57941   0.39660   0.00000  Uiso   1.00
C65    C     0.83718   0.55395   0.29037   0.00000  Uiso   1.00
C66    C     0.82974   0.51248   0.32823   0.00000  Uiso   1.00
C67    C     0.95317   0.63151   0.40300   0.00000  Uiso   1.00
C68    C     0.99636   0.64983   0.30213   0.00000  Uiso   1.00
C69    C     0.06173   0.65220   0.34536   0.00000  Uiso   1.00
H70    H     0.93558   0.58529   0.74309   0.00000  Uiso   1.00
H71    H     0.85922   0.63442   0.89355   0.00000  Uiso   1.00
H72    H     0.89717   0.51062   0.68141   0.00000  Uiso   1.00
H73    H     0.05633   0.60649   0.69317   0.00000  Uiso   1.00
H74    H     0.76513   0.69569   0.99902   0.00000  Uiso   1.00
H75    H     0.84517   0.43464   0.55169   0.00000  Uiso   1.00
H76    H     0.18078   0.63679   0.57649   0.00000  Uiso   1.00
H77    H     0.86307   0.63769   0.27033   0.00000  Uiso   1.00
H78    H     0.78273   0.68970   0.39486   0.00000  Uiso   1.00
H79    H     0.82068   0.56589   0.18272   0.00000  Uiso   1.00
H80    H     0.97983   0.66176   0.19448   0.00000  Uiso   1.00
H81    H     0.70305   0.74055   0.59426   0.00000  Uiso   1.00
H82    H     0.78309   0.47950   0.14692   0.00000  Uiso   1.00
H83    H     0.11869   0.68165   0.17173   0.00000  Uiso   1.00
O84    O     0.68253   0.75137   0.88709   0.00000  Uiso   1.00
O85    O     0.78755   0.40889   0.30019   0.00000  Uiso   1.00
O86    O     0.22786   0.67411   0.33274   0.00000  Uiso   1.00
N87    N     0.76156   0.69911   0.88667   0.00000  Uiso   1.00
N88    N     0.83638   0.45505   0.46845   0.00000  Uiso   1.00
N89    N     0.15015   0.64404   0.49162   0.00000  Uiso   1.00
N90    N     0.72815   0.72325   0.66887   0.00000  Uiso   1.00
N91    N     0.80297   0.47919   0.25065   0.00000  Uiso   1.00
N92    N     0.11674   0.66818   0.27382   0.00000  Uiso   1.00
C93    C     0.41897   0.90270   0.36522   0.00000  Uiso   1.00
C94    C     0.36743   0.86874   0.34902   0.00000  Uiso   1.00
C95    C     0.34270   0.85363   0.21409   0.00000  Uiso   1.00
C96    C     0.29581   0.82252   0.22320   0.00000  Uiso   1.00
C97    C     0.21901   0.77215   0.17689   0.00000  Uiso   1.00
C98    C     0.38804   0.93600   0.46428   0.00000  Uiso   1.00
C99    C     0.38065   0.97745   0.42625   0.00000  Uiso   1.00
C100   C     0.35112   0.00297   0.53240   0.00000  Uiso   1.00
C101   C     0.30635   0.05703   0.66507   0.00000  Uiso   1.00
C102   C     0.47451   0.88391   0.45788   0.00000  Uiso   1.00
C103   C     0.53983   0.88158   0.41449   0.00000  Uiso   1.00
C104   C     0.58311   0.86324   0.51527   0.00000  Uiso   1.00
C105   C     0.67260   0.83643   0.63800   0.00000  Uiso   1.00
C106   C     0.37968   0.87432   0.62135   0.00000  Uiso   1.00
C107   C     0.34609   0.85332   0.48815   0.00000  Uiso   1.00
C108   C     0.29923   0.82223   0.49747   0.00000  Uiso   1.00
C109   C     0.27444   0.80708   0.36257   0.00000  Uiso   1.00
C110   C     0.36670   0.92059   0.60340   0.00000  Uiso   1.00
C111   C     0.33718   0.94605   0.70963   0.00000  Uiso   1.00
C112   C     0.32974   0.98752   0.67177   0.00000  Uiso   1.00
C113   C     0.45317   0.86849   0.59700   0.00000  Uiso   1.00
C114   C     0.49636   0.85017   0.69787   0.00000  Uiso   1.00
C115   C     0.56173   0.84780   0.65464   0.00000  Uiso   1.00
H116   H     0.43558   0.91471   0.25691   0.00000  Uiso   1.00
H117   H     0.35922   0.86558   0.10645   0.00000  Uiso   1.00
H118   H     0.39717   0.98938   0.31859   0.00000  Uiso   1.00
H119   H     0.55633   0.89351   0.30683   0.00000  Uiso   1.00
H120   H     0.26513   0.80431   0.00098   0.00000  Uiso   1.00
H121   H     0.34517   0.06536   0.44831   0.00000  Uiso   1.00
H122   H     0.68078   0.86321   0.42351   0.00000  Uiso   1.00
H123   H     0.36307   0.86231   0.72967   0.00000  Uiso   1.00
H124   H     0.28273   0.81030   0.60514   0.00000  Uiso   1.00
H125   H     0.32068   0.93411   0.81728   0.00000  Uiso   1.00
H126   H     0.47983   0.83824   0.80552   0.00000  Uiso   1.00
H127   H     0.20305   0.75945   0.40574   0.00000  Uiso   1.00
H128   H     0.28309   0.02050   0.85308   0.00000  Uiso   1.00
H129   H     0.61869   0.81835   0.82827   0.00000  Uiso   1.00
O130   O     0.18253   0.74863   0.11291   0.00000  Uiso   1.00
O131   O     0.28755   0.09111   0.69981   0.00000  Uiso   1.00
O132   O     0.72786   0.82589   0.66726   0.00000  Uiso   1.00
N133   N     0.26156   0.80089   0.11333   0.00000  Uiso   1.00
N134   N     0.33638   0.04495   0.53155   0.00000  Uiso   1.00
N135   N     0.65015   0.85596   0.50838   0.00000  Uiso   1.00
N136   N     0.22815   0.77675   0.33113   0.00000  Uiso   1.00
N137   N     0.30297   0.02081   0.74935   0.00000  Uiso   1.00
N138   N     0.61674   0.83182   0.72618   0.00000  Uiso   1.00
C139   C     0.08103   0.09730   0.86522   0.00000  Uiso   1.00
C140   C     0.13257   0.13126   0.84902   0.00000  Uiso   1.00
C141   C     0.15730   0.14637   0.71409   0.00000  Uiso   1.00
C142   C     0.20419   0.17748   0.72320   0.00000  Uiso   1.00
C143   C     0.28099   0.22785   0.67689   0.00000  Uiso   1.00
C144   C     0.11196   0.06400   0.96428   0.00000  Uiso   1.00
C145   C     0.11935   0.02255   0.92625   0.00000  Uiso   1.00
C146   C     0.14888   0.99703   0.03240   0.00000  Uiso   1.00
C147   C     0.19365   0.94297   0.16507   0.00000  Uiso   1.00
C148   C     0.02549   0.11609   0.95788   0.00000  Uiso   1.00
C149   C     0.96017   0.11842   0.91449   0.00000  Uiso   1.00
C150   C     0.91689   0.13676   0.01527   0.00000  Uiso   1.00
C151   C     0.82740   0.16357   0.13800   0.00000  Uiso   1.00
C152   C     0.12032   0.12568   0.12135   0.00000  Uiso   1.00
C153   C     0.15391   0.14668   0.98815   0.00000  Uiso   1.00
C154   C     0.20077   0.17777   0.99747   0.00000  Uiso   1.00
C155   C     0.22556   0.19292   0.86257   0.00000  Uiso   1.00
C156   C     0.13330   0.07941   0.10340   0.00000  Uiso   1.00
C157   C     0.16282   0.05395   0.20963   0.00000  Uiso   1.00
C158   C     0.17026   0.01248   0.17177   0.00000  Uiso   1.00
C159   C     0.04683   0.13151   0.09700   0.00000  Uiso   1.00
C160   C     0.00364   0.14983   0.19787   0.00000  Uiso   1.00
C161   C     0.93827   0.15220   0.15464   0.00000  Uiso   1.00
H162   H     0.06442   0.08529   0.75691   0.00000  Uiso   1.00
H163   H     0.14078   0.13442   0.60645   0.00000  Uiso   1.00
H164   H     0.10283   0.01062   0.81859   0.00000  Uiso   1.00
H165   H     0.94367   0.10649   0.80683   0.00000  Uiso   1.00
H166   H     0.23487   0.19569   0.50098   0.00000  Uiso   1.00
H167   H     0.15483   0.93464   0.94831   0.00000  Uiso   1.00
H168   H     0.81922   0.13679   0.92351   0.00000  Uiso   1.00
H169   H     0.13693   0.13769   0.22967   0.00000  Uiso   1.00
H170   H     0.21727   0.18970   0.10514   0.00000  Uiso   1.00
H171   H     0.17932   0.06589   0.31728   0.00000  Uiso   1.00
H172   H     0.02017   0.16176   0.30552   0.00000  Uiso   1.00
H173   H     0.29695   0.24055   0.90574   0.00000  Uiso   1.00
H174   H     0.21691   0.97950   0.35308   0.00000  Uiso   1.00
H175   H     0.88131   0.18165   0.32827   0.00000  Uiso   1.00
O176   O     0.31747   0.25137   0.61291   0.00000  Uiso   1.00
O177   O     0.21245   0.90889   0.19981   0.00000  Uiso   1.00
O178   O     0.77214   0.17411   0.16726   0.00000  Uiso   1.00
N179   N     0.23844   0.19911   0.61333   0.00000  Uiso   1.00
N180   N     0.16362   0.95505   0.03155   0.00000  Uiso   1.00
N181   N     0.84985   0.14404   0.00838   0.00000  Uiso   1.00
N182   N     0.27185   0.22325   0.83113   0.00000  Uiso   1.00
N183   N     0.19703   0.97919   0.24935   0.00000  Uiso   1.00
N184   N     0.88326   0.16818   0.22618   0.00000  Uiso   1.00
C185   C     0.41897   0.59730   0.86522   0.00000  Uiso   1.00
C186   C     0.36743   0.63126   0.84902   0.00000  Uiso   1.00
C187   C     0.34270   0.64637   0.71409   0.00000  Uiso   1.00
C188   C     0.29581   0.67748   0.72320   0.00000  Uiso   1.00
C189   C     0.21901   0.72785   0.67689   0.00000  Uiso   1.00
C190   C     0.38804   0.56400   0.96428   0.00000  Uiso   1.00
C191   C     0.38065   0.52255   0.92625   0.00000  Uiso   1.00
C192   C     0.35112   0.49703   0.03240   0.00000  Uiso   1.00
C193   C     0.30635   0.44297   0.16507   0.00000  Uiso   1.00
C194   C     0.47451   0.61609   0.95788   0.00000  Uiso   1.00
C195   C     0.53983   0.61842   0.91449   0.00000  Uiso   1.00
C196   C     0.58311   0.63676   0.01527   0.00000  Uiso   1.00
C197   C     0.67260   0.66357   0.13800   0.00000  Uiso   1.00
C198   C     0.37968   0.62568   0.12135   0.00000  Uiso   1.00
C199   C     0.34609   0.64668   0.98815   0.00000  Uiso   1.00
C200   C     0.29923   0.67777   0.99747   0.00000  Uiso   1.00
C201   C     0.27444   0.69292   0.86257   0.00000  Uiso   1.00
C202   C     0.36670   0.57941   0.10340   0.00000  Uiso   1.00
C203   C     0.33718   0.55395   0.20963   0.00000  Uiso   1.00
C204   C     0.32974   0.51248   0.17177   0.00000  Uiso   1.00
C205   C     0.45317   0.63151   0.09700   0.00000  Uiso   1.00
C206   C     0.49636   0.64983   0.19787   0.00000  Uiso   1.00
C207   C     0.56173   0.65220   0.15464   0.00000  Uiso   1.00
H208   H     0.43558   0.58529   0.75691   0.00000  Uiso   1.00
H209   H     0.35922   0.63442   0.60645   0.00000  Uiso   1.00
H210   H     0.39717   0.51062   0.81859   0.00000  Uiso   1.00
H211   H     0.55633   0.60649   0.80683   0.00000  Uiso   1.00
H212   H     0.26513   0.69569   0.50098   0.00000  Uiso   1.00
H213   H     0.34517   0.43464   0.94831   0.00000  Uiso   1.00
H214   H     0.68078   0.63679   0.92351   0.00000  Uiso   1.00
H215   H     0.36307   0.63769   0.22967   0.00000  Uiso   1.00
H216   H     0.28273   0.68970   0.10514   0.00000  Uiso   1.00
H217   H     0.32068   0.56589   0.31728   0.00000  Uiso   1.00
H218   H     0.47983   0.66176   0.30552   0.00000  Uiso   1.00
H219   H     0.20305   0.74055   0.90574   0.00000  Uiso   1.00
H220   H     0.28309   0.47950   0.35308   0.00000  Uiso   1.00
H221   H     0.61869   0.68165   0.32827   0.00000  Uiso   1.00
O222   O     0.18253   0.75137   0.61291   0.00000  Uiso   1.00
O223   O     0.28755   0.40889   0.19981   0.00000  Uiso   1.00
O224   O     0.72786   0.67411   0.16726   0.00000  Uiso   1.00
N225   N     0.26156   0.69911   0.61333   0.00000  Uiso   1.00
N226   N     0.33638   0.45505   0.03155   0.00000  Uiso   1.00
N227   N     0.65015   0.64404   0.00838   0.00000  Uiso   1.00
N228   N     0.22815   0.72325   0.83113   0.00000  Uiso   1.00
N229   N     0.30297   0.47919   0.24935   0.00000  Uiso   1.00
N230   N     0.61674   0.66818   0.22618   0.00000  Uiso   1.00
C231   C     0.08103   0.40270   0.36522   0.00000  Uiso   1.00
C232   C     0.13257   0.36874   0.34902   0.00000  Uiso   1.00
C233   C     0.15730   0.35363   0.21409   0.00000  Uiso   1.00
C234   C     0.20419   0.32252   0.22320   0.00000  Uiso   1.00
C235   C     0.28099   0.27215   0.17689   0.00000  Uiso   1.00
C236   C     0.11196   0.43600   0.46428   0.00000  Uiso   1.00
C237   C     0.11935   0.47745   0.42625   0.00000  Uiso   1.00
C238   C     0.14888   0.50297   0.53240   0.00000  Uiso   1.00
C239   C     0.19365   0.55703   0.66507   0.00000  Uiso   1.00
C240   C     0.02549   0.38391   0.45788   0.00000  Uiso   1.00
C241   C     0.96017   0.38158   0.41449   0.00000  Uiso   1.00
C242   C     0.91689   0.36324   0.51527   0.00000  Uiso   1.00
C243   C     0.82740   0.33643   0.63800   0.00000  Uiso   1.00
C244   C     0.12032   0.37432   0.62135   0.00000  Uiso   1.00
C245   C     0.15391   0.35332   0.48815   0.00000  Uiso   1.00
C246   C     0.20077   0.32223   0.49747   0.00000  Uiso   1.00
C247   C     0.22556   0.30708   0.36257   0.00000  Uiso   1.00
C248   C     0.13330   0.42059   0.60340   0.00000  Uiso   1.00
C249   C     0.16282   0.44605   0.70963   0.00000  Uiso   1.00
C250   C     0.17026   0.48752   0.67177   0.00000  Uiso   1.00
C251   C     0.04683   0.36849   0.59700   0.00000  Uiso   1.00
C252   C     0.00364   0.35017   0.69787   0.00000  Uiso   1.00
C253   C     0.93827   0.34780   0.65464   0.00000  Uiso   1.00
H254   H     0.06442   0.41471   0.25691   0.00000  Uiso   1.00
H255   H     0.14078   0.36558   0.10645   0.00000  Uiso   1.00
H256   H     0.10283   0.48938   0.31859   0.00000  Uiso   1.00
H257   H     0.94367   0.39351   0.30683   0.00000  Uiso   1.00
H258   H     0.23487   0.30431   0.00098   0.00000  Uiso   1.00
H259   H     0.15483   0.56536   0.44831   0.00000  Uiso   1.00
H260   H     0.81922   0.36321   0.42351   0.00000  Uiso   1.00
H261   H     0.13693   0.36231   0.72967   0.00000  Uiso   1.00
H262   H     0.21727   0.31030   0.60514   0.00000  Uiso   1.00
H263   H     0.17932   0.43411   0.81728   0.00000  Uiso   1.00
H264   H     0.02017   0.33824   0.80552   0.00000  Uiso   1.00
H265   H     0.29695   0.25945   0.40574   0.00000  Uiso   1.00
H266   H     0.21691   0.52050   0.85308   0.00000  Uiso   1.00
H267   H     0.88131   0.31835   0.82827   0.00000  Uiso   1.00
O268   O     0.31747   0.24863   0.11291   0.00000  Uiso   1.00
O269   O     0.21245   0.59111   0.69981   0.00000  Uiso   1.00
O270   O     0.77214   0.32589   0.66726   0.00000  Uiso   1.00
N271   N     0.23844   0.30089   0.11333   0.00000  Uiso   1.00
N272   N     0.16362   0.54495   0.53155   0.00000  Uiso   1.00
N273   N     0.84985   0.35596   0.50838   0.00000  Uiso   1.00
N274   N     0.27185   0.27675   0.33113   0.00000  Uiso   1.00
N275   N     0.19703   0.52081   0.74935   0.00000  Uiso   1.00
N276   N     0.88326   0.33182   0.72618   0.00000  Uiso   1.00
C277   C     0.58103   0.09730   0.63478   0.00000  Uiso   1.00
C278   C     0.63257   0.13126   0.65098   0.00000  Uiso   1.00
C279   C     0.65730   0.14637   0.78591   0.00000  Uiso   1.00
C280   C     0.70419   0.17748   0.77680   0.00000  Uiso   1.00
C281   C     0.78099   0.22785   0.82311   0.00000  Uiso   1.00
C282   C     0.61196   0.06400   0.53572   0.00000  Uiso   1.00
C283   C     0.61935   0.02255   0.57375   0.00000  Uiso   1.00
C284   C     0.64888   0.99703   0.46760   0.00000  Uiso   1.00
C285   C     0.69365   0.94297   0.33493   0.00000  Uiso   1.00
C286   C     0.52549   0.11609   0.54212   0.00000  Uiso   1.00
C287   C     0.46017   0.11842   0.58551   0.00000  Uiso   1.00
C288   C     0.41689   0.13676   0.48473   0.00000  Uiso   1.00
C289   C     0.32740   0.16357   0.36200   0.00000  Uiso   1.00
C290   C     0.62032   0.12568   0.37865   0.00000  Uiso   1.00
C291   C     0.65391   0.14668   0.51185   0.00000  Uiso   1.00
C292   C     0.70077   0.17777   0.50253   0.00000  Uiso   1.00
C293   C     0.72556   0.19292   0.63743   0.00000  Uiso   1.00
C294   C     0.63330   0.07941   0.39660   0.00000  Uiso   1.00
C295   C     0.66282   0.05395   0.29037   0.00000  Uiso   1.00
C296   C     0.67026   0.01248   0.32823   0.00000  Uiso   1.00
C297   C     0.54683   0.13151   0.40300   0.00000  Uiso   1.00
C298   C     0.50364   0.14983   0.30213   0.00000  Uiso   1.00
C299   C     0.43827   0.15220   0.34536   0.00000  Uiso   1.00
H300   H     0.56442   0.08529   0.74309   0.00000  Uiso   1.00
H301   H     0.64078   0.13442   0.89355   0.00000  Uiso   1.00
H302   H     0.60283   0.01062   0.68141   0.00000  Uiso   1.00
H303   H     0.44367   0.10649   0.69317   0.00000  Uiso   1.00
H304   H     0.73487   0.19569   0.99902   0.00000  Uiso   1.00
H305   H     0.65483   0.93464   0.55169   0.00000  Uiso   1.00
H306   H     0.31922   0.13679   0.57649   0.00000  Uiso   1.00
H307   H     0.63693   0.13769   0.27033   0.00000  Uiso   1.00
H308   H     0.71727   0.18970   0.39486   0.00000  Uiso   1.00
H309   H     0.67932   0.06589   0.18272   0.00000  Uiso   1.00
H310   H     0.52017   0.16176   0.19448   0.00000  Uiso   1.00
H311   H     0.79695   0.24055   0.59426   0.00000  Uiso   1.00
H312   H     0.71691   0.97950   0.14692   0.00000  Uiso   1.00
H313   H     0.38131   0.18165   0.17173   0.00000  Uiso   1.00
O314   O     0.81747   0.25137   0.88709   0.00000  Uiso   1.00
O315   O     0.71245   0.90889   0.30019   0.00000  Uiso   1.00
O316   O     0.27214   0.17411   0.33274   0.00000  Uiso   1.00
N317   N     0.73844   0.19911   0.88667   0.00000  Uiso   1.00
N318   N     0.66362   0.95505   0.46845   0.00000  Uiso   1.00
N319   N     0.34985   0.14404   0.49162   0.00000  Uiso   1.00
N320   N     0.77185   0.22325   0.66887   0.00000  Uiso   1.00
N321   N     0.69703   0.97919   0.25065   0.00000  Uiso   1.00
N322   N     0.38326   0.16818   0.27382   0.00000  Uiso   1.00
C323   C     0.91897   0.90270   0.13478   0.00000  Uiso   1.00
C324   C     0.86743   0.86874   0.15098   0.00000  Uiso   1.00
C325   C     0.84270   0.85363   0.28591   0.00000  Uiso   1.00
C326   C     0.79581   0.82252   0.27680   0.00000  Uiso   1.00
C327   C     0.71901   0.77215   0.32311   0.00000  Uiso   1.00
C328   C     0.88804   0.93600   0.03572   0.00000  Uiso   1.00
C329   C     0.88065   0.97745   0.07375   0.00000  Uiso   1.00
C330   C     0.85112   0.00297   0.96760   0.00000  Uiso   1.00
C331   C     0.80635   0.05703   0.83493   0.00000  Uiso   1.00
C332   C     0.97451   0.88391   0.04212   0.00000  Uiso   1.00
C333   C     0.03983   0.88158   0.08551   0.00000  Uiso   1.00
C334   C     0.08311   0.86324   0.98473   0.00000  Uiso   1.00
C335   C     0.17260   0.83643   0.86200   0.00000  Uiso   1.00
C336   C     0.87968   0.87432   0.87865   0.00000  Uiso   1.00
C337   C     0.84609   0.85332   0.01185   0.00000  Uiso   1.00
C338   C     0.79923   0.82223   0.00253   0.00000  Uiso   1.00
C339   C     0.77444   0.80708   0.13743   0.00000  Uiso   1.00
C340   C     0.86670   0.92059   0.89660   0.00000  Uiso   1.00
C341   C     0.83718   0.94605   0.79037   0.00000  Uiso   1.00
C342   C     0.82974   0.98752   0.82823   0.00000  Uiso   1.00
C343   C     0.95317   0.86849   0.90300   0.00000  Uiso   1.00
C344   C     0.99636   0.85017   0.80213   0.00000  Uiso   1.00
C345   C     0.06173   0.84780   0.84536   0.00000  Uiso   1.00
H346   H     0.93558   0.91471   0.24309   0.00000  Uiso   1.00
H347   H     0.85922   0.86558   0.39355   0.00000  Uiso   1.00
H348   H     0.89717   0.98938   0.18141   0.00000  Uiso   1.00
H349   H     0.05633   0.89351   0.19317   0.00000  Uiso   1.00
H350   H     0.76513   0.80431   0.49902   0.00000  Uiso   1.00
H351   H     0.84517   0.06536   0.05169   0.00000  Uiso   1.00
H352   H     0.18078   0.86321   0.07649   0.00000  Uiso   1.00
H353   H     0.86307   0.86231   0.77033   0.00000  Uiso   1.00
H354   H     0.78273   0.81030   0.89486   0.00000  Uiso   1.00
H355   H     0.82068   0.93411   0.68272   0.00000  Uiso   1.00
H356   H     0.97983   0.83824   0.69448   0.00000  Uiso   1.00
H357   H     0.70305   0.75945   0.09426   0.00000  Uiso   1.00
H358   H     0.78309   0.02050   0.64692   0.00000  Uiso   1.00
H359   H     0.11869   0.81835   0.67173   0.00000  Uiso   1.00
O360   O     0.68253   0.74863   0.38709   0.00000  Uiso   1.00
O361   O     0.78755   0.09111   0.80019   0.00000  Uiso   1.00
O362   O     0.22786   0.82589   0.83274   0.00000  Uiso   1.00
N363   N     0.76156   0.80089   0.38667   0.00000  Uiso   1.00
N364   N     0.83638   0.04495   0.96845   0.00000  Uiso   1.00
N365   N     0.15015   0.85596   0.99162   0.00000  Uiso   1.00
N366   N     0.72815   0.77675   0.16887   0.00000  Uiso   1.00
N367   N     0.80297   0.02081   0.75065   0.00000  Uiso   1.00
N368   N     0.11674   0.83182   0.77382   0.00000  Uiso   1.00
