data_job_01495
_audit_creation_date              2018-12-19
_audit_creation_method            'Materials Studio'
_symmetry_space_group_name_H-M    'P1'
_symmetry_Int_Tables_number       1
_symmetry_cell_setting            triclinic
loop_
_symmetry_equiv_pos_as_xyz
  x,y,z
_cell_length_a                    22.4112
_cell_length_b                    11.6367
_cell_length_c                    23.1970
_cell_angle_alpha                 90.0000
_cell_angle_beta                  112.8580
_cell_angle_gamma                 90.0000
loop_
_atom_site_label
_atom_site_type_symbol
_atom_site_fract_x
_atom_site_fract_y
_atom_site_fract_z
_atom_site_U_iso_or_equiv
_atom_site_adp_type
_atom_site_occupancy
C1     C     0.85151   0.95089   0.28506   0.00000  Uiso   1.00
C2     C     0.85355   0.04780   0.24162   0.00000  Uiso   1.00
C3     C     0.80950   0.06443   0.18069   0.00000  Uiso   1.00
C4     C     0.81981   0.15816   0.14868   0.00000  Uiso   1.00
C5     C     0.81502   0.29730   0.07696   0.00000  Uiso   1.00
C6     C     0.91667   0.88983   0.30522   0.00000  Uiso   1.00
C7     C     0.92567   0.77363   0.29778   0.00000  Uiso   1.00
C8     C     0.98912   0.73439   0.31932   0.00000  Uiso   1.00
C9     C     0.08231   0.62826   0.34639   0.00000  Uiso   1.00
C10    C     0.85054   0.00885   0.34365   0.00000  Uiso   1.00
C11    C     0.80396   0.99270   0.36852   0.00000  Uiso   1.00
C12    C     0.81173   0.05364   0.42243   0.00000  Uiso   1.00
C13    C     0.80225   0.13231   0.50915   0.00000  Uiso   1.00
C14    C     0.94816   0.08781   0.33658   0.00000  Uiso   1.00
C15    C     0.90605   0.12217   0.26960   0.00000  Uiso   1.00
C16    C     0.91643   0.21591   0.23769   0.00000  Uiso   1.00
C17    C     0.87240   0.23267   0.17672   0.00000  Uiso   1.00
C18    C     0.96916   0.96420   0.33321   0.00000  Uiso   1.00
C19    C     0.03261   0.92512   0.35478   0.00000  Uiso   1.00
C20    C     0.04171   0.80889   0.34736   0.00000  Uiso   1.00
C21    C     0.90304   0.08322   0.37163   0.00000  Uiso   1.00
C22    C     0.91089   0.14419   0.42552   0.00000  Uiso   1.00
C23    C     0.86433   0.12815   0.45047   0.00000  Uiso   1.00
H24    H     0.81064   0.89298   0.26328   0.00000  Uiso   1.00
H25    H     0.76888   0.00684   0.15904   0.00000  Uiso   1.00
H26    H     0.88504   0.71610   0.27612   0.00000  Uiso   1.00
H27    H     0.76334   0.93514   0.34685   0.00000  Uiso   1.00
H28    H     0.74575   0.16586   0.05582   0.00000  Uiso   1.00
H29    H     0.99067   0.55279   0.30270   0.00000  Uiso   1.00
H30    H     0.73405   0.01468   0.45185   0.00000  Uiso   1.00
H31    H     0.98903   0.14571   0.35837   0.00000  Uiso   1.00
H32    H     0.95706   0.27345   0.25935   0.00000  Uiso   1.00
H33    H     0.07322   0.98270   0.37643   0.00000  Uiso   1.00
H34    H     0.95152   0.20174   0.44716   0.00000  Uiso   1.00
H35    H     0.89849   0.38224   0.13723   0.00000  Uiso   1.00
H36    H     0.14341   0.76917   0.38412   0.00000  Uiso   1.00
H37    H     0.88678   0.23106   0.53327   0.00000  Uiso   1.00
O38    O     0.79788   0.35349   0.02966   0.00000  Uiso   1.00
O39    O     0.11921   0.54918   0.35358   0.00000  Uiso   1.00
O40    O     0.78252   0.15517   0.54926   0.00000  Uiso   1.00
N41    N     0.78608   0.19926   0.08857   0.00000  Uiso   1.00
N42    N     0.01507   0.62609   0.31938   0.00000  Uiso   1.00
N43    N     0.77515   0.05789   0.45884   0.00000  Uiso   1.00
N44    N     0.86826   0.31570   0.13238   0.00000  Uiso   1.00
N45    N     0.09725   0.74252   0.36319   0.00000  Uiso   1.00
N46    N     0.85734   0.17433   0.50264   0.00000  Uiso   1.00
C47    C     0.35151   0.45089   0.28506   0.00000  Uiso   1.00
C48    C     0.35355   0.54780   0.24162   0.00000  Uiso   1.00
C49    C     0.30950   0.56443   0.18069   0.00000  Uiso   1.00
C50    C     0.31981   0.65816   0.14868   0.00000  Uiso   1.00
C51    C     0.31502   0.79730   0.07696   0.00000  Uiso   1.00
C52    C     0.41667   0.38983   0.30522   0.00000  Uiso   1.00
C53    C     0.42567   0.27363   0.29778   0.00000  Uiso   1.00
C54    C     0.48912   0.23439   0.31932   0.00000  Uiso   1.00
C55    C     0.58231   0.12826   0.34639   0.00000  Uiso   1.00
C56    C     0.35054   0.50885   0.34365   0.00000  Uiso   1.00
C57    C     0.30396   0.49270   0.36852   0.00000  Uiso   1.00
C58    C     0.31173   0.55364   0.42243   0.00000  Uiso   1.00
C59    C     0.30225   0.63231   0.50915   0.00000  Uiso   1.00
C60    C     0.44816   0.58781   0.33658   0.00000  Uiso   1.00
C61    C     0.40605   0.62217   0.26960   0.00000  Uiso   1.00
C62    C     0.41643   0.71591   0.23769   0.00000  Uiso   1.00
C63    C     0.37240   0.73267   0.17672   0.00000  Uiso   1.00
C64    C     0.46916   0.46420   0.33321   0.00000  Uiso   1.00
C65    C     0.53261   0.42512   0.35478   0.00000  Uiso   1.00
C66    C     0.54171   0.30889   0.34736   0.00000  Uiso   1.00
C67    C     0.40304   0.58322   0.37163   0.00000  Uiso   1.00
C68    C     0.41089   0.64419   0.42552   0.00000  Uiso   1.00
C69    C     0.36433   0.62815   0.45047   0.00000  Uiso   1.00
H70    H     0.31064   0.39298   0.26328   0.00000  Uiso   1.00
H71    H     0.26888   0.50684   0.15904   0.00000  Uiso   1.00
H72    H     0.38504   0.21610   0.27612   0.00000  Uiso   1.00
H73    H     0.26334   0.43514   0.34685   0.00000  Uiso   1.00
H74    H     0.24575   0.66586   0.05582   0.00000  Uiso   1.00
H75    H     0.49067   0.05279   0.30270   0.00000  Uiso   1.00
H76    H     0.23405   0.51468   0.45185   0.00000  Uiso   1.00
H77    H     0.48903   0.64571   0.35837   0.00000  Uiso   1.00
H78    H     0.45706   0.77345   0.25935   0.00000  Uiso   1.00
H79    H     0.57322   0.48270   0.37643   0.00000  Uiso   1.00
H80    H     0.45152   0.70174   0.44716   0.00000  Uiso   1.00
H81    H     0.39849   0.88224   0.13723   0.00000  Uiso   1.00
H82    H     0.64341   0.26917   0.38412   0.00000  Uiso   1.00
H83    H     0.38678   0.73106   0.53327   0.00000  Uiso   1.00
O84    O     0.29788   0.85349   0.02966   0.00000  Uiso   1.00
O85    O     0.61921   0.04918   0.35358   0.00000  Uiso   1.00
O86    O     0.28252   0.65517   0.54926   0.00000  Uiso   1.00
N87    N     0.28608   0.69926   0.08857   0.00000  Uiso   1.00
N88    N     0.51507   0.12609   0.31938   0.00000  Uiso   1.00
N89    N     0.27515   0.55789   0.45884   0.00000  Uiso   1.00
N90    N     0.36826   0.81570   0.13238   0.00000  Uiso   1.00
N91    N     0.59725   0.24252   0.36319   0.00000  Uiso   1.00
N92    N     0.35734   0.67433   0.50264   0.00000  Uiso   1.00
C93    C     0.14849   0.95089   0.21494   0.00000  Uiso   1.00
C94    C     0.14645   0.04780   0.25838   0.00000  Uiso   1.00
C95    C     0.19050   0.06443   0.31931   0.00000  Uiso   1.00
C96    C     0.18019   0.15816   0.35132   0.00000  Uiso   1.00
C97    C     0.18498   0.29730   0.42304   0.00000  Uiso   1.00
C98    C     0.08333   0.88983   0.19478   0.00000  Uiso   1.00
C99    C     0.07433   0.77363   0.20222   0.00000  Uiso   1.00
C100   C     0.01088   0.73439   0.18068   0.00000  Uiso   1.00
C101   C     0.91769   0.62826   0.15361   0.00000  Uiso   1.00
C102   C     0.14946   0.00885   0.15635   0.00000  Uiso   1.00
C103   C     0.19604   0.99270   0.13148   0.00000  Uiso   1.00
C104   C     0.18827   0.05364   0.07757   0.00000  Uiso   1.00
C105   C     0.19775   0.13231   0.99085   0.00000  Uiso   1.00
C106   C     0.05184   0.08781   0.16342   0.00000  Uiso   1.00
C107   C     0.09395   0.12217   0.23040   0.00000  Uiso   1.00
C108   C     0.08357   0.21591   0.26231   0.00000  Uiso   1.00
C109   C     0.12760   0.23267   0.32328   0.00000  Uiso   1.00
C110   C     0.03084   0.96420   0.16679   0.00000  Uiso   1.00
C111   C     0.96739   0.92512   0.14522   0.00000  Uiso   1.00
C112   C     0.95829   0.80889   0.15264   0.00000  Uiso   1.00
C113   C     0.09696   0.08322   0.12837   0.00000  Uiso   1.00
C114   C     0.08911   0.14419   0.07448   0.00000  Uiso   1.00
C115   C     0.13567   0.12815   0.04953   0.00000  Uiso   1.00
H116   H     0.18936   0.89298   0.23672   0.00000  Uiso   1.00
H117   H     0.23112   0.00684   0.34096   0.00000  Uiso   1.00
H118   H     0.11496   0.71610   0.22388   0.00000  Uiso   1.00
H119   H     0.23666   0.93514   0.15315   0.00000  Uiso   1.00
H120   H     0.25425   0.16586   0.44418   0.00000  Uiso   1.00
H121   H     0.00933   0.55279   0.19730   0.00000  Uiso   1.00
H122   H     0.26595   0.01468   0.04815   0.00000  Uiso   1.00
H123   H     0.01097   0.14571   0.14163   0.00000  Uiso   1.00
H124   H     0.04294   0.27345   0.24065   0.00000  Uiso   1.00
H125   H     0.92678   0.98270   0.12357   0.00000  Uiso   1.00
H126   H     0.04848   0.20174   0.05284   0.00000  Uiso   1.00
H127   H     0.10151   0.38224   0.36277   0.00000  Uiso   1.00
H128   H     0.85659   0.76917   0.11588   0.00000  Uiso   1.00
H129   H     0.11322   0.23106   0.96673   0.00000  Uiso   1.00
O130   O     0.20212   0.35349   0.47034   0.00000  Uiso   1.00
O131   O     0.88079   0.54918   0.14642   0.00000  Uiso   1.00
O132   O     0.21748   0.15517   0.95074   0.00000  Uiso   1.00
N133   N     0.21392   0.19926   0.41143   0.00000  Uiso   1.00
N134   N     0.98493   0.62609   0.18062   0.00000  Uiso   1.00
N135   N     0.22485   0.05789   0.04116   0.00000  Uiso   1.00
N136   N     0.13174   0.31570   0.36762   0.00000  Uiso   1.00
N137   N     0.90275   0.74252   0.13681   0.00000  Uiso   1.00
N138   N     0.14266   0.17433   0.99736   0.00000  Uiso   1.00
C139   C     0.64849   0.45089   0.21494   0.00000  Uiso   1.00
C140   C     0.64645   0.54780   0.25838   0.00000  Uiso   1.00
C141   C     0.69050   0.56443   0.31931   0.00000  Uiso   1.00
C142   C     0.68019   0.65816   0.35132   0.00000  Uiso   1.00
C143   C     0.68498   0.79730   0.42304   0.00000  Uiso   1.00
C144   C     0.58333   0.38983   0.19478   0.00000  Uiso   1.00
C145   C     0.57433   0.27363   0.20222   0.00000  Uiso   1.00
C146   C     0.51088   0.23439   0.18068   0.00000  Uiso   1.00
C147   C     0.41769   0.12826   0.15361   0.00000  Uiso   1.00
C148   C     0.64946   0.50885   0.15635   0.00000  Uiso   1.00
C149   C     0.69604   0.49270   0.13148   0.00000  Uiso   1.00
C150   C     0.68827   0.55364   0.07757   0.00000  Uiso   1.00
C151   C     0.69775   0.63231   0.99085   0.00000  Uiso   1.00
C152   C     0.55184   0.58781   0.16342   0.00000  Uiso   1.00
C153   C     0.59395   0.62217   0.23040   0.00000  Uiso   1.00
C154   C     0.58357   0.71591   0.26231   0.00000  Uiso   1.00
C155   C     0.62760   0.73267   0.32328   0.00000  Uiso   1.00
C156   C     0.53084   0.46420   0.16679   0.00000  Uiso   1.00
C157   C     0.46739   0.42512   0.14522   0.00000  Uiso   1.00
C158   C     0.45829   0.30889   0.15264   0.00000  Uiso   1.00
C159   C     0.59696   0.58322   0.12837   0.00000  Uiso   1.00
C160   C     0.58911   0.64419   0.07448   0.00000  Uiso   1.00
C161   C     0.63567   0.62815   0.04953   0.00000  Uiso   1.00
H162   H     0.68936   0.39298   0.23672   0.00000  Uiso   1.00
H163   H     0.73112   0.50684   0.34096   0.00000  Uiso   1.00
H164   H     0.61496   0.21610   0.22388   0.00000  Uiso   1.00
H165   H     0.73666   0.43514   0.15315   0.00000  Uiso   1.00
H166   H     0.75425   0.66586   0.44418   0.00000  Uiso   1.00
H167   H     0.50933   0.05279   0.19730   0.00000  Uiso   1.00
H168   H     0.76595   0.51468   0.04815   0.00000  Uiso   1.00
H169   H     0.51097   0.64571   0.14163   0.00000  Uiso   1.00
H170   H     0.54294   0.77345   0.24065   0.00000  Uiso   1.00
H171   H     0.42678   0.48270   0.12357   0.00000  Uiso   1.00
H172   H     0.54848   0.70174   0.05284   0.00000  Uiso   1.00
H173   H     0.60151   0.88224   0.36277   0.00000  Uiso   1.00
H174   H     0.35659   0.26917   0.11588   0.00000  Uiso   1.00
H175   H     0.61322   0.73106   0.96673   0.00000  Uiso   1.00
O176   O     0.70212   0.85349   0.47034   0.00000  Uiso   1.00
O177   O     0.38079   0.04918   0.14642   0.00000  Uiso   1.00
O178   O     0.71748   0.65517   0.95074   0.00000  Uiso   1.00
N179   N     0.71392   0.69926   0.41143   0.00000  Uiso   1.00
N180   N     0.48493   0.12609   0.18062   0.00000  Uiso   1.00
N181   N     0.72485   0.55789   0.04116   0.00000  Uiso   1.00
N182   N     0.63174   0.81570   0.36762   0.00000  Uiso   1.00
N183   N     0.40275   0.24252   0.13681   0.00000  Uiso   1.00
N184   N     0.64266   0.67433   0.99736   0.00000  Uiso   1.00
C185   C     0.14849   0.04911   0.71494   0.00000  Uiso   1.00
C186   C     0.14645   0.95220   0.75838   0.00000  Uiso   1.00
C187   C     0.19050   0.93557   0.81931   0.00000  Uiso   1.00
C188   C     0.18019   0.84184   0.85132   0.00000  Uiso   1.00
C189   C     0.18498   0.70270   0.92304   0.00000  Uiso   1.00
C190   C     0.08333   0.11017   0.69478   0.00000  Uiso   1.00
C191   C     0.07433   0.22637   0.70222   0.00000  Uiso   1.00
C192   C     0.01088   0.26561   0.68068   0.00000  Uiso   1.00
C193   C     0.91769   0.37174   0.65361   0.00000  Uiso   1.00
C194   C     0.14946   0.99115   0.65635   0.00000  Uiso   1.00
C195   C     0.19604   0.00730   0.63148   0.00000  Uiso   1.00
C196   C     0.18827   0.94636   0.57757   0.00000  Uiso   1.00
C197   C     0.19775   0.86769   0.49085   0.00000  Uiso   1.00
C198   C     0.05184   0.91219   0.66342   0.00000  Uiso   1.00
C199   C     0.09395   0.87783   0.73040   0.00000  Uiso   1.00
C200   C     0.08357   0.78409   0.76231   0.00000  Uiso   1.00
C201   C     0.12760   0.76733   0.82328   0.00000  Uiso   1.00
C202   C     0.03084   0.03580   0.66679   0.00000  Uiso   1.00
C203   C     0.96739   0.07488   0.64522   0.00000  Uiso   1.00
C204   C     0.95829   0.19111   0.65264   0.00000  Uiso   1.00
C205   C     0.09696   0.91678   0.62837   0.00000  Uiso   1.00
C206   C     0.08911   0.85581   0.57448   0.00000  Uiso   1.00
C207   C     0.13567   0.87185   0.54953   0.00000  Uiso   1.00
H208   H     0.18936   0.10702   0.73672   0.00000  Uiso   1.00
H209   H     0.23112   0.99316   0.84096   0.00000  Uiso   1.00
H210   H     0.11496   0.28390   0.72388   0.00000  Uiso   1.00
H211   H     0.23666   0.06486   0.65315   0.00000  Uiso   1.00
H212   H     0.25425   0.83414   0.94418   0.00000  Uiso   1.00
H213   H     0.00933   0.44721   0.69730   0.00000  Uiso   1.00
H214   H     0.26595   0.98532   0.54815   0.00000  Uiso   1.00
H215   H     0.01097   0.85429   0.64163   0.00000  Uiso   1.00
H216   H     0.04294   0.72655   0.74065   0.00000  Uiso   1.00
H217   H     0.92678   0.01730   0.62357   0.00000  Uiso   1.00
H218   H     0.04848   0.79826   0.55284   0.00000  Uiso   1.00
H219   H     0.10151   0.61776   0.86277   0.00000  Uiso   1.00
H220   H     0.85659   0.23083   0.61588   0.00000  Uiso   1.00
H221   H     0.11322   0.76894   0.46673   0.00000  Uiso   1.00
O222   O     0.20212   0.64651   0.97034   0.00000  Uiso   1.00
O223   O     0.88079   0.45082   0.64642   0.00000  Uiso   1.00
O224   O     0.21748   0.84483   0.45074   0.00000  Uiso   1.00
N225   N     0.21392   0.80074   0.91143   0.00000  Uiso   1.00
N226   N     0.98493   0.37391   0.68062   0.00000  Uiso   1.00
N227   N     0.22485   0.94211   0.54116   0.00000  Uiso   1.00
N228   N     0.13174   0.68430   0.86762   0.00000  Uiso   1.00
N229   N     0.90275   0.25748   0.63681   0.00000  Uiso   1.00
N230   N     0.14266   0.82567   0.49736   0.00000  Uiso   1.00
C231   C     0.64849   0.54911   0.71494   0.00000  Uiso   1.00
C232   C     0.64645   0.45220   0.75838   0.00000  Uiso   1.00
C233   C     0.69050   0.43557   0.81931   0.00000  Uiso   1.00
C234   C     0.68019   0.34184   0.85132   0.00000  Uiso   1.00
C235   C     0.68498   0.20270   0.92304   0.00000  Uiso   1.00
C236   C     0.58333   0.61017   0.69478   0.00000  Uiso   1.00
C237   C     0.57433   0.72637   0.70222   0.00000  Uiso   1.00
C238   C     0.51088   0.76561   0.68068   0.00000  Uiso   1.00
C239   C     0.41769   0.87174   0.65361   0.00000  Uiso   1.00
C240   C     0.64946   0.49115   0.65635   0.00000  Uiso   1.00
C241   C     0.69604   0.50730   0.63148   0.00000  Uiso   1.00
C242   C     0.68827   0.44636   0.57757   0.00000  Uiso   1.00
C243   C     0.69775   0.36769   0.49085   0.00000  Uiso   1.00
C244   C     0.55184   0.41219   0.66342   0.00000  Uiso   1.00
C245   C     0.59395   0.37783   0.73040   0.00000  Uiso   1.00
C246   C     0.58357   0.28409   0.76231   0.00000  Uiso   1.00
C247   C     0.62760   0.26733   0.82328   0.00000  Uiso   1.00
C248   C     0.53084   0.53580   0.66679   0.00000  Uiso   1.00
C249   C     0.46739   0.57488   0.64522   0.00000  Uiso   1.00
C250   C     0.45829   0.69111   0.65264   0.00000  Uiso   1.00
C251   C     0.59696   0.41678   0.62837   0.00000  Uiso   1.00
C252   C     0.58911   0.35581   0.57448   0.00000  Uiso   1.00
C253   C     0.63567   0.37185   0.54953   0.00000  Uiso   1.00
H254   H     0.68936   0.60702   0.73672   0.00000  Uiso   1.00
H255   H     0.73112   0.49316   0.84096   0.00000  Uiso   1.00
H256   H     0.61496   0.78390   0.72388   0.00000  Uiso   1.00
H257   H     0.73666   0.56486   0.65315   0.00000  Uiso   1.00
H258   H     0.75425   0.33414   0.94418   0.00000  Uiso   1.00
H259   H     0.50933   0.94721   0.69730   0.00000  Uiso   1.00
H260   H     0.76595   0.48532   0.54815   0.00000  Uiso   1.00
H261   H     0.51097   0.35429   0.64163   0.00000  Uiso   1.00
H262   H     0.54294   0.22655   0.74065   0.00000  Uiso   1.00
H263   H     0.42678   0.51730   0.62357   0.00000  Uiso   1.00
H264   H     0.54848   0.29826   0.55284   0.00000  Uiso   1.00
H265   H     0.60151   0.11776   0.86277   0.00000  Uiso   1.00
H266   H     0.35659   0.73083   0.61588   0.00000  Uiso   1.00
H267   H     0.61322   0.26894   0.46673   0.00000  Uiso   1.00
O268   O     0.70212   0.14651   0.97034   0.00000  Uiso   1.00
O269   O     0.38079   0.95082   0.64642   0.00000  Uiso   1.00
O270   O     0.71748   0.34483   0.45074   0.00000  Uiso   1.00
N271   N     0.71392   0.30074   0.91143   0.00000  Uiso   1.00
N272   N     0.48493   0.87391   0.68062   0.00000  Uiso   1.00
N273   N     0.72485   0.44211   0.54116   0.00000  Uiso   1.00
N274   N     0.63174   0.18430   0.86762   0.00000  Uiso   1.00
N275   N     0.40275   0.75748   0.63681   0.00000  Uiso   1.00
N276   N     0.64266   0.32567   0.49736   0.00000  Uiso   1.00
C277   C     0.85151   0.04911   0.78506   0.00000  Uiso   1.00
C278   C     0.85355   0.95220   0.74162   0.00000  Uiso   1.00
C279   C     0.80950   0.93557   0.68069   0.00000  Uiso   1.00
C280   C     0.81981   0.84184   0.64868   0.00000  Uiso   1.00
C281   C     0.81502   0.70270   0.57696   0.00000  Uiso   1.00
C282   C     0.91667   0.11017   0.80522   0.00000  Uiso   1.00
C283   C     0.92567   0.22637   0.79778   0.00000  Uiso   1.00
C284   C     0.98912   0.26561   0.81932   0.00000  Uiso   1.00
C285   C     0.08231   0.37174   0.84639   0.00000  Uiso   1.00
C286   C     0.85054   0.99115   0.84365   0.00000  Uiso   1.00
C287   C     0.80396   0.00730   0.86852   0.00000  Uiso   1.00
C288   C     0.81173   0.94636   0.92243   0.00000  Uiso   1.00
C289   C     0.80225   0.86769   0.00915   0.00000  Uiso   1.00
C290   C     0.94816   0.91219   0.83658   0.00000  Uiso   1.00
C291   C     0.90605   0.87783   0.76960   0.00000  Uiso   1.00
C292   C     0.91643   0.78409   0.73769   0.00000  Uiso   1.00
C293   C     0.87240   0.76733   0.67672   0.00000  Uiso   1.00
C294   C     0.96916   0.03580   0.83321   0.00000  Uiso   1.00
C295   C     0.03261   0.07488   0.85478   0.00000  Uiso   1.00
C296   C     0.04171   0.19111   0.84736   0.00000  Uiso   1.00
C297   C     0.90304   0.91678   0.87163   0.00000  Uiso   1.00
C298   C     0.91089   0.85581   0.92552   0.00000  Uiso   1.00
C299   C     0.86433   0.87185   0.95047   0.00000  Uiso   1.00
H300   H     0.81064   0.10702   0.76328   0.00000  Uiso   1.00
H301   H     0.76888   0.99316   0.65904   0.00000  Uiso   1.00
H302   H     0.88504   0.28390   0.77612   0.00000  Uiso   1.00
H303   H     0.76334   0.06486   0.84685   0.00000  Uiso   1.00
H304   H     0.74575   0.83414   0.55582   0.00000  Uiso   1.00
H305   H     0.99067   0.44721   0.80270   0.00000  Uiso   1.00
H306   H     0.73405   0.98532   0.95185   0.00000  Uiso   1.00
H307   H     0.98903   0.85429   0.85837   0.00000  Uiso   1.00
H308   H     0.95706   0.72655   0.75935   0.00000  Uiso   1.00
H309   H     0.07322   0.01730   0.87643   0.00000  Uiso   1.00
H310   H     0.95152   0.79826   0.94716   0.00000  Uiso   1.00
H311   H     0.89849   0.61776   0.63723   0.00000  Uiso   1.00
H312   H     0.14341   0.23083   0.88412   0.00000  Uiso   1.00
H313   H     0.88678   0.76894   0.03327   0.00000  Uiso   1.00
O314   O     0.79788   0.64651   0.52966   0.00000  Uiso   1.00
O315   O     0.11921   0.45082   0.85358   0.00000  Uiso   1.00
O316   O     0.78252   0.84483   0.04926   0.00000  Uiso   1.00
N317   N     0.78608   0.80074   0.58857   0.00000  Uiso   1.00
N318   N     0.01507   0.37391   0.81938   0.00000  Uiso   1.00
N319   N     0.77515   0.94211   0.95884   0.00000  Uiso   1.00
N320   N     0.86826   0.68430   0.63238   0.00000  Uiso   1.00
N321   N     0.09725   0.25748   0.86319   0.00000  Uiso   1.00
N322   N     0.85734   0.82567   0.00264   0.00000  Uiso   1.00
C323   C     0.35151   0.54911   0.78506   0.00000  Uiso   1.00
C324   C     0.35355   0.45220   0.74162   0.00000  Uiso   1.00
C325   C     0.30950   0.43557   0.68069   0.00000  Uiso   1.00
C326   C     0.31981   0.34184   0.64868   0.00000  Uiso   1.00
C327   C     0.31502   0.20270   0.57696   0.00000  Uiso   1.00
C328   C     0.41667   0.61017   0.80522   0.00000  Uiso   1.00
C329   C     0.42567   0.72637   0.79778   0.00000  Uiso   1.00
C330   C     0.48912   0.76561   0.81932   0.00000  Uiso   1.00
C331   C     0.58231   0.87174   0.84639   0.00000  Uiso   1.00
C332   C     0.35054   0.49115   0.84365   0.00000  Uiso   1.00
C333   C     0.30396   0.50730   0.86852   0.00000  Uiso   1.00
C334   C     0.31173   0.44636   0.92243   0.00000  Uiso   1.00
C335   C     0.30225   0.36769   0.00915   0.00000  Uiso   1.00
C336   C     0.44816   0.41219   0.83658   0.00000  Uiso   1.00
C337   C     0.40605   0.37783   0.76960   0.00000  Uiso   1.00
C338   C     0.41643   0.28409   0.73769   0.00000  Uiso   1.00
C339   C     0.37240   0.26733   0.67672   0.00000  Uiso   1.00
C340   C     0.46916   0.53580   0.83321   0.00000  Uiso   1.00
C341   C     0.53261   0.57488   0.85478   0.00000  Uiso   1.00
C342   C     0.54171   0.69111   0.84736   0.00000  Uiso   1.00
C343   C     0.40304   0.41678   0.87163   0.00000  Uiso   1.00
C344   C     0.41089   0.35581   0.92552   0.00000  Uiso   1.00
C345   C     0.36433   0.37185   0.95047   0.00000  Uiso   1.00
H346   H     0.31064   0.60702   0.76328   0.00000  Uiso   1.00
H347   H     0.26888   0.49316   0.65904   0.00000  Uiso   1.00
H348   H     0.38504   0.78390   0.77612   0.00000  Uiso   1.00
H349   H     0.26334   0.56486   0.84685   0.00000  Uiso   1.00
H350   H     0.24575   0.33414   0.55582   0.00000  Uiso   1.00
H351   H     0.49067   0.94721   0.80270   0.00000  Uiso   1.00
H352   H     0.23405   0.48532   0.95185   0.00000  Uiso   1.00
H353   H     0.48903   0.35429   0.85837   0.00000  Uiso   1.00
H354   H     0.45706   0.22655   0.75935   0.00000  Uiso   1.00
H355   H     0.57322   0.51730   0.87643   0.00000  Uiso   1.00
H356   H     0.45152   0.29826   0.94716   0.00000  Uiso   1.00
H357   H     0.39849   0.11776   0.63723   0.00000  Uiso   1.00
H358   H     0.64341   0.73083   0.88412   0.00000  Uiso   1.00
H359   H     0.38678   0.26894   0.03327   0.00000  Uiso   1.00
O360   O     0.29788   0.14651   0.52966   0.00000  Uiso   1.00
O361   O     0.61921   0.95082   0.85358   0.00000  Uiso   1.00
O362   O     0.28252   0.34483   0.04926   0.00000  Uiso   1.00
N363   N     0.28608   0.30074   0.58857   0.00000  Uiso   1.00
N364   N     0.51507   0.87391   0.81938   0.00000  Uiso   1.00
N365   N     0.27515   0.44211   0.95884   0.00000  Uiso   1.00
N366   N     0.36826   0.18430   0.63238   0.00000  Uiso   1.00
N367   N     0.59725   0.75748   0.86319   0.00000  Uiso   1.00
N368   N     0.35734   0.32567   0.00264   0.00000  Uiso   1.00
