data_job_01665
_audit_creation_date              2018-12-19
_audit_creation_method            'Materials Studio'
_symmetry_space_group_name_H-M    'P1'
_symmetry_Int_Tables_number       1
_symmetry_cell_setting            triclinic
loop_
_symmetry_equiv_pos_as_xyz
  x,y,z
_cell_length_a                    21.6443
_cell_length_b                    7.5836
_cell_length_c                    23.1680
_cell_angle_alpha                 90.0000
_cell_angle_beta                  90.0000
_cell_angle_gamma                 90.0000
loop_
_atom_site_label
_atom_site_type_symbol
_atom_site_fract_x
_atom_site_fract_y
_atom_site_fract_z
_atom_site_U_iso_or_equiv
_atom_site_adp_type
_atom_site_occupancy
C1     C     0.13038   0.22509   0.86955   0.00000  Uiso   1.00
C2     C     0.17857   0.21827   0.91752   0.00000  Uiso   1.00
C3     C     0.18999   0.35052   0.95752   0.00000  Uiso   1.00
C4     C     0.23602   0.31893   0.99796   0.00000  Uiso   1.00
C5     C     0.30579   0.33244   0.07236   0.00000  Uiso   1.00
C6     C     0.16542   0.19343   0.81340   0.00000  Uiso   1.00
C7     C     0.16578   0.30477   0.76586   0.00000  Uiso   1.00
C8     C     0.20073   0.25224   0.71864   0.00000  Uiso   1.00
C9     C     0.25005   0.22712   0.63138   0.00000  Uiso   1.00
C10    C     0.08926   0.06398   0.87820   0.00000  Uiso   1.00
C11    C     0.02557   0.06647   0.88513   0.00000  Uiso   1.00
C12    C     0.99640   0.90494   0.89246   0.00000  Uiso   1.00
C13    C     0.92747   0.67883   0.90581   0.00000  Uiso   1.00
C14    C     0.19181   0.93382   0.87023   0.00000  Uiso   1.00
C15    C     0.21194   0.06007   0.91788   0.00000  Uiso   1.00
C16    C     0.25796   0.02826   0.95827   0.00000  Uiso   1.00
C17    C     0.26945   0.16043   0.99832   0.00000  Uiso   1.00
C18    C     0.19879   0.03523   0.81376   0.00000  Uiso   1.00
C19    C     0.23375   0.98251   0.76660   0.00000  Uiso   1.00
C20    C     0.23416   0.09375   0.71901   0.00000  Uiso   1.00
C21    C     0.12262   0.90577   0.87857   0.00000  Uiso   1.00
C22    C     0.09355   0.74421   0.88588   0.00000  Uiso   1.00
C23    C     0.02983   0.74645   0.89282   0.00000  Uiso   1.00
H24    H     0.10440   0.34826   0.86926   0.00000  Uiso   1.00
H25    H     0.16416   0.47294   0.95722   0.00000  Uiso   1.00
H26    H     0.13994   0.42718   0.76559   0.00000  Uiso   1.00
H27    H     0.99977   0.18892   0.88484   0.00000  Uiso   1.00
H28    H     0.24515   0.54143   0.05489   0.00000  Uiso   1.00
H29    H     0.19407   0.44492   0.65081   0.00000  Uiso   1.00
H30    H     0.89847   0.94249   0.90228   0.00000  Uiso   1.00
H31    H     0.21779   0.81064   0.87051   0.00000  Uiso   1.00
H32    H     0.28378   0.90582   0.95854   0.00000  Uiso   1.00
H33    H     0.25956   0.86007   0.76690   0.00000  Uiso   1.00
H34    H     0.11938   0.62180   0.88616   0.00000  Uiso   1.00
H35    H     0.34223   0.08113   0.05595   0.00000  Uiso   1.00
H36    H     0.29115   0.98463   0.65187   0.00000  Uiso   1.00
H37    H     0.99556   0.48220   0.90335   0.00000  Uiso   1.00
O38    O     0.33506   0.38361   0.11329   0.00000  Uiso   1.00
O39    O     0.26804   0.25699   0.58315   0.00000  Uiso   1.00
O40    O     0.88023   0.59782   0.91309   0.00000  Uiso   1.00
N41    N     0.25893   0.42002   0.04306   0.00000  Uiso   1.00
N42    N     0.21118   0.32981   0.66528   0.00000  Uiso   1.00
N43    N     0.93483   0.86007   0.90037   0.00000  Uiso   1.00
N44    N     0.31117   0.17234   0.04364   0.00000  Uiso   1.00
N45    N     0.26343   0.08213   0.66585   0.00000  Uiso   1.00
N46    N     0.98707   0.61239   0.90094   0.00000  Uiso   1.00
C47    C     0.36962   0.77491   0.36955   0.00000  Uiso   1.00
C48    C     0.32143   0.78173   0.41752   0.00000  Uiso   1.00
C49    C     0.31001   0.64948   0.45752   0.00000  Uiso   1.00
C50    C     0.26398   0.68107   0.49796   0.00000  Uiso   1.00
C51    C     0.19421   0.66756   0.57236   0.00000  Uiso   1.00
C52    C     0.33458   0.80657   0.31340   0.00000  Uiso   1.00
C53    C     0.33422   0.69523   0.26586   0.00000  Uiso   1.00
C54    C     0.29927   0.74776   0.21864   0.00000  Uiso   1.00
C55    C     0.24995   0.77288   0.13138   0.00000  Uiso   1.00
C56    C     0.41074   0.93602   0.37820   0.00000  Uiso   1.00
C57    C     0.47443   0.93353   0.38513   0.00000  Uiso   1.00
C58    C     0.50360   0.09506   0.39246   0.00000  Uiso   1.00
C59    C     0.57253   0.32117   0.40581   0.00000  Uiso   1.00
C60    C     0.30819   0.06618   0.37023   0.00000  Uiso   1.00
C61    C     0.28806   0.93993   0.41788   0.00000  Uiso   1.00
C62    C     0.24204   0.97174   0.45827   0.00000  Uiso   1.00
C63    C     0.23055   0.83957   0.49832   0.00000  Uiso   1.00
C64    C     0.30121   0.96477   0.31376   0.00000  Uiso   1.00
C65    C     0.26625   0.01749   0.26660   0.00000  Uiso   1.00
C66    C     0.26584   0.90625   0.21901   0.00000  Uiso   1.00
C67    C     0.37738   0.09423   0.37857   0.00000  Uiso   1.00
C68    C     0.40645   0.25579   0.38588   0.00000  Uiso   1.00
C69    C     0.47017   0.25355   0.39282   0.00000  Uiso   1.00
H70    H     0.39560   0.65174   0.36926   0.00000  Uiso   1.00
H71    H     0.33584   0.52706   0.45722   0.00000  Uiso   1.00
H72    H     0.36006   0.57282   0.26559   0.00000  Uiso   1.00
H73    H     0.50023   0.81108   0.38484   0.00000  Uiso   1.00
H74    H     0.25485   0.45857   0.55489   0.00000  Uiso   1.00
H75    H     0.30593   0.55508   0.15081   0.00000  Uiso   1.00
H76    H     0.60153   0.05751   0.40228   0.00000  Uiso   1.00
H77    H     0.28221   0.18936   0.37051   0.00000  Uiso   1.00
H78    H     0.21622   0.09418   0.45854   0.00000  Uiso   1.00
H79    H     0.24044   0.13993   0.26690   0.00000  Uiso   1.00
H80    H     0.38062   0.37820   0.38616   0.00000  Uiso   1.00
H81    H     0.15777   0.91887   0.55595   0.00000  Uiso   1.00
H82    H     0.20885   0.01537   0.15187   0.00000  Uiso   1.00
H83    H     0.50444   0.51780   0.40335   0.00000  Uiso   1.00
O84    O     0.16494   0.61639   0.61329   0.00000  Uiso   1.00
O85    O     0.23196   0.74301   0.08315   0.00000  Uiso   1.00
O86    O     0.61977   0.40218   0.41309   0.00000  Uiso   1.00
N87    N     0.24107   0.57998   0.54306   0.00000  Uiso   1.00
N88    N     0.28882   0.67019   0.16528   0.00000  Uiso   1.00
N89    N     0.56517   0.13993   0.40037   0.00000  Uiso   1.00
N90    N     0.18883   0.82766   0.54364   0.00000  Uiso   1.00
N91    N     0.23657   0.91787   0.16585   0.00000  Uiso   1.00
N92    N     0.51293   0.38761   0.40094   0.00000  Uiso   1.00
C93    C     0.86962   0.72509   0.63045   0.00000  Uiso   1.00
C94    C     0.82143   0.71827   0.58248   0.00000  Uiso   1.00
C95    C     0.81001   0.85052   0.54248   0.00000  Uiso   1.00
C96    C     0.76398   0.81893   0.50204   0.00000  Uiso   1.00
C97    C     0.69421   0.83244   0.42764   0.00000  Uiso   1.00
C98    C     0.83458   0.69343   0.68660   0.00000  Uiso   1.00
C99    C     0.83422   0.80477   0.73414   0.00000  Uiso   1.00
C100   C     0.79927   0.75224   0.78136   0.00000  Uiso   1.00
C101   C     0.74995   0.72712   0.86862   0.00000  Uiso   1.00
C102   C     0.91074   0.56398   0.62180   0.00000  Uiso   1.00
C103   C     0.97443   0.56647   0.61487   0.00000  Uiso   1.00
C104   C     0.00360   0.40494   0.60754   0.00000  Uiso   1.00
C105   C     0.07253   0.17883   0.59419   0.00000  Uiso   1.00
C106   C     0.80819   0.43382   0.62977   0.00000  Uiso   1.00
C107   C     0.78806   0.56007   0.58212   0.00000  Uiso   1.00
C108   C     0.74204   0.52826   0.54173   0.00000  Uiso   1.00
C109   C     0.73055   0.66043   0.50168   0.00000  Uiso   1.00
C110   C     0.80121   0.53523   0.68624   0.00000  Uiso   1.00
C111   C     0.76625   0.48251   0.73340   0.00000  Uiso   1.00
C112   C     0.76584   0.59375   0.78099   0.00000  Uiso   1.00
C113   C     0.87738   0.40577   0.62143   0.00000  Uiso   1.00
C114   C     0.90645   0.24421   0.61412   0.00000  Uiso   1.00
C115   C     0.97017   0.24645   0.60718   0.00000  Uiso   1.00
H116   H     0.89560   0.84826   0.63074   0.00000  Uiso   1.00
H117   H     0.83584   0.97294   0.54278   0.00000  Uiso   1.00
H118   H     0.86006   0.92718   0.73441   0.00000  Uiso   1.00
H119   H     0.00023   0.68892   0.61516   0.00000  Uiso   1.00
H120   H     0.75485   0.04143   0.44511   0.00000  Uiso   1.00
H121   H     0.80593   0.94492   0.84919   0.00000  Uiso   1.00
H122   H     0.10153   0.44249   0.59772   0.00000  Uiso   1.00
H123   H     0.78221   0.31064   0.62949   0.00000  Uiso   1.00
H124   H     0.71622   0.40582   0.54146   0.00000  Uiso   1.00
H125   H     0.74044   0.36007   0.73310   0.00000  Uiso   1.00
H126   H     0.88062   0.12180   0.61384   0.00000  Uiso   1.00
H127   H     0.65777   0.58113   0.44405   0.00000  Uiso   1.00
H128   H     0.70885   0.48463   0.84813   0.00000  Uiso   1.00
H129   H     0.00444   0.98220   0.59665   0.00000  Uiso   1.00
O130   O     0.66494   0.88361   0.38671   0.00000  Uiso   1.00
O131   O     0.73196   0.75699   0.91685   0.00000  Uiso   1.00
O132   O     0.11977   0.09782   0.58691   0.00000  Uiso   1.00
N133   N     0.74107   0.92002   0.45694   0.00000  Uiso   1.00
N134   N     0.78882   0.82981   0.83472   0.00000  Uiso   1.00
N135   N     0.06517   0.36007   0.59963   0.00000  Uiso   1.00
N136   N     0.68883   0.67234   0.45636   0.00000  Uiso   1.00
N137   N     0.73657   0.58213   0.83415   0.00000  Uiso   1.00
N138   N     0.01293   0.11239   0.59906   0.00000  Uiso   1.00
C139   C     0.63038   0.27491   0.13045   0.00000  Uiso   1.00
C140   C     0.67857   0.28173   0.08248   0.00000  Uiso   1.00
C141   C     0.68999   0.14948   0.04248   0.00000  Uiso   1.00
C142   C     0.73602   0.18107   0.00204   0.00000  Uiso   1.00
C143   C     0.80579   0.16756   0.92764   0.00000  Uiso   1.00
C144   C     0.66542   0.30657   0.18660   0.00000  Uiso   1.00
C145   C     0.66578   0.19523   0.23414   0.00000  Uiso   1.00
C146   C     0.70073   0.24776   0.28136   0.00000  Uiso   1.00
C147   C     0.75005   0.27288   0.36862   0.00000  Uiso   1.00
C148   C     0.58926   0.43602   0.12180   0.00000  Uiso   1.00
C149   C     0.52557   0.43353   0.11487   0.00000  Uiso   1.00
C150   C     0.49640   0.59506   0.10754   0.00000  Uiso   1.00
C151   C     0.42747   0.82117   0.09419   0.00000  Uiso   1.00
C152   C     0.69181   0.56618   0.12977   0.00000  Uiso   1.00
C153   C     0.71194   0.43993   0.08212   0.00000  Uiso   1.00
C154   C     0.75796   0.47174   0.04173   0.00000  Uiso   1.00
C155   C     0.76945   0.33957   0.00168   0.00000  Uiso   1.00
C156   C     0.69879   0.46477   0.18624   0.00000  Uiso   1.00
C157   C     0.73375   0.51749   0.23340   0.00000  Uiso   1.00
C158   C     0.73416   0.40625   0.28099   0.00000  Uiso   1.00
C159   C     0.62262   0.59423   0.12143   0.00000  Uiso   1.00
C160   C     0.59355   0.75579   0.11412   0.00000  Uiso   1.00
C161   C     0.52983   0.75355   0.10718   0.00000  Uiso   1.00
H162   H     0.60440   0.15174   0.13074   0.00000  Uiso   1.00
H163   H     0.66416   0.02706   0.04278   0.00000  Uiso   1.00
H164   H     0.63994   0.07282   0.23441   0.00000  Uiso   1.00
H165   H     0.49977   0.31108   0.11516   0.00000  Uiso   1.00
H166   H     0.74515   0.95857   0.94511   0.00000  Uiso   1.00
H167   H     0.69407   0.05508   0.34919   0.00000  Uiso   1.00
H168   H     0.39847   0.55751   0.09772   0.00000  Uiso   1.00
H169   H     0.71779   0.68936   0.12949   0.00000  Uiso   1.00
H170   H     0.78378   0.59418   0.04146   0.00000  Uiso   1.00
H171   H     0.75956   0.63993   0.23310   0.00000  Uiso   1.00
H172   H     0.61938   0.87820   0.11384   0.00000  Uiso   1.00
H173   H     0.84223   0.41887   0.94405   0.00000  Uiso   1.00
H174   H     0.79115   0.51537   0.34813   0.00000  Uiso   1.00
H175   H     0.49556   0.01780   0.09665   0.00000  Uiso   1.00
O176   O     0.83506   0.11639   0.88671   0.00000  Uiso   1.00
O177   O     0.76804   0.24301   0.41685   0.00000  Uiso   1.00
O178   O     0.38023   0.90218   0.08691   0.00000  Uiso   1.00
N179   N     0.75893   0.07998   0.95694   0.00000  Uiso   1.00
N180   N     0.71118   0.17019   0.33472   0.00000  Uiso   1.00
N181   N     0.43483   0.63993   0.09963   0.00000  Uiso   1.00
N182   N     0.81117   0.32766   0.95636   0.00000  Uiso   1.00
N183   N     0.76343   0.41787   0.33415   0.00000  Uiso   1.00
N184   N     0.48707   0.88761   0.09906   0.00000  Uiso   1.00
