data_job_05230
_audit_creation_date              2018-12-19
_audit_creation_method            'Materials Studio'
_symmetry_space_group_name_H-M    'P1'
_symmetry_Int_Tables_number       1
_symmetry_cell_setting            triclinic
loop_
_symmetry_equiv_pos_as_xyz
  x,y,z
_cell_length_a                    21.5309
_cell_length_b                    11.8336
_cell_length_c                    17.5101
_cell_angle_alpha                 90.0000
_cell_angle_beta                  90.0000
_cell_angle_gamma                 90.0000
loop_
_atom_site_label
_atom_site_type_symbol
_atom_site_fract_x
_atom_site_fract_y
_atom_site_fract_z
_atom_site_U_iso_or_equiv
_atom_site_adp_type
_atom_site_occupancy
C1     C     0.48857   0.95335   0.93979   0.00000  Uiso   1.00
C2     C     0.44712   0.03990   0.97936   0.00000  Uiso   1.00
C3     C     0.45641   0.08397   0.05191   0.00000  Uiso   1.00
C4     C     0.41323   0.16220   0.07786   0.00000  Uiso   1.00
C5     C     0.35656   0.29155   0.14616   0.00000  Uiso   1.00
C6     C     0.44642   0.85459   0.91874   0.00000  Uiso   1.00
C7     C     0.45511   0.74285   0.94033   0.00000  Uiso   1.00
C8     C     0.41134   0.66509   0.91525   0.00000  Uiso   1.00
C9     C     0.35360   0.50672   0.88940   0.00000  Uiso   1.00
C10    C     0.50832   0.00704   0.86444   0.00000  Uiso   1.00
C11    C     0.56906   0.02347   0.84035   0.00000  Uiso   1.00
C12    C     0.57740   0.07404   0.76954   0.00000  Uiso   1.00
C13    C     0.61576   0.15239   0.65938   0.00000  Uiso   1.00
C14    C     0.39539   0.01391   0.85686   0.00000  Uiso   1.00
C15    C     0.39651   0.07279   0.93431   0.00000  Uiso   1.00
C16    C     0.35331   0.15098   0.96015   0.00000  Uiso   1.00
C17    C     0.36253   0.19516   0.03273   0.00000  Uiso   1.00
C18    C     0.39580   0.88748   0.87370   0.00000  Uiso   1.00
C19    C     0.35202   0.80986   0.84857   0.00000  Uiso   1.00
C20    C     0.36064   0.69804   0.87012   0.00000  Uiso   1.00
C21    C     0.45770   0.03994   0.81939   0.00000  Uiso   1.00
C22    C     0.46596   0.09048   0.74860   0.00000  Uiso   1.00
C23    C     0.52670   0.10699   0.72441   0.00000  Uiso   1.00
H24    H     0.52797   0.92773   0.97486   0.00000  Uiso   1.00
H25    H     0.49558   0.05849   0.08675   0.00000  Uiso   1.00
H26    H     0.49429   0.71742   0.97518   0.00000  Uiso   1.00
H27    H     0.60821   0.99800   0.87523   0.00000  Uiso   1.00
H28    H     0.43733   0.21793   0.19095   0.00000  Uiso   1.00
H29    H     0.43462   0.49877   0.95568   0.00000  Uiso   1.00
H30    H     0.67485   0.09043   0.74490   0.00000  Uiso   1.00
H31    H     0.35598   0.03951   0.82179   0.00000  Uiso   1.00
H32    H     0.31415   0.17642   0.92528   0.00000  Uiso   1.00
H33    H     0.31286   0.83534   0.81371   0.00000  Uiso   1.00
H34    H     0.42678   0.11593   0.71376   0.00000  Uiso   1.00
H35    H     0.29007   0.31364   0.05990   0.00000  Uiso   1.00
H36    H     0.28736   0.59448   0.82462   0.00000  Uiso   1.00
H37    H     0.52759   0.18614   0.61385   0.00000  Uiso   1.00
O38    O     0.33927   0.35380   0.19628   0.00000  Uiso   1.00
O39    O     0.33572   0.41029   0.88760   0.00000  Uiso   1.00
O40    O     0.65090   0.18653   0.61107   0.00000  Uiso   1.00
N41    N     0.40842   0.22169   0.14590   0.00000  Uiso   1.00
N42    N     0.40588   0.54932   0.92594   0.00000  Uiso   1.00
N43    N     0.63048   0.10244   0.72888   0.00000  Uiso   1.00
N44    N     0.32918   0.27319   0.07538   0.00000  Uiso   1.00
N45    N     0.32664   0.60082   0.85542   0.00000  Uiso   1.00
N46    N     0.55124   0.15394   0.65836   0.00000  Uiso   1.00
C47    C     0.55277   0.45383   0.05696   0.00000  Uiso   1.00
C48    C     0.59451   0.54284   0.02047   0.00000  Uiso   1.00
C49    C     0.58803   0.58639   0.94731   0.00000  Uiso   1.00
C50    C     0.63097   0.66718   0.92455   0.00000  Uiso   1.00
C51    C     0.68854   0.79989   0.86047   0.00000  Uiso   1.00
C52    C     0.59557   0.35763   0.08121   0.00000  Uiso   1.00
C53    C     0.58998   0.24545   0.05914   0.00000  Uiso   1.00
C54    C     0.63381   0.17033   0.08752   0.00000  Uiso   1.00
C55    C     0.69300   0.01549   0.11778   0.00000  Uiso   1.00
C56    C     0.52839   0.50626   0.13064   0.00000  Uiso   1.00
C57    C     0.46630   0.51903   0.15014   0.00000  Uiso   1.00
C58    C     0.45357   0.56902   0.22015   0.00000  Uiso   1.00
C59    C     0.40845   0.64495   0.32716   0.00000  Uiso   1.00
C60    C     0.64054   0.51987   0.14663   0.00000  Uiso   1.00
C61    C     0.64218   0.57871   0.06918   0.00000  Uiso   1.00
C62    C     0.68514   0.65946   0.04652   0.00000  Uiso   1.00
C63    C     0.67873   0.70312   0.97334   0.00000  Uiso   1.00
C64    C     0.64324   0.39350   0.12992   0.00000  Uiso   1.00
C65    C     0.68709   0.31853   0.15834   0.00000  Uiso   1.00
C66    C     0.68157   0.20627   0.13631   0.00000  Uiso   1.00
C67    C     0.57606   0.54214   0.17935   0.00000  Uiso   1.00
C68    C     0.56342   0.59211   0.24934   0.00000  Uiso   1.00
C69    C     0.50133   0.60496   0.26894   0.00000  Uiso   1.00
H70    H     0.51565   0.42589   0.01905   0.00000  Uiso   1.00
H71    H     0.55113   0.55859   0.90964   0.00000  Uiso   1.00
H72    H     0.55307   0.21771   0.02145   0.00000  Uiso   1.00
H73    H     0.42942   0.49126   0.11244   0.00000  Uiso   1.00
H74    H     0.61150   0.72151   0.80981   0.00000  Uiso   1.00
H75    H     0.61559   0.00274   0.04559   0.00000  Uiso   1.00
H76    H     0.35484   0.57955   0.23746   0.00000  Uiso   1.00
H77    H     0.67766   0.54780   0.18455   0.00000  Uiso   1.00
H78    H     0.72203   0.68721   0.08422   0.00000  Uiso   1.00
H79    H     0.72398   0.34632   0.19603   0.00000  Uiso   1.00
H80    H     0.60033   0.61986   0.28702   0.00000  Uiso   1.00
H81    H     0.75021   0.82589   0.95150   0.00000  Uiso   1.00
H82    H     0.75430   0.10712   0.18729   0.00000  Uiso   1.00
H83    H     0.49356   0.68393   0.37915   0.00000  Uiso   1.00
O84    O     0.70713   0.86318   0.81166   0.00000  Uiso   1.00
O85    O     0.71249   0.92017   0.12101   0.00000  Uiso   1.00
O86    O     0.37040   0.67694   0.37273   0.00000  Uiso   1.00
N87    N     0.63805   0.72696   0.85693   0.00000  Uiso   1.00
N88    N     0.64188   0.05496   0.07736   0.00000  Uiso   1.00
N89    N     0.39810   0.59420   0.25675   0.00000  Uiso   1.00
N90    N     0.71269   0.78313   0.93318   0.00000  Uiso   1.00
N91    N     0.71652   0.11112   0.15361   0.00000  Uiso   1.00
N92    N     0.47274   0.65037   0.33300   0.00000  Uiso   1.00
C93    C     0.51143   0.04665   0.43979   0.00000  Uiso   1.00
C94    C     0.55288   0.96010   0.47936   0.00000  Uiso   1.00
C95    C     0.54359   0.91603   0.55191   0.00000  Uiso   1.00
C96    C     0.58677   0.83780   0.57786   0.00000  Uiso   1.00
C97    C     0.64344   0.70845   0.64616   0.00000  Uiso   1.00
C98    C     0.55358   0.14541   0.41874   0.00000  Uiso   1.00
C99    C     0.54489   0.25715   0.44033   0.00000  Uiso   1.00
C100   C     0.58866   0.33491   0.41525   0.00000  Uiso   1.00
C101   C     0.64640   0.49328   0.38940   0.00000  Uiso   1.00
C102   C     0.49168   0.99296   0.36444   0.00000  Uiso   1.00
C103   C     0.43094   0.97653   0.34035   0.00000  Uiso   1.00
C104   C     0.42260   0.92596   0.26954   0.00000  Uiso   1.00
C105   C     0.38424   0.84761   0.15938   0.00000  Uiso   1.00
C106   C     0.60461   0.98609   0.35686   0.00000  Uiso   1.00
C107   C     0.60349   0.92721   0.43431   0.00000  Uiso   1.00
C108   C     0.64669   0.84902   0.46015   0.00000  Uiso   1.00
C109   C     0.63747   0.80484   0.53273   0.00000  Uiso   1.00
C110   C     0.60420   0.11252   0.37370   0.00000  Uiso   1.00
C111   C     0.64798   0.19014   0.34857   0.00000  Uiso   1.00
C112   C     0.63936   0.30196   0.37012   0.00000  Uiso   1.00
C113   C     0.54230   0.96006   0.31939   0.00000  Uiso   1.00
C114   C     0.53404   0.90952   0.24860   0.00000  Uiso   1.00
C115   C     0.47330   0.89301   0.22441   0.00000  Uiso   1.00
H116   H     0.47203   0.07227   0.47486   0.00000  Uiso   1.00
H117   H     0.50442   0.94151   0.58675   0.00000  Uiso   1.00
H118   H     0.50571   0.28258   0.47518   0.00000  Uiso   1.00
H119   H     0.39179   0.00200   0.37523   0.00000  Uiso   1.00
H120   H     0.56267   0.78207   0.69095   0.00000  Uiso   1.00
H121   H     0.56538   0.50123   0.45568   0.00000  Uiso   1.00
H122   H     0.32515   0.90957   0.24490   0.00000  Uiso   1.00
H123   H     0.64402   0.96049   0.32179   0.00000  Uiso   1.00
H124   H     0.68585   0.82358   0.42528   0.00000  Uiso   1.00
H125   H     0.68714   0.16466   0.31371   0.00000  Uiso   1.00
H126   H     0.57322   0.88407   0.21376   0.00000  Uiso   1.00
H127   H     0.70993   0.68636   0.55990   0.00000  Uiso   1.00
H128   H     0.71264   0.40552   0.32462   0.00000  Uiso   1.00
H129   H     0.47241   0.81386   0.11385   0.00000  Uiso   1.00
O130   O     0.66073   0.64620   0.69628   0.00000  Uiso   1.00
O131   O     0.66428   0.58971   0.38760   0.00000  Uiso   1.00
O132   O     0.34910   0.81347   0.11107   0.00000  Uiso   1.00
N133   N     0.59158   0.77831   0.64590   0.00000  Uiso   1.00
N134   N     0.59412   0.45068   0.42594   0.00000  Uiso   1.00
N135   N     0.36952   0.89756   0.22888   0.00000  Uiso   1.00
N136   N     0.67082   0.72681   0.57538   0.00000  Uiso   1.00
N137   N     0.67336   0.39918   0.35542   0.00000  Uiso   1.00
N138   N     0.44876   0.84606   0.15836   0.00000  Uiso   1.00
C139   C     0.44723   0.54617   0.55696   0.00000  Uiso   1.00
C140   C     0.40549   0.45716   0.52047   0.00000  Uiso   1.00
C141   C     0.41197   0.41361   0.44731   0.00000  Uiso   1.00
C142   C     0.36903   0.33282   0.42455   0.00000  Uiso   1.00
C143   C     0.31146   0.20011   0.36047   0.00000  Uiso   1.00
C144   C     0.40443   0.64237   0.58121   0.00000  Uiso   1.00
C145   C     0.41002   0.75455   0.55914   0.00000  Uiso   1.00
C146   C     0.36619   0.82967   0.58752   0.00000  Uiso   1.00
C147   C     0.30700   0.98451   0.61778   0.00000  Uiso   1.00
C148   C     0.47161   0.49374   0.63064   0.00000  Uiso   1.00
C149   C     0.53370   0.48097   0.65014   0.00000  Uiso   1.00
C150   C     0.54643   0.43098   0.72015   0.00000  Uiso   1.00
C151   C     0.59155   0.35505   0.82716   0.00000  Uiso   1.00
C152   C     0.35946   0.48013   0.64663   0.00000  Uiso   1.00
C153   C     0.35782   0.42129   0.56918   0.00000  Uiso   1.00
C154   C     0.31486   0.34054   0.54652   0.00000  Uiso   1.00
C155   C     0.32127   0.29688   0.47334   0.00000  Uiso   1.00
C156   C     0.35676   0.60650   0.62992   0.00000  Uiso   1.00
C157   C     0.31291   0.68147   0.65834   0.00000  Uiso   1.00
C158   C     0.31843   0.79373   0.63631   0.00000  Uiso   1.00
C159   C     0.42394   0.45786   0.67935   0.00000  Uiso   1.00
C160   C     0.43658   0.40789   0.74934   0.00000  Uiso   1.00
C161   C     0.49867   0.39504   0.76894   0.00000  Uiso   1.00
H162   H     0.48435   0.57411   0.51905   0.00000  Uiso   1.00
H163   H     0.44887   0.44141   0.40964   0.00000  Uiso   1.00
H164   H     0.44693   0.78229   0.52145   0.00000  Uiso   1.00
H165   H     0.57058   0.50874   0.61244   0.00000  Uiso   1.00
H166   H     0.38850   0.27849   0.30981   0.00000  Uiso   1.00
H167   H     0.38441   0.99726   0.54559   0.00000  Uiso   1.00
H168   H     0.64516   0.42045   0.73746   0.00000  Uiso   1.00
H169   H     0.32234   0.45220   0.68455   0.00000  Uiso   1.00
H170   H     0.27797   0.31279   0.58422   0.00000  Uiso   1.00
H171   H     0.27602   0.65368   0.69603   0.00000  Uiso   1.00
H172   H     0.39967   0.38014   0.78702   0.00000  Uiso   1.00
H173   H     0.24979   0.17411   0.45150   0.00000  Uiso   1.00
H174   H     0.24570   0.89288   0.68729   0.00000  Uiso   1.00
H175   H     0.50644   0.31607   0.87915   0.00000  Uiso   1.00
O176   O     0.29287   0.13682   0.31166   0.00000  Uiso   1.00
O177   O     0.28751   0.07983   0.62101   0.00000  Uiso   1.00
O178   O     0.62960   0.32306   0.87273   0.00000  Uiso   1.00
N179   N     0.36195   0.27304   0.35693   0.00000  Uiso   1.00
N180   N     0.35812   0.94504   0.57736   0.00000  Uiso   1.00
N181   N     0.60190   0.40580   0.75675   0.00000  Uiso   1.00
N182   N     0.28731   0.21687   0.43318   0.00000  Uiso   1.00
N183   N     0.28348   0.88888   0.65361   0.00000  Uiso   1.00
N184   N     0.52726   0.34963   0.83300   0.00000  Uiso   1.00
C185   C     0.98857   0.54665   0.93979   0.00000  Uiso   1.00
C186   C     0.94712   0.46010   0.97936   0.00000  Uiso   1.00
C187   C     0.95641   0.41603   0.05191   0.00000  Uiso   1.00
C188   C     0.91323   0.33780   0.07786   0.00000  Uiso   1.00
C189   C     0.85656   0.20845   0.14616   0.00000  Uiso   1.00
C190   C     0.94642   0.64541   0.91874   0.00000  Uiso   1.00
C191   C     0.95511   0.75715   0.94033   0.00000  Uiso   1.00
C192   C     0.91134   0.83491   0.91525   0.00000  Uiso   1.00
C193   C     0.85360   0.99328   0.88940   0.00000  Uiso   1.00
C194   C     0.00832   0.49296   0.86444   0.00000  Uiso   1.00
C195   C     0.06906   0.47653   0.84035   0.00000  Uiso   1.00
C196   C     0.07740   0.42596   0.76954   0.00000  Uiso   1.00
C197   C     0.11576   0.34761   0.65938   0.00000  Uiso   1.00
C198   C     0.89539   0.48609   0.85686   0.00000  Uiso   1.00
C199   C     0.89651   0.42721   0.93431   0.00000  Uiso   1.00
C200   C     0.85331   0.34902   0.96015   0.00000  Uiso   1.00
C201   C     0.86253   0.30484   0.03273   0.00000  Uiso   1.00
C202   C     0.89580   0.61252   0.87370   0.00000  Uiso   1.00
C203   C     0.85202   0.69014   0.84857   0.00000  Uiso   1.00
C204   C     0.86064   0.80196   0.87012   0.00000  Uiso   1.00
C205   C     0.95770   0.46006   0.81939   0.00000  Uiso   1.00
C206   C     0.96596   0.40952   0.74860   0.00000  Uiso   1.00
C207   C     0.02670   0.39301   0.72441   0.00000  Uiso   1.00
H208   H     0.02797   0.57227   0.97486   0.00000  Uiso   1.00
H209   H     0.99558   0.44151   0.08675   0.00000  Uiso   1.00
H210   H     0.99429   0.78258   0.97518   0.00000  Uiso   1.00
H211   H     0.10821   0.50200   0.87523   0.00000  Uiso   1.00
H212   H     0.93733   0.28207   0.19095   0.00000  Uiso   1.00
H213   H     0.93462   0.00123   0.95568   0.00000  Uiso   1.00
H214   H     0.17485   0.40957   0.74490   0.00000  Uiso   1.00
H215   H     0.85598   0.46049   0.82179   0.00000  Uiso   1.00
H216   H     0.81415   0.32358   0.92528   0.00000  Uiso   1.00
H217   H     0.81286   0.66466   0.81371   0.00000  Uiso   1.00
H218   H     0.92678   0.38407   0.71376   0.00000  Uiso   1.00
H219   H     0.79007   0.18636   0.05990   0.00000  Uiso   1.00
H220   H     0.78736   0.90552   0.82462   0.00000  Uiso   1.00
H221   H     0.02759   0.31386   0.61385   0.00000  Uiso   1.00
O222   O     0.83927   0.14620   0.19628   0.00000  Uiso   1.00
O223   O     0.83572   0.08971   0.88760   0.00000  Uiso   1.00
O224   O     0.15090   0.31347   0.61107   0.00000  Uiso   1.00
N225   N     0.90842   0.27831   0.14590   0.00000  Uiso   1.00
N226   N     0.90588   0.95068   0.92594   0.00000  Uiso   1.00
N227   N     0.13048   0.39756   0.72888   0.00000  Uiso   1.00
N228   N     0.82918   0.22681   0.07538   0.00000  Uiso   1.00
N229   N     0.82664   0.89918   0.85542   0.00000  Uiso   1.00
N230   N     0.05124   0.34606   0.65836   0.00000  Uiso   1.00
C231   C     0.05277   0.04617   0.05696   0.00000  Uiso   1.00
C232   C     0.09451   0.95716   0.02047   0.00000  Uiso   1.00
C233   C     0.08803   0.91361   0.94731   0.00000  Uiso   1.00
C234   C     0.13097   0.83282   0.92455   0.00000  Uiso   1.00
C235   C     0.18854   0.70011   0.86047   0.00000  Uiso   1.00
C236   C     0.09557   0.14237   0.08121   0.00000  Uiso   1.00
C237   C     0.08998   0.25455   0.05914   0.00000  Uiso   1.00
C238   C     0.13381   0.32967   0.08752   0.00000  Uiso   1.00
C239   C     0.19300   0.48451   0.11778   0.00000  Uiso   1.00
C240   C     0.02839   0.99374   0.13064   0.00000  Uiso   1.00
C241   C     0.96630   0.98097   0.15014   0.00000  Uiso   1.00
C242   C     0.95357   0.93098   0.22015   0.00000  Uiso   1.00
C243   C     0.90845   0.85505   0.32716   0.00000  Uiso   1.00
C244   C     0.14054   0.98013   0.14663   0.00000  Uiso   1.00
C245   C     0.14218   0.92129   0.06918   0.00000  Uiso   1.00
C246   C     0.18514   0.84054   0.04652   0.00000  Uiso   1.00
C247   C     0.17873   0.79688   0.97334   0.00000  Uiso   1.00
C248   C     0.14324   0.10650   0.12992   0.00000  Uiso   1.00
C249   C     0.18709   0.18147   0.15834   0.00000  Uiso   1.00
C250   C     0.18157   0.29373   0.13631   0.00000  Uiso   1.00
C251   C     0.07606   0.95786   0.17935   0.00000  Uiso   1.00
C252   C     0.06342   0.90789   0.24934   0.00000  Uiso   1.00
C253   C     0.00133   0.89504   0.26894   0.00000  Uiso   1.00
H254   H     0.01565   0.07411   0.01905   0.00000  Uiso   1.00
H255   H     0.05113   0.94141   0.90964   0.00000  Uiso   1.00
H256   H     0.05307   0.28229   0.02145   0.00000  Uiso   1.00
H257   H     0.92942   0.00874   0.11244   0.00000  Uiso   1.00
H258   H     0.11150   0.77849   0.80981   0.00000  Uiso   1.00
H259   H     0.11559   0.49726   0.04559   0.00000  Uiso   1.00
H260   H     0.85484   0.92045   0.23746   0.00000  Uiso   1.00
H261   H     0.17766   0.95220   0.18455   0.00000  Uiso   1.00
H262   H     0.22203   0.81279   0.08422   0.00000  Uiso   1.00
H263   H     0.22398   0.15368   0.19603   0.00000  Uiso   1.00
H264   H     0.10033   0.88014   0.28702   0.00000  Uiso   1.00
H265   H     0.25021   0.67411   0.95150   0.00000  Uiso   1.00
H266   H     0.25430   0.39288   0.18729   0.00000  Uiso   1.00
H267   H     0.99356   0.81607   0.37915   0.00000  Uiso   1.00
O268   O     0.20713   0.63682   0.81166   0.00000  Uiso   1.00
O269   O     0.21249   0.57983   0.12101   0.00000  Uiso   1.00
O270   O     0.87040   0.82306   0.37273   0.00000  Uiso   1.00
N271   N     0.13805   0.77304   0.85693   0.00000  Uiso   1.00
N272   N     0.14188   0.44504   0.07736   0.00000  Uiso   1.00
N273   N     0.89810   0.90580   0.25675   0.00000  Uiso   1.00
N274   N     0.21269   0.71687   0.93318   0.00000  Uiso   1.00
N275   N     0.21652   0.38888   0.15361   0.00000  Uiso   1.00
N276   N     0.97274   0.84963   0.33300   0.00000  Uiso   1.00
C277   C     0.01143   0.45335   0.43979   0.00000  Uiso   1.00
C278   C     0.05288   0.53990   0.47936   0.00000  Uiso   1.00
C279   C     0.04359   0.58397   0.55191   0.00000  Uiso   1.00
C280   C     0.08677   0.66220   0.57786   0.00000  Uiso   1.00
C281   C     0.14344   0.79155   0.64616   0.00000  Uiso   1.00
C282   C     0.05358   0.35459   0.41874   0.00000  Uiso   1.00
C283   C     0.04489   0.24285   0.44033   0.00000  Uiso   1.00
C284   C     0.08866   0.16509   0.41525   0.00000  Uiso   1.00
C285   C     0.14640   0.00672   0.38940   0.00000  Uiso   1.00
C286   C     0.99168   0.50704   0.36444   0.00000  Uiso   1.00
C287   C     0.93094   0.52347   0.34035   0.00000  Uiso   1.00
C288   C     0.92260   0.57404   0.26954   0.00000  Uiso   1.00
C289   C     0.88424   0.65239   0.15938   0.00000  Uiso   1.00
C290   C     0.10461   0.51391   0.35686   0.00000  Uiso   1.00
C291   C     0.10349   0.57279   0.43431   0.00000  Uiso   1.00
C292   C     0.14669   0.65098   0.46015   0.00000  Uiso   1.00
C293   C     0.13747   0.69516   0.53273   0.00000  Uiso   1.00
C294   C     0.10420   0.38748   0.37370   0.00000  Uiso   1.00
C295   C     0.14798   0.30986   0.34857   0.00000  Uiso   1.00
C296   C     0.13936   0.19804   0.37012   0.00000  Uiso   1.00
C297   C     0.04230   0.53994   0.31939   0.00000  Uiso   1.00
C298   C     0.03404   0.59048   0.24860   0.00000  Uiso   1.00
C299   C     0.97330   0.60699   0.22441   0.00000  Uiso   1.00
H300   H     0.97203   0.42773   0.47486   0.00000  Uiso   1.00
H301   H     0.00442   0.55849   0.58675   0.00000  Uiso   1.00
H302   H     0.00571   0.21742   0.47518   0.00000  Uiso   1.00
H303   H     0.89179   0.49800   0.37523   0.00000  Uiso   1.00
H304   H     0.06267   0.71793   0.69095   0.00000  Uiso   1.00
H305   H     0.06538   0.99877   0.45568   0.00000  Uiso   1.00
H306   H     0.82515   0.59043   0.24490   0.00000  Uiso   1.00
H307   H     0.14402   0.53951   0.32179   0.00000  Uiso   1.00
H308   H     0.18585   0.67642   0.42528   0.00000  Uiso   1.00
H309   H     0.18714   0.33534   0.31371   0.00000  Uiso   1.00
H310   H     0.07322   0.61593   0.21376   0.00000  Uiso   1.00
H311   H     0.20993   0.81364   0.55990   0.00000  Uiso   1.00
H312   H     0.21264   0.09448   0.32462   0.00000  Uiso   1.00
H313   H     0.97241   0.68614   0.11385   0.00000  Uiso   1.00
O314   O     0.16073   0.85380   0.69628   0.00000  Uiso   1.00
O315   O     0.16428   0.91029   0.38760   0.00000  Uiso   1.00
O316   O     0.84910   0.68653   0.11107   0.00000  Uiso   1.00
N317   N     0.09158   0.72169   0.64590   0.00000  Uiso   1.00
N318   N     0.09412   0.04932   0.42594   0.00000  Uiso   1.00
N319   N     0.86952   0.60244   0.22888   0.00000  Uiso   1.00
N320   N     0.17082   0.77319   0.57538   0.00000  Uiso   1.00
N321   N     0.17336   0.10082   0.35542   0.00000  Uiso   1.00
N322   N     0.94876   0.65394   0.15836   0.00000  Uiso   1.00
C323   C     0.94723   0.95383   0.55696   0.00000  Uiso   1.00
C324   C     0.90549   0.04284   0.52047   0.00000  Uiso   1.00
C325   C     0.91197   0.08639   0.44731   0.00000  Uiso   1.00
C326   C     0.86903   0.16718   0.42455   0.00000  Uiso   1.00
C327   C     0.81146   0.29989   0.36047   0.00000  Uiso   1.00
C328   C     0.90443   0.85763   0.58121   0.00000  Uiso   1.00
C329   C     0.91002   0.74545   0.55914   0.00000  Uiso   1.00
C330   C     0.86619   0.67033   0.58752   0.00000  Uiso   1.00
C331   C     0.80700   0.51549   0.61778   0.00000  Uiso   1.00
C332   C     0.97161   0.00626   0.63064   0.00000  Uiso   1.00
C333   C     0.03370   0.01903   0.65014   0.00000  Uiso   1.00
C334   C     0.04643   0.06902   0.72015   0.00000  Uiso   1.00
C335   C     0.09155   0.14495   0.82716   0.00000  Uiso   1.00
C336   C     0.85946   0.01987   0.64663   0.00000  Uiso   1.00
C337   C     0.85782   0.07871   0.56918   0.00000  Uiso   1.00
C338   C     0.81486   0.15946   0.54652   0.00000  Uiso   1.00
C339   C     0.82127   0.20312   0.47334   0.00000  Uiso   1.00
C340   C     0.85676   0.89350   0.62992   0.00000  Uiso   1.00
C341   C     0.81291   0.81853   0.65834   0.00000  Uiso   1.00
C342   C     0.81843   0.70627   0.63631   0.00000  Uiso   1.00
C343   C     0.92394   0.04214   0.67935   0.00000  Uiso   1.00
C344   C     0.93658   0.09211   0.74934   0.00000  Uiso   1.00
C345   C     0.99867   0.10496   0.76894   0.00000  Uiso   1.00
H346   H     0.98435   0.92589   0.51905   0.00000  Uiso   1.00
H347   H     0.94887   0.05859   0.40964   0.00000  Uiso   1.00
H348   H     0.94693   0.71771   0.52145   0.00000  Uiso   1.00
H349   H     0.07058   0.99126   0.61244   0.00000  Uiso   1.00
H350   H     0.88850   0.22151   0.30981   0.00000  Uiso   1.00
H351   H     0.88441   0.50274   0.54559   0.00000  Uiso   1.00
H352   H     0.14516   0.07955   0.73746   0.00000  Uiso   1.00
H353   H     0.82234   0.04780   0.68455   0.00000  Uiso   1.00
H354   H     0.77797   0.18721   0.58422   0.00000  Uiso   1.00
H355   H     0.77602   0.84632   0.69603   0.00000  Uiso   1.00
H356   H     0.89967   0.11986   0.78702   0.00000  Uiso   1.00
H357   H     0.74979   0.32589   0.45150   0.00000  Uiso   1.00
H358   H     0.74570   0.60712   0.68729   0.00000  Uiso   1.00
H359   H     0.00644   0.18393   0.87915   0.00000  Uiso   1.00
O360   O     0.79287   0.36318   0.31166   0.00000  Uiso   1.00
O361   O     0.78751   0.42017   0.62101   0.00000  Uiso   1.00
O362   O     0.12960   0.17694   0.87273   0.00000  Uiso   1.00
N363   N     0.86195   0.22696   0.35693   0.00000  Uiso   1.00
N364   N     0.85812   0.55496   0.57736   0.00000  Uiso   1.00
N365   N     0.10190   0.09420   0.75675   0.00000  Uiso   1.00
N366   N     0.78731   0.28313   0.43318   0.00000  Uiso   1.00
N367   N     0.78348   0.61112   0.65361   0.00000  Uiso   1.00
N368   N     0.02726   0.15037   0.83300   0.00000  Uiso   1.00
