data_job_03105
_audit_creation_date              2018-12-19
_audit_creation_method            'Materials Studio'
_symmetry_space_group_name_H-M    'P1'
_symmetry_Int_Tables_number       1
_symmetry_cell_setting            triclinic
loop_
_symmetry_equiv_pos_as_xyz
  x,y,z
_cell_length_a                    22.2822
_cell_length_b                    20.3269
_cell_length_c                    12.5190
_cell_angle_alpha                 90.0000
_cell_angle_beta                  99.6221
_cell_angle_gamma                 90.0000
loop_
_atom_site_label
_atom_site_type_symbol
_atom_site_fract_x
_atom_site_fract_y
_atom_site_fract_z
_atom_site_U_iso_or_equiv
_atom_site_adp_type
_atom_site_occupancy
C1     C     0.20276   0.53791   0.81894   0.00000  Uiso   1.00
C2     C     0.25945   0.54011   0.90602   0.00000  Uiso   1.00
C3     C     0.31776   0.52220   0.89219   0.00000  Uiso   1.00
C4     C     0.36348   0.52773   0.98183   0.00000  Uiso   1.00
C5     C     0.45335   0.52766   0.10187   0.00000  Uiso   1.00
C6     C     0.15696   0.49486   0.86437   0.00000  Uiso   1.00
C7     C     0.12909   0.43891   0.81551   0.00000  Uiso   1.00
C8     C     0.08853   0.40636   0.87009   0.00000  Uiso   1.00
C9     C     0.01924   0.33606   0.92543   0.00000  Uiso   1.00
C10    C     0.17647   0.60734   0.81238   0.00000  Uiso   1.00
C11    C     0.16500   0.64596   0.71979   0.00000  Uiso   1.00
C12    C     0.14085   0.70811   0.73058   0.00000  Uiso   1.00
C13    C     0.10187   0.81246   0.70519   0.00000  Uiso   1.00
C14    C     0.18027   0.57960   0.00272   0.00000  Uiso   1.00
C15    C     0.24723   0.56274   0.00584   0.00000  Uiso   1.00
C16    C     0.29288   0.56831   0.09552   0.00000  Uiso   1.00
C17    C     0.35125   0.55042   0.08183   0.00000  Uiso   1.00
C18    C     0.14474   0.51749   0.96419   0.00000  Uiso   1.00
C19    C     0.10420   0.48502   0.01884   0.00000  Uiso   1.00
C20    C     0.07629   0.42904   0.97009   0.00000  Uiso   1.00
C21    C     0.16426   0.62998   0.91220   0.00000  Uiso   1.00
C22    C     0.14012   0.69208   0.92313   0.00000  Uiso   1.00
C23    C     0.12861   0.73079   0.83058   0.00000  Uiso   1.00
H24    H     0.21227   0.52029   0.74123   0.00000  Uiso   1.00
H25    H     0.32719   0.50467   0.81493   0.00000  Uiso   1.00
H26    H     0.13855   0.42140   0.73826   0.00000  Uiso   1.00
H27    H     0.17446   0.62842   0.64256   0.00000  Uiso   1.00
H28    H     0.44922   0.49733   0.94068   0.00000  Uiso   1.00
H29    H     0.05143   0.32175   0.77900   0.00000  Uiso   1.00
H30    H     0.12714   0.75830   0.57719   0.00000  Uiso   1.00
H31    H     0.17076   0.59722   0.08044   0.00000  Uiso   1.00
H32    H     0.28341   0.58583   0.17276   0.00000  Uiso   1.00
H33    H     0.09476   0.50256   0.09609   0.00000  Uiso   1.00
H34    H     0.13067   0.70958   0.00039   0.00000  Uiso   1.00
H35    H     0.41368   0.56320   0.23110   0.00000  Uiso   1.00
H36    H     0.01589   0.38762   0.06942   0.00000  Uiso   1.00
H37    H     0.09161   0.82417   0.86762   0.00000  Uiso   1.00
O38    O     0.50630   0.52136   0.14051   0.00000  Uiso   1.00
O39    O     0.98440   0.29102   0.92838   0.00000  Uiso   1.00
O40    O     0.08375   0.86376   0.66362   0.00000  Uiso   1.00
N41    N     0.42540   0.51440   0.99635   0.00000  Uiso   1.00
N42    N     0.05349   0.35025   0.84520   0.00000  Uiso   1.00
N43    N     0.12427   0.75838   0.65652   0.00000  Uiso   1.00
N44    N     0.40627   0.54985   0.15263   0.00000  Uiso   1.00
N45    N     0.03437   0.38569   0.00147   0.00000  Uiso   1.00
N46    N     0.10514   0.79382   0.81280   0.00000  Uiso   1.00
C47    C     0.70276   0.03791   0.81894   0.00000  Uiso   1.00
C48    C     0.75945   0.04011   0.90602   0.00000  Uiso   1.00
C49    C     0.81776   0.02220   0.89219   0.00000  Uiso   1.00
C50    C     0.86348   0.02773   0.98183   0.00000  Uiso   1.00
C51    C     0.95335   0.02766   0.10187   0.00000  Uiso   1.00
C52    C     0.65696   0.99486   0.86437   0.00000  Uiso   1.00
C53    C     0.62909   0.93891   0.81551   0.00000  Uiso   1.00
C54    C     0.58853   0.90636   0.87009   0.00000  Uiso   1.00
C55    C     0.51924   0.83606   0.92543   0.00000  Uiso   1.00
C56    C     0.67647   0.10734   0.81238   0.00000  Uiso   1.00
C57    C     0.66500   0.14596   0.71979   0.00000  Uiso   1.00
C58    C     0.64085   0.20811   0.73058   0.00000  Uiso   1.00
C59    C     0.60187   0.31246   0.70519   0.00000  Uiso   1.00
C60    C     0.68027   0.07960   0.00272   0.00000  Uiso   1.00
C61    C     0.74723   0.06274   0.00584   0.00000  Uiso   1.00
C62    C     0.79288   0.06831   0.09552   0.00000  Uiso   1.00
C63    C     0.85125   0.05042   0.08183   0.00000  Uiso   1.00
C64    C     0.64474   0.01749   0.96419   0.00000  Uiso   1.00
C65    C     0.60420   0.98502   0.01884   0.00000  Uiso   1.00
C66    C     0.57629   0.92904   0.97009   0.00000  Uiso   1.00
C67    C     0.66426   0.12998   0.91220   0.00000  Uiso   1.00
C68    C     0.64012   0.19208   0.92313   0.00000  Uiso   1.00
C69    C     0.62861   0.23079   0.83058   0.00000  Uiso   1.00
H70    H     0.71227   0.02029   0.74123   0.00000  Uiso   1.00
H71    H     0.82719   0.00467   0.81493   0.00000  Uiso   1.00
H72    H     0.63855   0.92140   0.73826   0.00000  Uiso   1.00
H73    H     0.67446   0.12842   0.64256   0.00000  Uiso   1.00
H74    H     0.94922   0.99733   0.94068   0.00000  Uiso   1.00
H75    H     0.55143   0.82175   0.77900   0.00000  Uiso   1.00
H76    H     0.62714   0.25830   0.57719   0.00000  Uiso   1.00
H77    H     0.67076   0.09722   0.08044   0.00000  Uiso   1.00
H78    H     0.78341   0.08583   0.17276   0.00000  Uiso   1.00
H79    H     0.59476   0.00256   0.09609   0.00000  Uiso   1.00
H80    H     0.63067   0.20958   0.00039   0.00000  Uiso   1.00
H81    H     0.91368   0.06320   0.23110   0.00000  Uiso   1.00
H82    H     0.51589   0.88762   0.06942   0.00000  Uiso   1.00
H83    H     0.59161   0.32417   0.86762   0.00000  Uiso   1.00
O84    O     0.00630   0.02136   0.14051   0.00000  Uiso   1.00
O85    O     0.48440   0.79102   0.92838   0.00000  Uiso   1.00
O86    O     0.58375   0.36376   0.66362   0.00000  Uiso   1.00
N87    N     0.92540   0.01440   0.99635   0.00000  Uiso   1.00
N88    N     0.55349   0.85025   0.84520   0.00000  Uiso   1.00
N89    N     0.62427   0.25838   0.65652   0.00000  Uiso   1.00
N90    N     0.90627   0.04985   0.15263   0.00000  Uiso   1.00
N91    N     0.53437   0.88569   0.00147   0.00000  Uiso   1.00
N92    N     0.60514   0.29382   0.81280   0.00000  Uiso   1.00
C93    C     0.79724   0.53791   0.68106   0.00000  Uiso   1.00
C94    C     0.74055   0.54011   0.59398   0.00000  Uiso   1.00
C95    C     0.68224   0.52220   0.60781   0.00000  Uiso   1.00
C96    C     0.63652   0.52773   0.51817   0.00000  Uiso   1.00
C97    C     0.54665   0.52766   0.39813   0.00000  Uiso   1.00
C98    C     0.84304   0.49486   0.63563   0.00000  Uiso   1.00
C99    C     0.87091   0.43891   0.68449   0.00000  Uiso   1.00
C100   C     0.91147   0.40636   0.62991   0.00000  Uiso   1.00
C101   C     0.98076   0.33606   0.57457   0.00000  Uiso   1.00
C102   C     0.82353   0.60734   0.68762   0.00000  Uiso   1.00
C103   C     0.83500   0.64596   0.78021   0.00000  Uiso   1.00
C104   C     0.85915   0.70811   0.76942   0.00000  Uiso   1.00
C105   C     0.89813   0.81246   0.79481   0.00000  Uiso   1.00
C106   C     0.81973   0.57960   0.49728   0.00000  Uiso   1.00
C107   C     0.75277   0.56274   0.49416   0.00000  Uiso   1.00
C108   C     0.70712   0.56831   0.40448   0.00000  Uiso   1.00
C109   C     0.64875   0.55042   0.41817   0.00000  Uiso   1.00
C110   C     0.85526   0.51749   0.53581   0.00000  Uiso   1.00
C111   C     0.89580   0.48502   0.48116   0.00000  Uiso   1.00
C112   C     0.92371   0.42904   0.52991   0.00000  Uiso   1.00
C113   C     0.83574   0.62998   0.58780   0.00000  Uiso   1.00
C114   C     0.85988   0.69208   0.57687   0.00000  Uiso   1.00
C115   C     0.87139   0.73079   0.66942   0.00000  Uiso   1.00
H116   H     0.78773   0.52029   0.75877   0.00000  Uiso   1.00
H117   H     0.67281   0.50467   0.68507   0.00000  Uiso   1.00
H118   H     0.86145   0.42140   0.76174   0.00000  Uiso   1.00
H119   H     0.82554   0.62842   0.85744   0.00000  Uiso   1.00
H120   H     0.55078   0.49733   0.55932   0.00000  Uiso   1.00
H121   H     0.94857   0.32175   0.72100   0.00000  Uiso   1.00
H122   H     0.87286   0.75830   0.92281   0.00000  Uiso   1.00
H123   H     0.82924   0.59722   0.41956   0.00000  Uiso   1.00
H124   H     0.71659   0.58583   0.32724   0.00000  Uiso   1.00
H125   H     0.90524   0.50256   0.40391   0.00000  Uiso   1.00
H126   H     0.86933   0.70958   0.49961   0.00000  Uiso   1.00
H127   H     0.58632   0.56320   0.26890   0.00000  Uiso   1.00
H128   H     0.98411   0.38762   0.43058   0.00000  Uiso   1.00
H129   H     0.90839   0.82417   0.63238   0.00000  Uiso   1.00
O130   O     0.49370   0.52136   0.35949   0.00000  Uiso   1.00
O131   O     0.01560   0.29102   0.57162   0.00000  Uiso   1.00
O132   O     0.91625   0.86376   0.83638   0.00000  Uiso   1.00
N133   N     0.57460   0.51440   0.50365   0.00000  Uiso   1.00
N134   N     0.94651   0.35025   0.65480   0.00000  Uiso   1.00
N135   N     0.87573   0.75838   0.84348   0.00000  Uiso   1.00
N136   N     0.59373   0.54985   0.34737   0.00000  Uiso   1.00
N137   N     0.96563   0.38569   0.49853   0.00000  Uiso   1.00
N138   N     0.89486   0.79382   0.68720   0.00000  Uiso   1.00
C139   C     0.29724   0.03791   0.68106   0.00000  Uiso   1.00
C140   C     0.24055   0.04011   0.59398   0.00000  Uiso   1.00
C141   C     0.18224   0.02220   0.60781   0.00000  Uiso   1.00
C142   C     0.13652   0.02773   0.51817   0.00000  Uiso   1.00
C143   C     0.04665   0.02766   0.39813   0.00000  Uiso   1.00
C144   C     0.34304   0.99486   0.63563   0.00000  Uiso   1.00
C145   C     0.37091   0.93891   0.68449   0.00000  Uiso   1.00
C146   C     0.41147   0.90636   0.62991   0.00000  Uiso   1.00
C147   C     0.48076   0.83606   0.57457   0.00000  Uiso   1.00
C148   C     0.32353   0.10734   0.68762   0.00000  Uiso   1.00
C149   C     0.33500   0.14596   0.78021   0.00000  Uiso   1.00
C150   C     0.35915   0.20811   0.76942   0.00000  Uiso   1.00
C151   C     0.39813   0.31246   0.79481   0.00000  Uiso   1.00
C152   C     0.31973   0.07960   0.49728   0.00000  Uiso   1.00
C153   C     0.25277   0.06274   0.49416   0.00000  Uiso   1.00
C154   C     0.20712   0.06831   0.40448   0.00000  Uiso   1.00
C155   C     0.14875   0.05042   0.41817   0.00000  Uiso   1.00
C156   C     0.35526   0.01749   0.53581   0.00000  Uiso   1.00
C157   C     0.39580   0.98502   0.48116   0.00000  Uiso   1.00
C158   C     0.42371   0.92904   0.52991   0.00000  Uiso   1.00
C159   C     0.33574   0.12998   0.58780   0.00000  Uiso   1.00
C160   C     0.35988   0.19208   0.57687   0.00000  Uiso   1.00
C161   C     0.37139   0.23079   0.66942   0.00000  Uiso   1.00
H162   H     0.28773   0.02029   0.75877   0.00000  Uiso   1.00
H163   H     0.17281   0.00467   0.68507   0.00000  Uiso   1.00
H164   H     0.36145   0.92140   0.76174   0.00000  Uiso   1.00
H165   H     0.32554   0.12842   0.85744   0.00000  Uiso   1.00
H166   H     0.05078   0.99733   0.55932   0.00000  Uiso   1.00
H167   H     0.44857   0.82175   0.72100   0.00000  Uiso   1.00
H168   H     0.37286   0.25830   0.92281   0.00000  Uiso   1.00
H169   H     0.32924   0.09722   0.41956   0.00000  Uiso   1.00
H170   H     0.21659   0.08583   0.32724   0.00000  Uiso   1.00
H171   H     0.40524   0.00256   0.40391   0.00000  Uiso   1.00
H172   H     0.36933   0.20958   0.49961   0.00000  Uiso   1.00
H173   H     0.08632   0.06320   0.26890   0.00000  Uiso   1.00
H174   H     0.48411   0.88762   0.43058   0.00000  Uiso   1.00
H175   H     0.40839   0.32417   0.63238   0.00000  Uiso   1.00
O176   O     0.99370   0.02136   0.35949   0.00000  Uiso   1.00
O177   O     0.51560   0.79102   0.57162   0.00000  Uiso   1.00
O178   O     0.41625   0.36376   0.83638   0.00000  Uiso   1.00
N179   N     0.07460   0.01440   0.50365   0.00000  Uiso   1.00
N180   N     0.44651   0.85025   0.65480   0.00000  Uiso   1.00
N181   N     0.37573   0.25838   0.84348   0.00000  Uiso   1.00
N182   N     0.09373   0.04985   0.34737   0.00000  Uiso   1.00
N183   N     0.46563   0.88569   0.49853   0.00000  Uiso   1.00
N184   N     0.39486   0.29382   0.68720   0.00000  Uiso   1.00
C185   C     0.79724   0.46209   0.18106   0.00000  Uiso   1.00
C186   C     0.74055   0.45989   0.09398   0.00000  Uiso   1.00
C187   C     0.68224   0.47780   0.10781   0.00000  Uiso   1.00
C188   C     0.63652   0.47227   0.01817   0.00000  Uiso   1.00
C189   C     0.54665   0.47234   0.89813   0.00000  Uiso   1.00
C190   C     0.84304   0.50514   0.13563   0.00000  Uiso   1.00
C191   C     0.87091   0.56109   0.18449   0.00000  Uiso   1.00
C192   C     0.91147   0.59364   0.12991   0.00000  Uiso   1.00
C193   C     0.98076   0.66394   0.07457   0.00000  Uiso   1.00
C194   C     0.82353   0.39266   0.18762   0.00000  Uiso   1.00
C195   C     0.83500   0.35404   0.28021   0.00000  Uiso   1.00
C196   C     0.85915   0.29189   0.26942   0.00000  Uiso   1.00
C197   C     0.89813   0.18754   0.29481   0.00000  Uiso   1.00
C198   C     0.81973   0.42040   0.99728   0.00000  Uiso   1.00
C199   C     0.75277   0.43726   0.99416   0.00000  Uiso   1.00
C200   C     0.70712   0.43169   0.90448   0.00000  Uiso   1.00
C201   C     0.64875   0.44958   0.91817   0.00000  Uiso   1.00
C202   C     0.85526   0.48251   0.03581   0.00000  Uiso   1.00
C203   C     0.89580   0.51498   0.98116   0.00000  Uiso   1.00
C204   C     0.92371   0.57096   0.02991   0.00000  Uiso   1.00
C205   C     0.83574   0.37002   0.08780   0.00000  Uiso   1.00
C206   C     0.85988   0.30792   0.07687   0.00000  Uiso   1.00
C207   C     0.87139   0.26921   0.16942   0.00000  Uiso   1.00
H208   H     0.78773   0.47971   0.25877   0.00000  Uiso   1.00
H209   H     0.67281   0.49533   0.18507   0.00000  Uiso   1.00
H210   H     0.86145   0.57860   0.26174   0.00000  Uiso   1.00
H211   H     0.82554   0.37158   0.35744   0.00000  Uiso   1.00
H212   H     0.55078   0.50267   0.05932   0.00000  Uiso   1.00
H213   H     0.94857   0.67825   0.22100   0.00000  Uiso   1.00
H214   H     0.87286   0.24170   0.42281   0.00000  Uiso   1.00
H215   H     0.82924   0.40278   0.91956   0.00000  Uiso   1.00
H216   H     0.71659   0.41417   0.82724   0.00000  Uiso   1.00
H217   H     0.90524   0.49744   0.90391   0.00000  Uiso   1.00
H218   H     0.86933   0.29042   0.99961   0.00000  Uiso   1.00
H219   H     0.58632   0.43680   0.76890   0.00000  Uiso   1.00
H220   H     0.98411   0.61238   0.93058   0.00000  Uiso   1.00
H221   H     0.90839   0.17583   0.13238   0.00000  Uiso   1.00
O222   O     0.49370   0.47864   0.85949   0.00000  Uiso   1.00
O223   O     0.01560   0.70898   0.07162   0.00000  Uiso   1.00
O224   O     0.91625   0.13624   0.33638   0.00000  Uiso   1.00
N225   N     0.57460   0.48560   0.00365   0.00000  Uiso   1.00
N226   N     0.94651   0.64975   0.15480   0.00000  Uiso   1.00
N227   N     0.87573   0.24162   0.34348   0.00000  Uiso   1.00
N228   N     0.59373   0.45015   0.84737   0.00000  Uiso   1.00
N229   N     0.96563   0.61431   0.99853   0.00000  Uiso   1.00
N230   N     0.89486   0.20618   0.18720   0.00000  Uiso   1.00
C231   C     0.29724   0.96209   0.18106   0.00000  Uiso   1.00
C232   C     0.24055   0.95989   0.09398   0.00000  Uiso   1.00
C233   C     0.18224   0.97780   0.10781   0.00000  Uiso   1.00
C234   C     0.13652   0.97227   0.01817   0.00000  Uiso   1.00
C235   C     0.04665   0.97234   0.89813   0.00000  Uiso   1.00
C236   C     0.34304   0.00514   0.13563   0.00000  Uiso   1.00
C237   C     0.37091   0.06109   0.18449   0.00000  Uiso   1.00
C238   C     0.41147   0.09364   0.12991   0.00000  Uiso   1.00
C239   C     0.48076   0.16394   0.07457   0.00000  Uiso   1.00
C240   C     0.32353   0.89266   0.18762   0.00000  Uiso   1.00
C241   C     0.33500   0.85404   0.28021   0.00000  Uiso   1.00
C242   C     0.35915   0.79189   0.26942   0.00000  Uiso   1.00
C243   C     0.39813   0.68754   0.29481   0.00000  Uiso   1.00
C244   C     0.31973   0.92040   0.99728   0.00000  Uiso   1.00
C245   C     0.25277   0.93726   0.99416   0.00000  Uiso   1.00
C246   C     0.20712   0.93169   0.90448   0.00000  Uiso   1.00
C247   C     0.14875   0.94958   0.91817   0.00000  Uiso   1.00
C248   C     0.35526   0.98251   0.03581   0.00000  Uiso   1.00
C249   C     0.39580   0.01498   0.98116   0.00000  Uiso   1.00
C250   C     0.42371   0.07096   0.02991   0.00000  Uiso   1.00
C251   C     0.33574   0.87002   0.08780   0.00000  Uiso   1.00
C252   C     0.35988   0.80792   0.07687   0.00000  Uiso   1.00
C253   C     0.37139   0.76921   0.16942   0.00000  Uiso   1.00
H254   H     0.28773   0.97971   0.25877   0.00000  Uiso   1.00
H255   H     0.17281   0.99533   0.18507   0.00000  Uiso   1.00
H256   H     0.36145   0.07860   0.26174   0.00000  Uiso   1.00
H257   H     0.32554   0.87158   0.35744   0.00000  Uiso   1.00
H258   H     0.05078   0.00267   0.05932   0.00000  Uiso   1.00
H259   H     0.44857   0.17825   0.22100   0.00000  Uiso   1.00
H260   H     0.37286   0.74170   0.42281   0.00000  Uiso   1.00
H261   H     0.32924   0.90278   0.91956   0.00000  Uiso   1.00
H262   H     0.21659   0.91417   0.82724   0.00000  Uiso   1.00
H263   H     0.40524   0.99744   0.90391   0.00000  Uiso   1.00
H264   H     0.36933   0.79042   0.99961   0.00000  Uiso   1.00
H265   H     0.08632   0.93680   0.76890   0.00000  Uiso   1.00
H266   H     0.48411   0.11238   0.93058   0.00000  Uiso   1.00
H267   H     0.40839   0.67583   0.13238   0.00000  Uiso   1.00
O268   O     0.99370   0.97864   0.85949   0.00000  Uiso   1.00
O269   O     0.51560   0.20898   0.07162   0.00000  Uiso   1.00
O270   O     0.41625   0.63624   0.33638   0.00000  Uiso   1.00
N271   N     0.07460   0.98560   0.00365   0.00000  Uiso   1.00
N272   N     0.44651   0.14975   0.15480   0.00000  Uiso   1.00
N273   N     0.37573   0.74162   0.34348   0.00000  Uiso   1.00
N274   N     0.09373   0.95015   0.84737   0.00000  Uiso   1.00
N275   N     0.46563   0.11431   0.99853   0.00000  Uiso   1.00
N276   N     0.39486   0.70618   0.18720   0.00000  Uiso   1.00
C277   C     0.20276   0.46209   0.31894   0.00000  Uiso   1.00
C278   C     0.25945   0.45989   0.40602   0.00000  Uiso   1.00
C279   C     0.31776   0.47780   0.39219   0.00000  Uiso   1.00
C280   C     0.36348   0.47227   0.48183   0.00000  Uiso   1.00
C281   C     0.45335   0.47234   0.60187   0.00000  Uiso   1.00
C282   C     0.15696   0.50514   0.36437   0.00000  Uiso   1.00
C283   C     0.12909   0.56109   0.31551   0.00000  Uiso   1.00
C284   C     0.08853   0.59364   0.37009   0.00000  Uiso   1.00
C285   C     0.01924   0.66394   0.42543   0.00000  Uiso   1.00
C286   C     0.17647   0.39266   0.31238   0.00000  Uiso   1.00
C287   C     0.16500   0.35404   0.21979   0.00000  Uiso   1.00
C288   C     0.14085   0.29189   0.23058   0.00000  Uiso   1.00
C289   C     0.10187   0.18754   0.20519   0.00000  Uiso   1.00
C290   C     0.18027   0.42040   0.50272   0.00000  Uiso   1.00
C291   C     0.24723   0.43726   0.50584   0.00000  Uiso   1.00
C292   C     0.29288   0.43169   0.59552   0.00000  Uiso   1.00
C293   C     0.35125   0.44958   0.58183   0.00000  Uiso   1.00
C294   C     0.14474   0.48251   0.46419   0.00000  Uiso   1.00
C295   C     0.10420   0.51498   0.51884   0.00000  Uiso   1.00
C296   C     0.07629   0.57096   0.47009   0.00000  Uiso   1.00
C297   C     0.16426   0.37002   0.41220   0.00000  Uiso   1.00
C298   C     0.14012   0.30792   0.42313   0.00000  Uiso   1.00
C299   C     0.12861   0.26921   0.33058   0.00000  Uiso   1.00
H300   H     0.21227   0.47971   0.24123   0.00000  Uiso   1.00
H301   H     0.32719   0.49533   0.31493   0.00000  Uiso   1.00
H302   H     0.13855   0.57860   0.23826   0.00000  Uiso   1.00
H303   H     0.17446   0.37158   0.14256   0.00000  Uiso   1.00
H304   H     0.44922   0.50267   0.44068   0.00000  Uiso   1.00
H305   H     0.05143   0.67825   0.27900   0.00000  Uiso   1.00
H306   H     0.12714   0.24170   0.07719   0.00000  Uiso   1.00
H307   H     0.17076   0.40278   0.58044   0.00000  Uiso   1.00
H308   H     0.28341   0.41417   0.67276   0.00000  Uiso   1.00
H309   H     0.09476   0.49744   0.59609   0.00000  Uiso   1.00
H310   H     0.13067   0.29042   0.50039   0.00000  Uiso   1.00
H311   H     0.41368   0.43680   0.73110   0.00000  Uiso   1.00
H312   H     0.01589   0.61238   0.56942   0.00000  Uiso   1.00
H313   H     0.09161   0.17583   0.36762   0.00000  Uiso   1.00
O314   O     0.50630   0.47864   0.64051   0.00000  Uiso   1.00
O315   O     0.98440   0.70898   0.42838   0.00000  Uiso   1.00
O316   O     0.08375   0.13624   0.16362   0.00000  Uiso   1.00
N317   N     0.42540   0.48560   0.49635   0.00000  Uiso   1.00
N318   N     0.05349   0.64975   0.34520   0.00000  Uiso   1.00
N319   N     0.12427   0.24162   0.15652   0.00000  Uiso   1.00
N320   N     0.40627   0.45015   0.65263   0.00000  Uiso   1.00
N321   N     0.03437   0.61431   0.50147   0.00000  Uiso   1.00
N322   N     0.10514   0.20618   0.31280   0.00000  Uiso   1.00
C323   C     0.70276   0.96209   0.31894   0.00000  Uiso   1.00
C324   C     0.75945   0.95989   0.40602   0.00000  Uiso   1.00
C325   C     0.81776   0.97780   0.39219   0.00000  Uiso   1.00
C326   C     0.86348   0.97227   0.48183   0.00000  Uiso   1.00
C327   C     0.95335   0.97234   0.60187   0.00000  Uiso   1.00
C328   C     0.65696   0.00514   0.36437   0.00000  Uiso   1.00
C329   C     0.62909   0.06109   0.31551   0.00000  Uiso   1.00
C330   C     0.58853   0.09364   0.37009   0.00000  Uiso   1.00
C331   C     0.51924   0.16394   0.42543   0.00000  Uiso   1.00
C332   C     0.67647   0.89266   0.31238   0.00000  Uiso   1.00
C333   C     0.66500   0.85404   0.21979   0.00000  Uiso   1.00
C334   C     0.64085   0.79189   0.23058   0.00000  Uiso   1.00
C335   C     0.60187   0.68754   0.20519   0.00000  Uiso   1.00
C336   C     0.68027   0.92040   0.50272   0.00000  Uiso   1.00
C337   C     0.74723   0.93726   0.50584   0.00000  Uiso   1.00
C338   C     0.79288   0.93169   0.59552   0.00000  Uiso   1.00
C339   C     0.85125   0.94958   0.58183   0.00000  Uiso   1.00
C340   C     0.64474   0.98251   0.46419   0.00000  Uiso   1.00
C341   C     0.60420   0.01498   0.51884   0.00000  Uiso   1.00
C342   C     0.57629   0.07096   0.47009   0.00000  Uiso   1.00
C343   C     0.66426   0.87002   0.41220   0.00000  Uiso   1.00
C344   C     0.64012   0.80792   0.42313   0.00000  Uiso   1.00
C345   C     0.62861   0.76921   0.33058   0.00000  Uiso   1.00
H346   H     0.71227   0.97971   0.24123   0.00000  Uiso   1.00
H347   H     0.82719   0.99533   0.31493   0.00000  Uiso   1.00
H348   H     0.63855   0.07860   0.23826   0.00000  Uiso   1.00
H349   H     0.67446   0.87158   0.14256   0.00000  Uiso   1.00
H350   H     0.94922   0.00267   0.44068   0.00000  Uiso   1.00
H351   H     0.55143   0.17825   0.27900   0.00000  Uiso   1.00
H352   H     0.62714   0.74170   0.07719   0.00000  Uiso   1.00
H353   H     0.67076   0.90278   0.58044   0.00000  Uiso   1.00
H354   H     0.78341   0.91417   0.67276   0.00000  Uiso   1.00
H355   H     0.59476   0.99744   0.59609   0.00000  Uiso   1.00
H356   H     0.63067   0.79042   0.50039   0.00000  Uiso   1.00
H357   H     0.91368   0.93680   0.73110   0.00000  Uiso   1.00
H358   H     0.51589   0.11238   0.56942   0.00000  Uiso   1.00
H359   H     0.59161   0.67583   0.36762   0.00000  Uiso   1.00
O360   O     0.00630   0.97864   0.64051   0.00000  Uiso   1.00
O361   O     0.48440   0.20898   0.42838   0.00000  Uiso   1.00
O362   O     0.58375   0.63624   0.16362   0.00000  Uiso   1.00
N363   N     0.92540   0.98560   0.49635   0.00000  Uiso   1.00
N364   N     0.55349   0.14975   0.34520   0.00000  Uiso   1.00
N365   N     0.62427   0.74162   0.15652   0.00000  Uiso   1.00
N366   N     0.90627   0.95015   0.65263   0.00000  Uiso   1.00
N367   N     0.53437   0.11431   0.50147   0.00000  Uiso   1.00
N368   N     0.60514   0.70618   0.31280   0.00000  Uiso   1.00
