data_job_01582
_audit_creation_date              2018-12-19
_audit_creation_method            'Materials Studio'
_symmetry_space_group_name_H-M    'P1'
_symmetry_Int_Tables_number       1
_symmetry_cell_setting            triclinic
loop_
_symmetry_equiv_pos_as_xyz
  x,y,z
_cell_length_a                    18.6200
_cell_length_b                    15.9572
_cell_length_c                    34.0219
_cell_angle_alpha                 90.0000
_cell_angle_beta                  140.4733
_cell_angle_gamma                 90.0000
loop_
_atom_site_label
_atom_site_type_symbol
_atom_site_fract_x
_atom_site_fract_y
_atom_site_fract_z
_atom_site_U_iso_or_equiv
_atom_site_adp_type
_atom_site_occupancy
C1     C     0.32083   0.49825   0.10402   0.00000  Uiso   1.00
C2     C     0.33100   0.42244   0.13538   0.00000  Uiso   1.00
C3     C     0.34236   0.42510   0.18076   0.00000  Uiso   1.00
C4     C     0.35042   0.34884   0.20360   0.00000  Uiso   1.00
C5     C     0.36676   0.24272   0.25562   0.00000  Uiso   1.00
C6     C     0.41600   0.49001   0.11428   0.00000  Uiso   1.00
C7     C     0.49881   0.54948   0.14190   0.00000  Uiso   1.00
C8     C     0.57841   0.53009   0.14697   0.00000  Uiso   1.00
C9     C     0.72665   0.52889   0.16619   0.00000  Uiso   1.00
C10    C     0.21146   0.48623   0.03492   0.00000  Uiso   1.00
C11    C     0.12231   0.54254   0.99582   0.00000  Uiso   1.00
C12    C     0.02971   0.51998   0.93408   0.00000  Uiso   1.00
C13    C     0.86039   0.51292   0.83009   0.00000  Uiso   1.00
C14    C     0.31493   0.35807   0.06390   0.00000  Uiso   1.00
C15    C     0.32780   0.34630   0.11358   0.00000  Uiso   1.00
C16    C     0.33583   0.27001   0.13636   0.00000  Uiso   1.00
C17    C     0.34720   0.27256   0.18176   0.00000  Uiso   1.00
C18    C     0.41279   0.41387   0.09248   0.00000  Uiso   1.00
C19    C     0.49228   0.39439   0.09751   0.00000  Uiso   1.00
C20    C     0.57520   0.45382   0.12513   0.00000  Uiso   1.00
C21    C     0.20825   0.41009   0.01313   0.00000  Uiso   1.00
C22    C     0.11578   0.38745   0.95143   0.00000  Uiso   1.00
C23    C     0.02650   0.44371   0.91224   0.00000  Uiso   1.00
H24    H     0.32333   0.55753   0.12099   0.00000  Uiso   1.00
H25    H     0.34485   0.48404   0.19761   0.00000  Uiso   1.00
H26    H     0.50127   0.60840   0.15876   0.00000  Uiso   1.00
H27    H     0.12482   0.60146   0.01270   0.00000  Uiso   1.00
H28    H     0.36734   0.36899   0.27297   0.00000  Uiso   1.00
H29    H     0.69712   0.63122   0.19102   0.00000  Uiso   1.00
H30    H     0.90332   0.61659   0.88303   0.00000  Uiso   1.00
H31    H     0.31243   0.29879   0.04693   0.00000  Uiso   1.00
H32    H     0.33335   0.21110   0.11949   0.00000  Uiso   1.00
H33    H     0.48976   0.33547   0.08063   0.00000  Uiso   1.00
H34    H     0.11332   0.32852   0.93458   0.00000  Uiso   1.00
H35    H     0.35801   0.14747   0.20956   0.00000  Uiso   1.00
H36    H     0.68779   0.40970   0.12761   0.00000  Uiso   1.00
H37    H     0.89399   0.39506   0.81963   0.00000  Uiso   1.00
O38    O     0.37667   0.20522   0.29034   0.00000  Uiso   1.00
O39    O     0.80931   0.54926   0.18282   0.00000  Uiso   1.00
O40    O     0.76787   0.53005   0.77876   0.00000  Uiso   1.00
N41    N     0.36225   0.32889   0.24808   0.00000  Uiso   1.00
N42    N     0.67059   0.57405   0.17147   0.00000  Uiso   1.00
N43    N     0.92846   0.56038   0.88353   0.00000  Uiso   1.00
N44    N     0.35722   0.20969   0.21396   0.00000  Uiso   1.00
N45    N     0.66556   0.45485   0.13735   0.00000  Uiso   1.00
N46    N     0.92344   0.44118   0.84941   0.00000  Uiso   1.00
C47    C     0.82083   0.99825   0.10402   0.00000  Uiso   1.00
C48    C     0.83100   0.92244   0.13538   0.00000  Uiso   1.00
C49    C     0.84236   0.92510   0.18076   0.00000  Uiso   1.00
C50    C     0.85042   0.84884   0.20360   0.00000  Uiso   1.00
C51    C     0.86676   0.74272   0.25562   0.00000  Uiso   1.00
C52    C     0.91600   0.99001   0.11428   0.00000  Uiso   1.00
C53    C     0.99881   0.04948   0.14190   0.00000  Uiso   1.00
C54    C     0.07841   0.03009   0.14697   0.00000  Uiso   1.00
C55    C     0.22665   0.02889   0.16619   0.00000  Uiso   1.00
C56    C     0.71146   0.98623   0.03492   0.00000  Uiso   1.00
C57    C     0.62231   0.04254   0.99582   0.00000  Uiso   1.00
C58    C     0.52971   0.01998   0.93408   0.00000  Uiso   1.00
C59    C     0.36039   0.01292   0.83009   0.00000  Uiso   1.00
C60    C     0.81493   0.85807   0.06390   0.00000  Uiso   1.00
C61    C     0.82780   0.84630   0.11358   0.00000  Uiso   1.00
C62    C     0.83583   0.77001   0.13636   0.00000  Uiso   1.00
C63    C     0.84720   0.77256   0.18176   0.00000  Uiso   1.00
C64    C     0.91279   0.91387   0.09248   0.00000  Uiso   1.00
C65    C     0.99228   0.89439   0.09751   0.00000  Uiso   1.00
C66    C     0.07520   0.95382   0.12513   0.00000  Uiso   1.00
C67    C     0.70825   0.91009   0.01313   0.00000  Uiso   1.00
C68    C     0.61578   0.88745   0.95143   0.00000  Uiso   1.00
C69    C     0.52650   0.94371   0.91224   0.00000  Uiso   1.00
H70    H     0.82333   0.05753   0.12099   0.00000  Uiso   1.00
H71    H     0.84485   0.98404   0.19761   0.00000  Uiso   1.00
H72    H     0.00127   0.10840   0.15876   0.00000  Uiso   1.00
H73    H     0.62482   0.10146   0.01270   0.00000  Uiso   1.00
H74    H     0.86734   0.86899   0.27297   0.00000  Uiso   1.00
H75    H     0.19712   0.13122   0.19102   0.00000  Uiso   1.00
H76    H     0.40332   0.11659   0.88303   0.00000  Uiso   1.00
H77    H     0.81243   0.79879   0.04693   0.00000  Uiso   1.00
H78    H     0.83335   0.71110   0.11949   0.00000  Uiso   1.00
H79    H     0.98976   0.83547   0.08063   0.00000  Uiso   1.00
H80    H     0.61332   0.82852   0.93458   0.00000  Uiso   1.00
H81    H     0.85801   0.64747   0.20956   0.00000  Uiso   1.00
H82    H     0.18779   0.90970   0.12761   0.00000  Uiso   1.00
H83    H     0.39399   0.89506   0.81963   0.00000  Uiso   1.00
O84    O     0.87667   0.70522   0.29034   0.00000  Uiso   1.00
O85    O     0.30931   0.04926   0.18282   0.00000  Uiso   1.00
O86    O     0.26787   0.03005   0.77876   0.00000  Uiso   1.00
N87    N     0.86225   0.82889   0.24808   0.00000  Uiso   1.00
N88    N     0.17059   0.07405   0.17147   0.00000  Uiso   1.00
N89    N     0.42846   0.06038   0.88353   0.00000  Uiso   1.00
N90    N     0.85722   0.70969   0.21396   0.00000  Uiso   1.00
N91    N     0.16556   0.95485   0.13735   0.00000  Uiso   1.00
N92    N     0.42344   0.94118   0.84941   0.00000  Uiso   1.00
C93    C     0.67917   0.49825   0.39598   0.00000  Uiso   1.00
C94    C     0.66900   0.42244   0.36462   0.00000  Uiso   1.00
C95    C     0.65764   0.42510   0.31924   0.00000  Uiso   1.00
C96    C     0.64958   0.34884   0.29640   0.00000  Uiso   1.00
C97    C     0.63324   0.24272   0.24438   0.00000  Uiso   1.00
C98    C     0.58400   0.49001   0.38572   0.00000  Uiso   1.00
C99    C     0.50119   0.54948   0.35810   0.00000  Uiso   1.00
C100   C     0.42159   0.53009   0.35303   0.00000  Uiso   1.00
C101   C     0.27335   0.52889   0.33381   0.00000  Uiso   1.00
C102   C     0.78854   0.48623   0.46508   0.00000  Uiso   1.00
C103   C     0.87769   0.54254   0.50418   0.00000  Uiso   1.00
C104   C     0.97029   0.51998   0.56592   0.00000  Uiso   1.00
C105   C     0.13961   0.51292   0.66991   0.00000  Uiso   1.00
C106   C     0.68507   0.35807   0.43610   0.00000  Uiso   1.00
C107   C     0.67220   0.34630   0.38642   0.00000  Uiso   1.00
C108   C     0.66417   0.27001   0.36364   0.00000  Uiso   1.00
C109   C     0.65280   0.27256   0.31824   0.00000  Uiso   1.00
C110   C     0.58721   0.41387   0.40752   0.00000  Uiso   1.00
C111   C     0.50772   0.39439   0.40249   0.00000  Uiso   1.00
C112   C     0.42480   0.45382   0.37487   0.00000  Uiso   1.00
C113   C     0.79175   0.41009   0.48687   0.00000  Uiso   1.00
C114   C     0.88422   0.38745   0.54857   0.00000  Uiso   1.00
C115   C     0.97350   0.44371   0.58776   0.00000  Uiso   1.00
H116   H     0.67667   0.55753   0.37901   0.00000  Uiso   1.00
H117   H     0.65515   0.48404   0.30239   0.00000  Uiso   1.00
H118   H     0.49873   0.60840   0.34124   0.00000  Uiso   1.00
H119   H     0.87518   0.60146   0.48730   0.00000  Uiso   1.00
H120   H     0.63266   0.36899   0.22703   0.00000  Uiso   1.00
H121   H     0.30288   0.63122   0.30898   0.00000  Uiso   1.00
H122   H     0.09668   0.61659   0.61697   0.00000  Uiso   1.00
H123   H     0.68757   0.29879   0.45307   0.00000  Uiso   1.00
H124   H     0.66665   0.21110   0.38051   0.00000  Uiso   1.00
H125   H     0.51024   0.33547   0.41937   0.00000  Uiso   1.00
H126   H     0.88668   0.32852   0.56542   0.00000  Uiso   1.00
H127   H     0.64199   0.14747   0.29044   0.00000  Uiso   1.00
H128   H     0.31221   0.40970   0.37239   0.00000  Uiso   1.00
H129   H     0.10601   0.39506   0.68037   0.00000  Uiso   1.00
O130   O     0.62333   0.20522   0.20966   0.00000  Uiso   1.00
O131   O     0.19069   0.54926   0.31718   0.00000  Uiso   1.00
O132   O     0.23213   0.53005   0.72124   0.00000  Uiso   1.00
N133   N     0.63775   0.32889   0.25192   0.00000  Uiso   1.00
N134   N     0.32941   0.57405   0.32853   0.00000  Uiso   1.00
N135   N     0.07154   0.56038   0.61647   0.00000  Uiso   1.00
N136   N     0.64278   0.20969   0.28604   0.00000  Uiso   1.00
N137   N     0.33444   0.45485   0.36265   0.00000  Uiso   1.00
N138   N     0.07656   0.44118   0.65059   0.00000  Uiso   1.00
C139   C     0.17917   0.99825   0.39598   0.00000  Uiso   1.00
C140   C     0.16900   0.92244   0.36462   0.00000  Uiso   1.00
C141   C     0.15764   0.92510   0.31924   0.00000  Uiso   1.00
C142   C     0.14958   0.84884   0.29640   0.00000  Uiso   1.00
C143   C     0.13324   0.74272   0.24438   0.00000  Uiso   1.00
C144   C     0.08400   0.99001   0.38572   0.00000  Uiso   1.00
C145   C     0.00119   0.04948   0.35810   0.00000  Uiso   1.00
C146   C     0.92159   0.03009   0.35303   0.00000  Uiso   1.00
C147   C     0.77335   0.02889   0.33381   0.00000  Uiso   1.00
C148   C     0.28854   0.98623   0.46508   0.00000  Uiso   1.00
C149   C     0.37769   0.04254   0.50418   0.00000  Uiso   1.00
C150   C     0.47029   0.01998   0.56592   0.00000  Uiso   1.00
C151   C     0.63961   0.01292   0.66991   0.00000  Uiso   1.00
C152   C     0.18507   0.85807   0.43610   0.00000  Uiso   1.00
C153   C     0.17220   0.84630   0.38642   0.00000  Uiso   1.00
C154   C     0.16417   0.77001   0.36364   0.00000  Uiso   1.00
C155   C     0.15280   0.77256   0.31824   0.00000  Uiso   1.00
C156   C     0.08721   0.91387   0.40752   0.00000  Uiso   1.00
C157   C     0.00772   0.89439   0.40249   0.00000  Uiso   1.00
C158   C     0.92480   0.95382   0.37487   0.00000  Uiso   1.00
C159   C     0.29175   0.91009   0.48687   0.00000  Uiso   1.00
C160   C     0.38422   0.88745   0.54857   0.00000  Uiso   1.00
C161   C     0.47350   0.94371   0.58776   0.00000  Uiso   1.00
H162   H     0.17667   0.05753   0.37901   0.00000  Uiso   1.00
H163   H     0.15515   0.98404   0.30239   0.00000  Uiso   1.00
H164   H     0.99873   0.10840   0.34124   0.00000  Uiso   1.00
H165   H     0.37518   0.10146   0.48730   0.00000  Uiso   1.00
H166   H     0.13266   0.86899   0.22703   0.00000  Uiso   1.00
H167   H     0.80288   0.13122   0.30898   0.00000  Uiso   1.00
H168   H     0.59668   0.11659   0.61697   0.00000  Uiso   1.00
H169   H     0.18757   0.79879   0.45307   0.00000  Uiso   1.00
H170   H     0.16665   0.71110   0.38051   0.00000  Uiso   1.00
H171   H     0.01024   0.83547   0.41937   0.00000  Uiso   1.00
H172   H     0.38668   0.82852   0.56542   0.00000  Uiso   1.00
H173   H     0.14199   0.64747   0.29044   0.00000  Uiso   1.00
H174   H     0.81221   0.90970   0.37239   0.00000  Uiso   1.00
H175   H     0.60601   0.89506   0.68037   0.00000  Uiso   1.00
O176   O     0.12333   0.70522   0.20966   0.00000  Uiso   1.00
O177   O     0.69069   0.04926   0.31718   0.00000  Uiso   1.00
O178   O     0.73213   0.03005   0.72124   0.00000  Uiso   1.00
N179   N     0.13775   0.82889   0.25192   0.00000  Uiso   1.00
N180   N     0.82941   0.07405   0.32853   0.00000  Uiso   1.00
N181   N     0.57154   0.06038   0.61647   0.00000  Uiso   1.00
N182   N     0.14278   0.70969   0.28604   0.00000  Uiso   1.00
N183   N     0.83444   0.95485   0.36265   0.00000  Uiso   1.00
N184   N     0.57656   0.94118   0.65059   0.00000  Uiso   1.00
C185   C     0.67917   0.50175   0.89598   0.00000  Uiso   1.00
C186   C     0.66900   0.57756   0.86462   0.00000  Uiso   1.00
C187   C     0.65764   0.57490   0.81924   0.00000  Uiso   1.00
C188   C     0.64958   0.65116   0.79640   0.00000  Uiso   1.00
C189   C     0.63324   0.75728   0.74438   0.00000  Uiso   1.00
C190   C     0.58400   0.50999   0.88572   0.00000  Uiso   1.00
C191   C     0.50119   0.45052   0.85810   0.00000  Uiso   1.00
C192   C     0.42159   0.46991   0.85303   0.00000  Uiso   1.00
C193   C     0.27335   0.47111   0.83381   0.00000  Uiso   1.00
C194   C     0.78854   0.51377   0.96508   0.00000  Uiso   1.00
C195   C     0.87769   0.45746   0.00418   0.00000  Uiso   1.00
C196   C     0.97029   0.48002   0.06592   0.00000  Uiso   1.00
C197   C     0.13961   0.48708   0.16991   0.00000  Uiso   1.00
C198   C     0.68507   0.64193   0.93610   0.00000  Uiso   1.00
C199   C     0.67220   0.65370   0.88642   0.00000  Uiso   1.00
C200   C     0.66417   0.72999   0.86364   0.00000  Uiso   1.00
C201   C     0.65280   0.72744   0.81824   0.00000  Uiso   1.00
C202   C     0.58721   0.58613   0.90752   0.00000  Uiso   1.00
C203   C     0.50772   0.60561   0.90249   0.00000  Uiso   1.00
C204   C     0.42480   0.54618   0.87487   0.00000  Uiso   1.00
C205   C     0.79175   0.58991   0.98687   0.00000  Uiso   1.00
C206   C     0.88422   0.61255   0.04857   0.00000  Uiso   1.00
C207   C     0.97350   0.55629   0.08776   0.00000  Uiso   1.00
H208   H     0.67667   0.44247   0.87901   0.00000  Uiso   1.00
H209   H     0.65515   0.51596   0.80239   0.00000  Uiso   1.00
H210   H     0.49873   0.39160   0.84124   0.00000  Uiso   1.00
H211   H     0.87518   0.39854   0.98730   0.00000  Uiso   1.00
H212   H     0.63266   0.63101   0.72703   0.00000  Uiso   1.00
H213   H     0.30288   0.36878   0.80898   0.00000  Uiso   1.00
H214   H     0.09668   0.38341   0.11697   0.00000  Uiso   1.00
H215   H     0.68757   0.70121   0.95307   0.00000  Uiso   1.00
H216   H     0.66665   0.78890   0.88051   0.00000  Uiso   1.00
H217   H     0.51024   0.66453   0.91937   0.00000  Uiso   1.00
H218   H     0.88668   0.67148   0.06542   0.00000  Uiso   1.00
H219   H     0.64199   0.85253   0.79044   0.00000  Uiso   1.00
H220   H     0.31221   0.59030   0.87239   0.00000  Uiso   1.00
H221   H     0.10601   0.60494   0.18037   0.00000  Uiso   1.00
O222   O     0.62333   0.79478   0.70966   0.00000  Uiso   1.00
O223   O     0.19069   0.45074   0.81718   0.00000  Uiso   1.00
O224   O     0.23213   0.46995   0.22124   0.00000  Uiso   1.00
N225   N     0.63775   0.67111   0.75192   0.00000  Uiso   1.00
N226   N     0.32941   0.42595   0.82853   0.00000  Uiso   1.00
N227   N     0.07154   0.43962   0.11647   0.00000  Uiso   1.00
N228   N     0.64278   0.79031   0.78604   0.00000  Uiso   1.00
N229   N     0.33444   0.54515   0.86265   0.00000  Uiso   1.00
N230   N     0.07656   0.55882   0.15059   0.00000  Uiso   1.00
C231   C     0.17917   0.00175   0.89598   0.00000  Uiso   1.00
C232   C     0.16900   0.07756   0.86462   0.00000  Uiso   1.00
C233   C     0.15764   0.07490   0.81924   0.00000  Uiso   1.00
C234   C     0.14958   0.15116   0.79640   0.00000  Uiso   1.00
C235   C     0.13324   0.25728   0.74438   0.00000  Uiso   1.00
C236   C     0.08400   0.00999   0.88572   0.00000  Uiso   1.00
C237   C     0.00119   0.95052   0.85810   0.00000  Uiso   1.00
C238   C     0.92159   0.96991   0.85303   0.00000  Uiso   1.00
C239   C     0.77335   0.97111   0.83381   0.00000  Uiso   1.00
C240   C     0.28854   0.01377   0.96508   0.00000  Uiso   1.00
C241   C     0.37769   0.95746   0.00418   0.00000  Uiso   1.00
C242   C     0.47029   0.98002   0.06592   0.00000  Uiso   1.00
C243   C     0.63961   0.98708   0.16991   0.00000  Uiso   1.00
C244   C     0.18507   0.14193   0.93610   0.00000  Uiso   1.00
C245   C     0.17220   0.15370   0.88642   0.00000  Uiso   1.00
C246   C     0.16417   0.22999   0.86364   0.00000  Uiso   1.00
C247   C     0.15280   0.22744   0.81824   0.00000  Uiso   1.00
C248   C     0.08721   0.08613   0.90752   0.00000  Uiso   1.00
C249   C     0.00772   0.10561   0.90249   0.00000  Uiso   1.00
C250   C     0.92480   0.04618   0.87487   0.00000  Uiso   1.00
C251   C     0.29175   0.08991   0.98687   0.00000  Uiso   1.00
C252   C     0.38422   0.11255   0.04857   0.00000  Uiso   1.00
C253   C     0.47350   0.05629   0.08776   0.00000  Uiso   1.00
H254   H     0.17667   0.94247   0.87901   0.00000  Uiso   1.00
H255   H     0.15515   0.01596   0.80239   0.00000  Uiso   1.00
H256   H     0.99873   0.89160   0.84124   0.00000  Uiso   1.00
H257   H     0.37518   0.89854   0.98730   0.00000  Uiso   1.00
H258   H     0.13266   0.13101   0.72703   0.00000  Uiso   1.00
H259   H     0.80288   0.86878   0.80898   0.00000  Uiso   1.00
H260   H     0.59668   0.88341   0.11697   0.00000  Uiso   1.00
H261   H     0.18757   0.20121   0.95307   0.00000  Uiso   1.00
H262   H     0.16665   0.28890   0.88051   0.00000  Uiso   1.00
H263   H     0.01024   0.16453   0.91937   0.00000  Uiso   1.00
H264   H     0.38668   0.17148   0.06542   0.00000  Uiso   1.00
H265   H     0.14199   0.35253   0.79044   0.00000  Uiso   1.00
H266   H     0.81221   0.09030   0.87239   0.00000  Uiso   1.00
H267   H     0.60601   0.10494   0.18037   0.00000  Uiso   1.00
O268   O     0.12333   0.29478   0.70966   0.00000  Uiso   1.00
O269   O     0.69069   0.95074   0.81718   0.00000  Uiso   1.00
O270   O     0.73213   0.96995   0.22124   0.00000  Uiso   1.00
N271   N     0.13775   0.17111   0.75192   0.00000  Uiso   1.00
N272   N     0.82941   0.92595   0.82853   0.00000  Uiso   1.00
N273   N     0.57154   0.93962   0.11647   0.00000  Uiso   1.00
N274   N     0.14278   0.29031   0.78604   0.00000  Uiso   1.00
N275   N     0.83444   0.04515   0.86265   0.00000  Uiso   1.00
N276   N     0.57656   0.05882   0.15059   0.00000  Uiso   1.00
C277   C     0.32083   0.50175   0.60402   0.00000  Uiso   1.00
C278   C     0.33100   0.57756   0.63538   0.00000  Uiso   1.00
C279   C     0.34236   0.57490   0.68076   0.00000  Uiso   1.00
C280   C     0.35042   0.65116   0.70360   0.00000  Uiso   1.00
C281   C     0.36676   0.75728   0.75562   0.00000  Uiso   1.00
C282   C     0.41600   0.50999   0.61428   0.00000  Uiso   1.00
C283   C     0.49881   0.45052   0.64190   0.00000  Uiso   1.00
C284   C     0.57841   0.46991   0.64697   0.00000  Uiso   1.00
C285   C     0.72665   0.47111   0.66619   0.00000  Uiso   1.00
C286   C     0.21146   0.51377   0.53492   0.00000  Uiso   1.00
C287   C     0.12231   0.45746   0.49582   0.00000  Uiso   1.00
C288   C     0.02971   0.48002   0.43408   0.00000  Uiso   1.00
C289   C     0.86039   0.48708   0.33009   0.00000  Uiso   1.00
C290   C     0.31493   0.64193   0.56390   0.00000  Uiso   1.00
C291   C     0.32780   0.65370   0.61358   0.00000  Uiso   1.00
C292   C     0.33583   0.72999   0.63636   0.00000  Uiso   1.00
C293   C     0.34720   0.72744   0.68176   0.00000  Uiso   1.00
C294   C     0.41279   0.58613   0.59248   0.00000  Uiso   1.00
C295   C     0.49228   0.60561   0.59751   0.00000  Uiso   1.00
C296   C     0.57520   0.54618   0.62513   0.00000  Uiso   1.00
C297   C     0.20825   0.58991   0.51313   0.00000  Uiso   1.00
C298   C     0.11578   0.61255   0.45143   0.00000  Uiso   1.00
C299   C     0.02650   0.55629   0.41224   0.00000  Uiso   1.00
H300   H     0.32333   0.44247   0.62099   0.00000  Uiso   1.00
H301   H     0.34485   0.51596   0.69761   0.00000  Uiso   1.00
H302   H     0.50127   0.39160   0.65876   0.00000  Uiso   1.00
H303   H     0.12482   0.39854   0.51270   0.00000  Uiso   1.00
H304   H     0.36734   0.63101   0.77297   0.00000  Uiso   1.00
H305   H     0.69712   0.36878   0.69102   0.00000  Uiso   1.00
H306   H     0.90332   0.38341   0.38303   0.00000  Uiso   1.00
H307   H     0.31243   0.70121   0.54693   0.00000  Uiso   1.00
H308   H     0.33335   0.78890   0.61949   0.00000  Uiso   1.00
H309   H     0.48976   0.66453   0.58063   0.00000  Uiso   1.00
H310   H     0.11332   0.67148   0.43458   0.00000  Uiso   1.00
H311   H     0.35801   0.85253   0.70956   0.00000  Uiso   1.00
H312   H     0.68779   0.59030   0.62761   0.00000  Uiso   1.00
H313   H     0.89399   0.60494   0.31963   0.00000  Uiso   1.00
O314   O     0.37667   0.79478   0.79034   0.00000  Uiso   1.00
O315   O     0.80931   0.45074   0.68282   0.00000  Uiso   1.00
O316   O     0.76787   0.46995   0.27876   0.00000  Uiso   1.00
N317   N     0.36225   0.67111   0.74808   0.00000  Uiso   1.00
N318   N     0.67059   0.42595   0.67147   0.00000  Uiso   1.00
N319   N     0.92846   0.43962   0.38353   0.00000  Uiso   1.00
N320   N     0.35722   0.79031   0.71396   0.00000  Uiso   1.00
N321   N     0.66556   0.54515   0.63735   0.00000  Uiso   1.00
N322   N     0.92344   0.55882   0.34941   0.00000  Uiso   1.00
C323   C     0.82083   0.00175   0.60402   0.00000  Uiso   1.00
C324   C     0.83100   0.07756   0.63538   0.00000  Uiso   1.00
C325   C     0.84236   0.07490   0.68076   0.00000  Uiso   1.00
C326   C     0.85042   0.15116   0.70360   0.00000  Uiso   1.00
C327   C     0.86676   0.25728   0.75562   0.00000  Uiso   1.00
C328   C     0.91600   0.00999   0.61428   0.00000  Uiso   1.00
C329   C     0.99881   0.95052   0.64190   0.00000  Uiso   1.00
C330   C     0.07841   0.96991   0.64697   0.00000  Uiso   1.00
C331   C     0.22665   0.97111   0.66619   0.00000  Uiso   1.00
C332   C     0.71146   0.01377   0.53492   0.00000  Uiso   1.00
C333   C     0.62231   0.95746   0.49582   0.00000  Uiso   1.00
C334   C     0.52971   0.98002   0.43408   0.00000  Uiso   1.00
C335   C     0.36039   0.98708   0.33009   0.00000  Uiso   1.00
C336   C     0.81493   0.14193   0.56390   0.00000  Uiso   1.00
C337   C     0.82780   0.15370   0.61358   0.00000  Uiso   1.00
C338   C     0.83583   0.22999   0.63636   0.00000  Uiso   1.00
C339   C     0.84720   0.22744   0.68176   0.00000  Uiso   1.00
C340   C     0.91279   0.08613   0.59248   0.00000  Uiso   1.00
C341   C     0.99228   0.10561   0.59751   0.00000  Uiso   1.00
C342   C     0.07520   0.04618   0.62513   0.00000  Uiso   1.00
C343   C     0.70825   0.08991   0.51313   0.00000  Uiso   1.00
C344   C     0.61578   0.11255   0.45143   0.00000  Uiso   1.00
C345   C     0.52650   0.05629   0.41224   0.00000  Uiso   1.00
H346   H     0.82333   0.94247   0.62099   0.00000  Uiso   1.00
H347   H     0.84485   0.01596   0.69761   0.00000  Uiso   1.00
H348   H     0.00127   0.89160   0.65876   0.00000  Uiso   1.00
H349   H     0.62482   0.89854   0.51270   0.00000  Uiso   1.00
H350   H     0.86734   0.13101   0.77297   0.00000  Uiso   1.00
H351   H     0.19712   0.86878   0.69102   0.00000  Uiso   1.00
H352   H     0.40332   0.88341   0.38303   0.00000  Uiso   1.00
H353   H     0.81243   0.20121   0.54693   0.00000  Uiso   1.00
H354   H     0.83335   0.28890   0.61949   0.00000  Uiso   1.00
H355   H     0.98976   0.16453   0.58063   0.00000  Uiso   1.00
H356   H     0.61332   0.17148   0.43458   0.00000  Uiso   1.00
H357   H     0.85801   0.35253   0.70956   0.00000  Uiso   1.00
H358   H     0.18779   0.09030   0.62761   0.00000  Uiso   1.00
H359   H     0.39399   0.10494   0.31963   0.00000  Uiso   1.00
O360   O     0.87667   0.29478   0.79034   0.00000  Uiso   1.00
O361   O     0.30931   0.95074   0.68282   0.00000  Uiso   1.00
O362   O     0.26787   0.96995   0.27876   0.00000  Uiso   1.00
N363   N     0.86225   0.17111   0.74808   0.00000  Uiso   1.00
N364   N     0.17059   0.92595   0.67147   0.00000  Uiso   1.00
N365   N     0.42846   0.93962   0.38353   0.00000  Uiso   1.00
N366   N     0.85722   0.29031   0.71396   0.00000  Uiso   1.00
N367   N     0.16556   0.04515   0.63735   0.00000  Uiso   1.00
N368   N     0.42344   0.05882   0.34941   0.00000  Uiso   1.00
