data_job_03751
_audit_creation_date              2018-12-19
_audit_creation_method            'Materials Studio'
_symmetry_space_group_name_H-M    'P1'
_symmetry_Int_Tables_number       1
_symmetry_cell_setting            triclinic
loop_
_symmetry_equiv_pos_as_xyz
  x,y,z
_cell_length_a                    36.0466
_cell_length_b                    13.8794
_cell_length_c                    10.4964
_cell_angle_alpha                 90.0000
_cell_angle_beta                  90.0000
_cell_angle_gamma                 90.0000
loop_
_atom_site_label
_atom_site_type_symbol
_atom_site_fract_x
_atom_site_fract_y
_atom_site_fract_z
_atom_site_U_iso_or_equiv
_atom_site_adp_type
_atom_site_occupancy
C1     C     0.88332   0.33541   0.02693   0.00000  Uiso   1.00
C2     C     0.90807   0.27094   0.10827   0.00000  Uiso   1.00
C3     C     0.94525   0.28708   0.13514   0.00000  Uiso   1.00
C4     C     0.96302   0.21961   0.21138   0.00000  Uiso   1.00
C5     C     0.00430   0.13175   0.33038   0.00000  Uiso   1.00
C6     C     0.86784   0.27116   0.92176   0.00000  Uiso   1.00
C7     C     0.87119   0.28749   0.79182   0.00000  Uiso   1.00
C8     C     0.85509   0.22021   0.71105   0.00000  Uiso   1.00
C9     C     0.83390   0.13272   0.54050   0.00000  Uiso   1.00
C10    C     0.85037   0.36234   0.11079   0.00000  Uiso   1.00
C11    C     0.83902   0.45534   0.13977   0.00000  Uiso   1.00
C12    C     0.80821   0.46482   0.21814   0.00000  Uiso   1.00
C13    C     0.75989   0.51891   0.34109   0.00000  Uiso   1.00
C14    C     0.84876   0.18687   0.11453   0.00000  Uiso   1.00
C15    C     0.88930   0.19026   0.15584   0.00000  Uiso   1.00
C16    C     0.90701   0.12274   0.23207   0.00000  Uiso   1.00
C17    C     0.94421   0.13879   0.25905   0.00000  Uiso   1.00
C18    C     0.84907   0.19048   0.96933   0.00000  Uiso   1.00
C19    C     0.83295   0.12315   0.88874   0.00000  Uiso   1.00
C20    C     0.83628   0.13938   0.75872   0.00000  Uiso   1.00
C21    C     0.83160   0.28166   0.15838   0.00000  Uiso   1.00
C22    C     0.80079   0.29100   0.23670   0.00000  Uiso   1.00
C23    C     0.78940   0.38400   0.26580   0.00000  Uiso   1.00
H24    H     0.89793   0.39822   0.98988   0.00000  Uiso   1.00
H25    H     0.95977   0.34952   0.09829   0.00000  Uiso   1.00
H26    H     0.88571   0.34994   0.75503   0.00000  Uiso   1.00
H27    H     0.85356   0.51776   0.10293   0.00000  Uiso   1.00
H28    H     0.02004   0.25994   0.23943   0.00000  Uiso   1.00
H29    H     0.86389   0.26083   0.51564   0.00000  Uiso   1.00
H30    H     0.79608   0.61471   0.24926   0.00000  Uiso   1.00
H31    H     0.83414   0.12406   0.15158   0.00000  Uiso   1.00
H32    H     0.89248   0.06032   0.26887   0.00000  Uiso   1.00
H33    H     0.81843   0.06073   0.92560   0.00000  Uiso   1.00
H34    H     0.78627   0.22855   0.27351   0.00000  Uiso   1.00
H35    H     0.96543   0.02520   0.37788   0.00000  Uiso   1.00
H36    H     0.80928   0.02610   0.65408   0.00000  Uiso   1.00
H37    H     0.74147   0.37998   0.38771   0.00000  Uiso   1.00
O38    O     0.03227   0.10557   0.38286   0.00000  Uiso   1.00
O39    O     0.82740   0.10675   0.43327   0.00000  Uiso   1.00
O40    O     0.73843   0.57104   0.39577   0.00000  Uiso   1.00
N41    N     0.99918   0.21345   0.25594   0.00000  Uiso   1.00
N42    N     0.85320   0.21428   0.57923   0.00000  Uiso   1.00
N43    N     0.78979   0.54513   0.26508   0.00000  Uiso   1.00
N44    N     0.96980   0.08714   0.33044   0.00000  Uiso   1.00
N45    N     0.82381   0.08797   0.65373   0.00000  Uiso   1.00
N46    N     0.76041   0.41882   0.33958   0.00000  Uiso   1.00
C47    C     0.38332   0.83541   0.52693   0.00000  Uiso   1.00
C48    C     0.40807   0.77094   0.60827   0.00000  Uiso   1.00
C49    C     0.44525   0.78708   0.63514   0.00000  Uiso   1.00
C50    C     0.46302   0.71961   0.71138   0.00000  Uiso   1.00
C51    C     0.50430   0.63175   0.83038   0.00000  Uiso   1.00
C52    C     0.36784   0.77116   0.42176   0.00000  Uiso   1.00
C53    C     0.37119   0.78749   0.29182   0.00000  Uiso   1.00
C54    C     0.35509   0.72021   0.21105   0.00000  Uiso   1.00
C55    C     0.33390   0.63272   0.04050   0.00000  Uiso   1.00
C56    C     0.35037   0.86234   0.61079   0.00000  Uiso   1.00
C57    C     0.33902   0.95534   0.63977   0.00000  Uiso   1.00
C58    C     0.30821   0.96482   0.71814   0.00000  Uiso   1.00
C59    C     0.25989   0.01891   0.84109   0.00000  Uiso   1.00
C60    C     0.34876   0.68687   0.61453   0.00000  Uiso   1.00
C61    C     0.38930   0.69026   0.65584   0.00000  Uiso   1.00
C62    C     0.40701   0.62274   0.73207   0.00000  Uiso   1.00
C63    C     0.44421   0.63879   0.75905   0.00000  Uiso   1.00
C64    C     0.34907   0.69048   0.46933   0.00000  Uiso   1.00
C65    C     0.33295   0.62315   0.38874   0.00000  Uiso   1.00
C66    C     0.33628   0.63938   0.25872   0.00000  Uiso   1.00
C67    C     0.33160   0.78166   0.65838   0.00000  Uiso   1.00
C68    C     0.30079   0.79100   0.73670   0.00000  Uiso   1.00
C69    C     0.28940   0.88400   0.76580   0.00000  Uiso   1.00
H70    H     0.39793   0.89822   0.48988   0.00000  Uiso   1.00
H71    H     0.45977   0.84952   0.59829   0.00000  Uiso   1.00
H72    H     0.38571   0.84994   0.25503   0.00000  Uiso   1.00
H73    H     0.35356   0.01776   0.60293   0.00000  Uiso   1.00
H74    H     0.52004   0.75994   0.73943   0.00000  Uiso   1.00
H75    H     0.36389   0.76083   0.01564   0.00000  Uiso   1.00
H76    H     0.29608   0.11471   0.74926   0.00000  Uiso   1.00
H77    H     0.33414   0.62406   0.65158   0.00000  Uiso   1.00
H78    H     0.39248   0.56032   0.76887   0.00000  Uiso   1.00
H79    H     0.31843   0.56073   0.42560   0.00000  Uiso   1.00
H80    H     0.28627   0.72855   0.77351   0.00000  Uiso   1.00
H81    H     0.46543   0.52520   0.87788   0.00000  Uiso   1.00
H82    H     0.30928   0.52610   0.15408   0.00000  Uiso   1.00
H83    H     0.24147   0.87998   0.88771   0.00000  Uiso   1.00
O84    O     0.53227   0.60557   0.88286   0.00000  Uiso   1.00
O85    O     0.32740   0.60675   0.93327   0.00000  Uiso   1.00
O86    O     0.23843   0.07104   0.89577   0.00000  Uiso   1.00
N87    N     0.49918   0.71345   0.75594   0.00000  Uiso   1.00
N88    N     0.35320   0.71428   0.07923   0.00000  Uiso   1.00
N89    N     0.28979   0.04513   0.76508   0.00000  Uiso   1.00
N90    N     0.46980   0.58714   0.83044   0.00000  Uiso   1.00
N91    N     0.32381   0.58797   0.15373   0.00000  Uiso   1.00
N92    N     0.26041   0.91882   0.83958   0.00000  Uiso   1.00
C93    C     0.11668   0.66459   0.02693   0.00000  Uiso   1.00
C94    C     0.09193   0.72906   0.10827   0.00000  Uiso   1.00
C95    C     0.05475   0.71292   0.13514   0.00000  Uiso   1.00
C96    C     0.03698   0.78039   0.21138   0.00000  Uiso   1.00
C97    C     0.99570   0.86825   0.33038   0.00000  Uiso   1.00
C98    C     0.13216   0.72884   0.92176   0.00000  Uiso   1.00
C99    C     0.12881   0.71251   0.79182   0.00000  Uiso   1.00
C100   C     0.14491   0.77979   0.71105   0.00000  Uiso   1.00
C101   C     0.16610   0.86728   0.54050   0.00000  Uiso   1.00
C102   C     0.14963   0.63766   0.11079   0.00000  Uiso   1.00
C103   C     0.16098   0.54466   0.13977   0.00000  Uiso   1.00
C104   C     0.19179   0.53518   0.21814   0.00000  Uiso   1.00
C105   C     0.24011   0.48109   0.34109   0.00000  Uiso   1.00
C106   C     0.15124   0.81313   0.11453   0.00000  Uiso   1.00
C107   C     0.11070   0.80974   0.15584   0.00000  Uiso   1.00
C108   C     0.09299   0.87726   0.23207   0.00000  Uiso   1.00
C109   C     0.05579   0.86121   0.25905   0.00000  Uiso   1.00
C110   C     0.15093   0.80952   0.96933   0.00000  Uiso   1.00
C111   C     0.16705   0.87685   0.88874   0.00000  Uiso   1.00
C112   C     0.16372   0.86062   0.75872   0.00000  Uiso   1.00
C113   C     0.16840   0.71834   0.15838   0.00000  Uiso   1.00
C114   C     0.19921   0.70900   0.23670   0.00000  Uiso   1.00
C115   C     0.21060   0.61600   0.26580   0.00000  Uiso   1.00
H116   H     0.10207   0.60178   0.98988   0.00000  Uiso   1.00
H117   H     0.04023   0.65048   0.09829   0.00000  Uiso   1.00
H118   H     0.11429   0.65006   0.75503   0.00000  Uiso   1.00
H119   H     0.14644   0.48224   0.10293   0.00000  Uiso   1.00
H120   H     0.97996   0.74006   0.23943   0.00000  Uiso   1.00
H121   H     0.13611   0.73917   0.51564   0.00000  Uiso   1.00
H122   H     0.20392   0.38529   0.24926   0.00000  Uiso   1.00
H123   H     0.16586   0.87594   0.15158   0.00000  Uiso   1.00
H124   H     0.10752   0.93968   0.26887   0.00000  Uiso   1.00
H125   H     0.18157   0.93927   0.92560   0.00000  Uiso   1.00
H126   H     0.21373   0.77145   0.27351   0.00000  Uiso   1.00
H127   H     0.03457   0.97480   0.37788   0.00000  Uiso   1.00
H128   H     0.19072   0.97390   0.65408   0.00000  Uiso   1.00
H129   H     0.25853   0.62002   0.38771   0.00000  Uiso   1.00
O130   O     0.96773   0.89443   0.38286   0.00000  Uiso   1.00
O131   O     0.17260   0.89325   0.43327   0.00000  Uiso   1.00
O132   O     0.26157   0.42896   0.39577   0.00000  Uiso   1.00
N133   N     0.00082   0.78655   0.25594   0.00000  Uiso   1.00
N134   N     0.14680   0.78572   0.57923   0.00000  Uiso   1.00
N135   N     0.21021   0.45487   0.26508   0.00000  Uiso   1.00
N136   N     0.03020   0.91286   0.33044   0.00000  Uiso   1.00
N137   N     0.17619   0.91203   0.65373   0.00000  Uiso   1.00
N138   N     0.23959   0.58118   0.33958   0.00000  Uiso   1.00
C139   C     0.61668   0.16459   0.52693   0.00000  Uiso   1.00
C140   C     0.59193   0.22906   0.60827   0.00000  Uiso   1.00
C141   C     0.55475   0.21292   0.63514   0.00000  Uiso   1.00
C142   C     0.53698   0.28039   0.71138   0.00000  Uiso   1.00
C143   C     0.49570   0.36825   0.83038   0.00000  Uiso   1.00
C144   C     0.63216   0.22884   0.42176   0.00000  Uiso   1.00
C145   C     0.62881   0.21251   0.29182   0.00000  Uiso   1.00
C146   C     0.64491   0.27979   0.21105   0.00000  Uiso   1.00
C147   C     0.66610   0.36728   0.04050   0.00000  Uiso   1.00
C148   C     0.64963   0.13766   0.61079   0.00000  Uiso   1.00
C149   C     0.66098   0.04466   0.63977   0.00000  Uiso   1.00
C150   C     0.69179   0.03518   0.71814   0.00000  Uiso   1.00
C151   C     0.74011   0.98109   0.84109   0.00000  Uiso   1.00
C152   C     0.65124   0.31313   0.61453   0.00000  Uiso   1.00
C153   C     0.61070   0.30974   0.65584   0.00000  Uiso   1.00
C154   C     0.59299   0.37726   0.73207   0.00000  Uiso   1.00
C155   C     0.55579   0.36121   0.75905   0.00000  Uiso   1.00
C156   C     0.65093   0.30952   0.46933   0.00000  Uiso   1.00
C157   C     0.66705   0.37685   0.38874   0.00000  Uiso   1.00
C158   C     0.66372   0.36062   0.25872   0.00000  Uiso   1.00
C159   C     0.66840   0.21834   0.65838   0.00000  Uiso   1.00
C160   C     0.69921   0.20900   0.73670   0.00000  Uiso   1.00
C161   C     0.71060   0.11600   0.76580   0.00000  Uiso   1.00
H162   H     0.60207   0.10178   0.48988   0.00000  Uiso   1.00
H163   H     0.54023   0.15048   0.59829   0.00000  Uiso   1.00
H164   H     0.61429   0.15006   0.25503   0.00000  Uiso   1.00
H165   H     0.64644   0.98224   0.60293   0.00000  Uiso   1.00
H166   H     0.47996   0.24006   0.73943   0.00000  Uiso   1.00
H167   H     0.63611   0.23917   0.01564   0.00000  Uiso   1.00
H168   H     0.70392   0.88529   0.74926   0.00000  Uiso   1.00
H169   H     0.66586   0.37594   0.65158   0.00000  Uiso   1.00
H170   H     0.60752   0.43968   0.76887   0.00000  Uiso   1.00
H171   H     0.68157   0.43927   0.42560   0.00000  Uiso   1.00
H172   H     0.71373   0.27145   0.77351   0.00000  Uiso   1.00
H173   H     0.53457   0.47480   0.87788   0.00000  Uiso   1.00
H174   H     0.69072   0.47390   0.15408   0.00000  Uiso   1.00
H175   H     0.75853   0.12002   0.88771   0.00000  Uiso   1.00
O176   O     0.46773   0.39443   0.88286   0.00000  Uiso   1.00
O177   O     0.67260   0.39325   0.93327   0.00000  Uiso   1.00
O178   O     0.76157   0.92896   0.89577   0.00000  Uiso   1.00
N179   N     0.50082   0.28655   0.75594   0.00000  Uiso   1.00
N180   N     0.64680   0.28572   0.07923   0.00000  Uiso   1.00
N181   N     0.71021   0.95487   0.76508   0.00000  Uiso   1.00
N182   N     0.53020   0.41286   0.83044   0.00000  Uiso   1.00
N183   N     0.67619   0.41203   0.15373   0.00000  Uiso   1.00
N184   N     0.73959   0.08118   0.83958   0.00000  Uiso   1.00
C185   C     0.11668   0.33541   0.97307   0.00000  Uiso   1.00
C186   C     0.09193   0.27094   0.89173   0.00000  Uiso   1.00
C187   C     0.05475   0.28708   0.86486   0.00000  Uiso   1.00
C188   C     0.03698   0.21961   0.78862   0.00000  Uiso   1.00
C189   C     0.99570   0.13175   0.66962   0.00000  Uiso   1.00
C190   C     0.13216   0.27116   0.07824   0.00000  Uiso   1.00
C191   C     0.12881   0.28749   0.20818   0.00000  Uiso   1.00
C192   C     0.14491   0.22021   0.28895   0.00000  Uiso   1.00
C193   C     0.16610   0.13272   0.45950   0.00000  Uiso   1.00
C194   C     0.14963   0.36234   0.88921   0.00000  Uiso   1.00
C195   C     0.16098   0.45534   0.86023   0.00000  Uiso   1.00
C196   C     0.19179   0.46482   0.78186   0.00000  Uiso   1.00
C197   C     0.24011   0.51891   0.65891   0.00000  Uiso   1.00
C198   C     0.15124   0.18687   0.88547   0.00000  Uiso   1.00
C199   C     0.11070   0.19026   0.84416   0.00000  Uiso   1.00
C200   C     0.09299   0.12274   0.76793   0.00000  Uiso   1.00
C201   C     0.05579   0.13879   0.74095   0.00000  Uiso   1.00
C202   C     0.15093   0.19048   0.03067   0.00000  Uiso   1.00
C203   C     0.16705   0.12315   0.11126   0.00000  Uiso   1.00
C204   C     0.16372   0.13938   0.24128   0.00000  Uiso   1.00
C205   C     0.16840   0.28166   0.84162   0.00000  Uiso   1.00
C206   C     0.19921   0.29100   0.76330   0.00000  Uiso   1.00
C207   C     0.21060   0.38400   0.73420   0.00000  Uiso   1.00
H208   H     0.10207   0.39822   0.01012   0.00000  Uiso   1.00
H209   H     0.04023   0.34952   0.90171   0.00000  Uiso   1.00
H210   H     0.11429   0.34994   0.24497   0.00000  Uiso   1.00
H211   H     0.14644   0.51776   0.89707   0.00000  Uiso   1.00
H212   H     0.97996   0.25994   0.76057   0.00000  Uiso   1.00
H213   H     0.13611   0.26083   0.48436   0.00000  Uiso   1.00
H214   H     0.20392   0.61471   0.75074   0.00000  Uiso   1.00
H215   H     0.16586   0.12406   0.84842   0.00000  Uiso   1.00
H216   H     0.10752   0.06032   0.73113   0.00000  Uiso   1.00
H217   H     0.18157   0.06073   0.07440   0.00000  Uiso   1.00
H218   H     0.21373   0.22855   0.72649   0.00000  Uiso   1.00
H219   H     0.03457   0.02520   0.62212   0.00000  Uiso   1.00
H220   H     0.19072   0.02610   0.34592   0.00000  Uiso   1.00
H221   H     0.25853   0.37998   0.61229   0.00000  Uiso   1.00
O222   O     0.96773   0.10557   0.61714   0.00000  Uiso   1.00
O223   O     0.17260   0.10675   0.56673   0.00000  Uiso   1.00
O224   O     0.26157   0.57104   0.60423   0.00000  Uiso   1.00
N225   N     0.00082   0.21345   0.74406   0.00000  Uiso   1.00
N226   N     0.14680   0.21428   0.42077   0.00000  Uiso   1.00
N227   N     0.21021   0.54513   0.73492   0.00000  Uiso   1.00
N228   N     0.03020   0.08714   0.66956   0.00000  Uiso   1.00
N229   N     0.17619   0.08797   0.34627   0.00000  Uiso   1.00
N230   N     0.23959   0.41882   0.66042   0.00000  Uiso   1.00
C231   C     0.61668   0.83541   0.47307   0.00000  Uiso   1.00
C232   C     0.59193   0.77094   0.39173   0.00000  Uiso   1.00
C233   C     0.55475   0.78708   0.36486   0.00000  Uiso   1.00
C234   C     0.53698   0.71961   0.28862   0.00000  Uiso   1.00
C235   C     0.49570   0.63175   0.16962   0.00000  Uiso   1.00
C236   C     0.63216   0.77116   0.57824   0.00000  Uiso   1.00
C237   C     0.62881   0.78749   0.70818   0.00000  Uiso   1.00
C238   C     0.64491   0.72021   0.78895   0.00000  Uiso   1.00
C239   C     0.66610   0.63272   0.95950   0.00000  Uiso   1.00
C240   C     0.64963   0.86234   0.38921   0.00000  Uiso   1.00
C241   C     0.66098   0.95534   0.36023   0.00000  Uiso   1.00
C242   C     0.69179   0.96482   0.28186   0.00000  Uiso   1.00
C243   C     0.74011   0.01891   0.15891   0.00000  Uiso   1.00
C244   C     0.65124   0.68687   0.38547   0.00000  Uiso   1.00
C245   C     0.61070   0.69026   0.34416   0.00000  Uiso   1.00
C246   C     0.59299   0.62274   0.26793   0.00000  Uiso   1.00
C247   C     0.55579   0.63879   0.24095   0.00000  Uiso   1.00
C248   C     0.65093   0.69048   0.53067   0.00000  Uiso   1.00
C249   C     0.66705   0.62315   0.61126   0.00000  Uiso   1.00
C250   C     0.66372   0.63938   0.74128   0.00000  Uiso   1.00
C251   C     0.66840   0.78166   0.34162   0.00000  Uiso   1.00
C252   C     0.69921   0.79100   0.26330   0.00000  Uiso   1.00
C253   C     0.71060   0.88400   0.23420   0.00000  Uiso   1.00
H254   H     0.60207   0.89822   0.51012   0.00000  Uiso   1.00
H255   H     0.54023   0.84952   0.40171   0.00000  Uiso   1.00
H256   H     0.61429   0.84994   0.74497   0.00000  Uiso   1.00
H257   H     0.64644   0.01776   0.39707   0.00000  Uiso   1.00
H258   H     0.47996   0.75994   0.26057   0.00000  Uiso   1.00
H259   H     0.63611   0.76083   0.98436   0.00000  Uiso   1.00
H260   H     0.70392   0.11471   0.25074   0.00000  Uiso   1.00
H261   H     0.66586   0.62406   0.34842   0.00000  Uiso   1.00
H262   H     0.60752   0.56032   0.23113   0.00000  Uiso   1.00
H263   H     0.68157   0.56073   0.57440   0.00000  Uiso   1.00
H264   H     0.71373   0.72855   0.22649   0.00000  Uiso   1.00
H265   H     0.53457   0.52520   0.12212   0.00000  Uiso   1.00
H266   H     0.69072   0.52610   0.84592   0.00000  Uiso   1.00
H267   H     0.75853   0.87998   0.11229   0.00000  Uiso   1.00
O268   O     0.46773   0.60557   0.11714   0.00000  Uiso   1.00
O269   O     0.67260   0.60675   0.06673   0.00000  Uiso   1.00
O270   O     0.76157   0.07104   0.10423   0.00000  Uiso   1.00
N271   N     0.50082   0.71345   0.24406   0.00000  Uiso   1.00
N272   N     0.64680   0.71428   0.92077   0.00000  Uiso   1.00
N273   N     0.71021   0.04513   0.23492   0.00000  Uiso   1.00
N274   N     0.53020   0.58714   0.16956   0.00000  Uiso   1.00
N275   N     0.67619   0.58797   0.84627   0.00000  Uiso   1.00
N276   N     0.73959   0.91882   0.16042   0.00000  Uiso   1.00
C277   C     0.88332   0.66459   0.97307   0.00000  Uiso   1.00
C278   C     0.90807   0.72906   0.89173   0.00000  Uiso   1.00
C279   C     0.94525   0.71292   0.86486   0.00000  Uiso   1.00
C280   C     0.96302   0.78039   0.78862   0.00000  Uiso   1.00
C281   C     0.00430   0.86825   0.66962   0.00000  Uiso   1.00
C282   C     0.86784   0.72884   0.07824   0.00000  Uiso   1.00
C283   C     0.87119   0.71251   0.20818   0.00000  Uiso   1.00
C284   C     0.85509   0.77979   0.28895   0.00000  Uiso   1.00
C285   C     0.83390   0.86728   0.45950   0.00000  Uiso   1.00
C286   C     0.85037   0.63766   0.88921   0.00000  Uiso   1.00
C287   C     0.83902   0.54466   0.86023   0.00000  Uiso   1.00
C288   C     0.80821   0.53518   0.78186   0.00000  Uiso   1.00
C289   C     0.75989   0.48109   0.65891   0.00000  Uiso   1.00
C290   C     0.84876   0.81313   0.88547   0.00000  Uiso   1.00
C291   C     0.88930   0.80974   0.84416   0.00000  Uiso   1.00
C292   C     0.90701   0.87726   0.76793   0.00000  Uiso   1.00
C293   C     0.94421   0.86121   0.74095   0.00000  Uiso   1.00
C294   C     0.84907   0.80952   0.03067   0.00000  Uiso   1.00
C295   C     0.83295   0.87685   0.11126   0.00000  Uiso   1.00
C296   C     0.83628   0.86062   0.24128   0.00000  Uiso   1.00
C297   C     0.83160   0.71834   0.84162   0.00000  Uiso   1.00
C298   C     0.80079   0.70900   0.76330   0.00000  Uiso   1.00
C299   C     0.78940   0.61600   0.73420   0.00000  Uiso   1.00
H300   H     0.89793   0.60178   0.01012   0.00000  Uiso   1.00
H301   H     0.95977   0.65048   0.90171   0.00000  Uiso   1.00
H302   H     0.88571   0.65006   0.24497   0.00000  Uiso   1.00
H303   H     0.85356   0.48224   0.89707   0.00000  Uiso   1.00
H304   H     0.02004   0.74006   0.76057   0.00000  Uiso   1.00
H305   H     0.86389   0.73917   0.48436   0.00000  Uiso   1.00
H306   H     0.79608   0.38529   0.75074   0.00000  Uiso   1.00
H307   H     0.83414   0.87594   0.84842   0.00000  Uiso   1.00
H308   H     0.89248   0.93968   0.73113   0.00000  Uiso   1.00
H309   H     0.81843   0.93927   0.07440   0.00000  Uiso   1.00
H310   H     0.78627   0.77145   0.72649   0.00000  Uiso   1.00
H311   H     0.96543   0.97480   0.62212   0.00000  Uiso   1.00
H312   H     0.80928   0.97390   0.34592   0.00000  Uiso   1.00
H313   H     0.74147   0.62002   0.61229   0.00000  Uiso   1.00
O314   O     0.03227   0.89443   0.61714   0.00000  Uiso   1.00
O315   O     0.82740   0.89325   0.56673   0.00000  Uiso   1.00
O316   O     0.73843   0.42896   0.60423   0.00000  Uiso   1.00
N317   N     0.99918   0.78655   0.74406   0.00000  Uiso   1.00
N318   N     0.85320   0.78572   0.42077   0.00000  Uiso   1.00
N319   N     0.78979   0.45487   0.73492   0.00000  Uiso   1.00
N320   N     0.96980   0.91286   0.66956   0.00000  Uiso   1.00
N321   N     0.82381   0.91203   0.34627   0.00000  Uiso   1.00
N322   N     0.76041   0.58118   0.66042   0.00000  Uiso   1.00
C323   C     0.38332   0.16459   0.47307   0.00000  Uiso   1.00
C324   C     0.40807   0.22906   0.39173   0.00000  Uiso   1.00
C325   C     0.44525   0.21292   0.36486   0.00000  Uiso   1.00
C326   C     0.46302   0.28039   0.28862   0.00000  Uiso   1.00
C327   C     0.50430   0.36825   0.16962   0.00000  Uiso   1.00
C328   C     0.36784   0.22884   0.57824   0.00000  Uiso   1.00
C329   C     0.37119   0.21251   0.70818   0.00000  Uiso   1.00
C330   C     0.35509   0.27979   0.78895   0.00000  Uiso   1.00
C331   C     0.33390   0.36728   0.95950   0.00000  Uiso   1.00
C332   C     0.35037   0.13766   0.38921   0.00000  Uiso   1.00
C333   C     0.33902   0.04466   0.36023   0.00000  Uiso   1.00
C334   C     0.30821   0.03518   0.28186   0.00000  Uiso   1.00
C335   C     0.25989   0.98109   0.15891   0.00000  Uiso   1.00
C336   C     0.34876   0.31313   0.38547   0.00000  Uiso   1.00
C337   C     0.38930   0.30974   0.34416   0.00000  Uiso   1.00
C338   C     0.40701   0.37726   0.26793   0.00000  Uiso   1.00
C339   C     0.44421   0.36121   0.24095   0.00000  Uiso   1.00
C340   C     0.34907   0.30952   0.53067   0.00000  Uiso   1.00
C341   C     0.33295   0.37685   0.61126   0.00000  Uiso   1.00
C342   C     0.33628   0.36062   0.74128   0.00000  Uiso   1.00
C343   C     0.33160   0.21834   0.34162   0.00000  Uiso   1.00
C344   C     0.30079   0.20900   0.26330   0.00000  Uiso   1.00
C345   C     0.28940   0.11600   0.23420   0.00000  Uiso   1.00
H346   H     0.39793   0.10178   0.51012   0.00000  Uiso   1.00
H347   H     0.45977   0.15048   0.40171   0.00000  Uiso   1.00
H348   H     0.38571   0.15006   0.74497   0.00000  Uiso   1.00
H349   H     0.35356   0.98224   0.39707   0.00000  Uiso   1.00
H350   H     0.52004   0.24006   0.26057   0.00000  Uiso   1.00
H351   H     0.36389   0.23917   0.98436   0.00000  Uiso   1.00
H352   H     0.29608   0.88529   0.25074   0.00000  Uiso   1.00
H353   H     0.33414   0.37594   0.34842   0.00000  Uiso   1.00
H354   H     0.39248   0.43968   0.23113   0.00000  Uiso   1.00
H355   H     0.31843   0.43927   0.57440   0.00000  Uiso   1.00
H356   H     0.28627   0.27145   0.22649   0.00000  Uiso   1.00
H357   H     0.46543   0.47480   0.12212   0.00000  Uiso   1.00
H358   H     0.30928   0.47390   0.84592   0.00000  Uiso   1.00
H359   H     0.24147   0.12002   0.11229   0.00000  Uiso   1.00
O360   O     0.53227   0.39443   0.11714   0.00000  Uiso   1.00
O361   O     0.32740   0.39325   0.06673   0.00000  Uiso   1.00
O362   O     0.23843   0.92896   0.10423   0.00000  Uiso   1.00
N363   N     0.49918   0.28655   0.24406   0.00000  Uiso   1.00
N364   N     0.35320   0.28572   0.92077   0.00000  Uiso   1.00
N365   N     0.28979   0.95487   0.23492   0.00000  Uiso   1.00
N366   N     0.46980   0.41286   0.16956   0.00000  Uiso   1.00
N367   N     0.32381   0.41203   0.84627   0.00000  Uiso   1.00
N368   N     0.26041   0.08118   0.16042   0.00000  Uiso   1.00
