data_job_06813
_audit_creation_date              2018-12-19
_audit_creation_method            'Materials Studio'
_symmetry_space_group_name_H-M    'P1'
_symmetry_Int_Tables_number       1
_symmetry_cell_setting            triclinic
loop_
_symmetry_equiv_pos_as_xyz
  x,y,z
_cell_length_a                    16.0831
_cell_length_b                    19.3316
_cell_length_c                    27.7161
_cell_angle_alpha                 108.2564
_cell_angle_beta                  101.9209
_cell_angle_gamma                 73.1107
loop_
_atom_site_label
_atom_site_type_symbol
_atom_site_fract_x
_atom_site_fract_y
_atom_site_fract_z
_atom_site_U_iso_or_equiv
_atom_site_adp_type
_atom_site_occupancy
C1     C     0.56226   0.45935   0.82258   0.00000  Uiso   1.00
C2     C     0.64357   0.42497   0.79501   0.00000  Uiso   1.00
C3     C     0.65722   0.44184   0.75258   0.00000  Uiso   1.00
C4     C     0.73592   0.40430   0.73297   0.00000  Uiso   1.00
C5     C     0.85261   0.35887   0.68678   0.00000  Uiso   1.00
C6     C     0.52761   0.39362   0.82218   0.00000  Uiso   1.00
C7     C     0.44375   0.38414   0.80260   0.00000  Uiso   1.00
C8     C     0.42483   0.32022   0.80586   0.00000  Uiso   1.00
C9     C     0.36147   0.22615   0.80189   0.00000  Uiso   1.00
C10    C     0.59476   0.49322   0.87840   0.00000  Uiso   1.00
C11    C     0.56735   0.56748   0.90609   0.00000  Uiso   1.00
C12    C     0.60496   0.58741   0.95670   0.00000  Uiso   1.00
C13    C     0.64586   0.64799   0.04001   0.00000  Uiso   1.00
C14    C     0.67777   0.36270   0.86321   0.00000  Uiso   1.00
C15    C     0.70631   0.37247   0.81708   0.00000  Uiso   1.00
C16    C     0.78501   0.33490   0.79753   0.00000  Uiso   1.00
C17    C     0.79877   0.35171   0.75508   0.00000  Uiso   1.00
C18    C     0.59035   0.34112   0.84424   0.00000  Uiso   1.00
C19    C     0.57155   0.27720   0.84754   0.00000  Uiso   1.00
C20    C     0.48769   0.26762   0.82797   0.00000  Uiso   1.00
C21    C     0.65750   0.44072   0.90047   0.00000  Uiso   1.00
C22    C     0.69515   0.46054   0.95104   0.00000  Uiso   1.00
C23    C     0.66781   0.53482   0.97880   0.00000  Uiso   1.00
H24    H     0.51341   0.50022   0.80540   0.00000  Uiso   1.00
H25    H     0.60864   0.48247   0.73551   0.00000  Uiso   1.00
H26    H     0.39521   0.42478   0.78553   0.00000  Uiso   1.00
H27    H     0.51880   0.60809   0.88900   0.00000  Uiso   1.00
H28    H     0.74187   0.43960   0.66774   0.00000  Uiso   1.00
H29    H     0.29183   0.31799   0.77322   0.00000  Uiso   1.00
H30    H     0.55244   0.70454   0.99142   0.00000  Uiso   1.00
H31    H     0.72662   0.32182   0.88039   0.00000  Uiso   1.00
H32    H     0.83355   0.29427   0.81461   0.00000  Uiso   1.00
H33    H     0.62012   0.23659   0.86463   0.00000  Uiso   1.00
H34    H     0.74370   0.41990   0.96810   0.00000  Uiso   1.00
H35    H     0.92442   0.28686   0.73194   0.00000  Uiso   1.00
H36    H     0.47437   0.16524   0.83742   0.00000  Uiso   1.00
H37    H     0.73498   0.55179   0.05562   0.00000  Uiso   1.00
O38    O     0.89963   0.34831   0.65521   0.00000  Uiso   1.00
O39    O     0.30918   0.18876   0.79360   0.00000  Uiso   1.00
O40    O     0.65110   0.69591   0.07987   0.00000  Uiso   1.00
N41    N     0.77017   0.40745   0.69188   0.00000  Uiso   1.00
N42    N     0.34941   0.29373   0.79049   0.00000  Uiso   1.00
N43    N     0.59304   0.65512   0.99450   0.00000  Uiso   1.00
N44    N     0.86840   0.32525   0.72643   0.00000  Uiso   1.00
N45    N     0.44763   0.21154   0.82504   0.00000  Uiso   1.00
N46    N     0.69126   0.57293   0.02904   0.00000  Uiso   1.00
C47    C     0.06282   0.45782   0.77065   0.00000  Uiso   1.00
C48    C     0.97530   0.50796   0.75508   0.00000  Uiso   1.00
C49    C     0.94133   0.51240   0.70556   0.00000  Uiso   1.00
C50    C     0.86023   0.56169   0.69929   0.00000  Uiso   1.00
C51    C     0.73127   0.63299   0.66876   0.00000  Uiso   1.00
C52    C     0.11394   0.51002   0.81058   0.00000  Uiso   1.00
C53    C     0.19653   0.51618   0.80773   0.00000  Uiso   1.00
C54    C     0.23213   0.56720   0.84818   0.00000  Uiso   1.00
C55    C     0.31842   0.64167   0.90383   0.00000  Uiso   1.00
C56    C     0.04193   0.41008   0.79898   0.00000  Uiso   1.00
C57    C     0.06400   0.33219   0.78640   0.00000  Uiso   1.00
C58    C     0.03900   0.29907   0.81709   0.00000  Uiso   1.00
C59    C     0.01348   0.21834   0.85475   0.00000  Uiso   1.00
C60    C     0.97920   0.53748   0.84755   0.00000  Uiso   1.00
C61    C     0.92988   0.55123   0.79685   0.00000  Uiso   1.00
C62    C     0.84881   0.60053   0.79064   0.00000  Uiso   1.00
C63    C     0.81473   0.60503   0.74113   0.00000  Uiso   1.00
C64    C     0.06852   0.55329   0.85235   0.00000  Uiso   1.00
C65    C     0.10401   0.60431   0.89281   0.00000  Uiso   1.00
C66    C     0.18663   0.61055   0.89002   0.00000  Uiso   1.00
C67    C     0.99650   0.45334   0.84075   0.00000  Uiso   1.00
C68    C     0.97147   0.42033   0.87148   0.00000  Uiso   1.00
C69    C     0.99349   0.34241   0.85894   0.00000  Uiso   1.00
H70    H     0.09819   0.42414   0.73813   0.00000  Uiso   1.00
H71    H     0.97651   0.47891   0.67325   0.00000  Uiso   1.00
H72    H     0.23167   0.48268   0.77540   0.00000  Uiso   1.00
H73    H     0.09915   0.29873   0.75407   0.00000  Uiso   1.00
H74    H     0.82159   0.55873   0.61974   0.00000  Uiso   1.00
H75    H     0.35962   0.56668   0.83514   0.00000  Uiso   1.00
H76    H     0.08018   0.17877   0.79016   0.00000  Uiso   1.00
H77    H     0.94383   0.57117   0.88007   0.00000  Uiso   1.00
H78    H     0.81368   0.63401   0.82298   0.00000  Uiso   1.00
H79    H     0.06884   0.63779   0.92513   0.00000  Uiso   1.00
H80    H     0.93632   0.45383   0.90380   0.00000  Uiso   1.00
H81    H     0.68943   0.68462   0.74126   0.00000  Uiso   1.00
H82    H     0.22746   0.69256   0.95667   0.00000  Uiso   1.00
H83    H     0.94802   0.30466   0.91169   0.00000  Uiso   1.00
O84    O     0.67269   0.66037   0.64039   0.00000  Uiso   1.00
O85    O     0.37857   0.67079   0.92299   0.00000  Uiso   1.00
O86    O     0.01195   0.16187   0.86398   0.00000  Uiso   1.00
N87    N     0.80834   0.57972   0.65617   0.00000  Uiso   1.00
N88    N     0.31136   0.58716   0.85756   0.00000  Uiso   1.00
N89    N     0.05013   0.22450   0.81552   0.00000  Uiso   1.00
N90    N     0.73722   0.64746   0.72157   0.00000  Uiso   1.00
N91    N     0.24024   0.65490   0.92295   0.00000  Uiso   1.00
N92    N     0.97901   0.29224   0.88091   0.00000  Uiso   1.00
C93    C     0.54709   0.83771   0.77814   0.00000  Uiso   1.00
C94    C     0.51305   0.76771   0.75049   0.00000  Uiso   1.00
C95    C     0.50746   0.73383   0.69816   0.00000  Uiso   1.00
C96    C     0.47447   0.67022   0.68034   0.00000  Uiso   1.00
C97    C     0.42560   0.56591   0.63235   0.00000  Uiso   1.00
C98    C     0.47364   0.89388   0.80726   0.00000  Uiso   1.00
C99    C     0.43492   0.96608   0.80266   0.00000  Uiso   1.00
C100   C     0.36876   0.00869   0.83263   0.00000  Uiso   1.00
C101   C     0.25875   0.10027   0.87279   0.00000  Uiso   1.00
C102   C     0.62124   0.81542   0.81874   0.00000  Uiso   1.00
C103   C     0.70662   0.82168   0.82381   0.00000  Uiso   1.00
C104   C     0.76472   0.79824   0.86345   0.00000  Uiso   1.00
C105   C     0.88388   0.76801   0.92144   0.00000  Uiso   1.00
C106   C     0.49846   0.78499   0.83955   0.00000  Uiso   1.00
C107   C     0.48664   0.73908   0.78385   0.00000  Uiso   1.00
C108   C     0.45366   0.67550   0.76611   0.00000  Uiso   1.00
C109   C     0.44802   0.64153   0.71376   0.00000  Uiso   1.00
C110   C     0.44723   0.86524   0.84061   0.00000  Uiso   1.00
C111   C     0.38112   0.90775   0.87060   0.00000  Uiso   1.00
C112   C     0.34230   0.98000   0.86605   0.00000  Uiso   1.00
C113   C     0.59483   0.78678   0.85210   0.00000  Uiso   1.00
C114   C     0.65281   0.76334   0.89175   0.00000  Uiso   1.00
C115   C     0.73826   0.76955   0.89687   0.00000  Uiso   1.00
H116   H     0.56765   0.86001   0.75217   0.00000  Uiso   1.00
H117   H     0.52790   0.75601   0.67236   0.00000  Uiso   1.00
H118   H     0.45538   0.98823   0.77684   0.00000  Uiso   1.00
H119   H     0.72703   0.84384   0.79798   0.00000  Uiso   1.00
H120   H     0.47215   0.62810   0.59859   0.00000  Uiso   1.00
H121   H     0.31926   0.11775   0.81891   0.00000  Uiso   1.00
H122   H     0.89209   0.81328   0.86349   0.00000  Uiso   1.00
H123   H     0.47790   0.76270   0.86552   0.00000  Uiso   1.00
H124   H     0.43322   0.65335   0.79193   0.00000  Uiso   1.00
H125   H     0.36070   0.88558   0.89642   0.00000  Uiso   1.00
H126   H     0.63235   0.74118   0.91756   0.00000  Uiso   1.00
H127   H     0.39530   0.54478   0.69564   0.00000  Uiso   1.00
H128   H     0.24241   0.03444   0.91596   0.00000  Uiso   1.00
H129   H     0.81525   0.72996   0.96054   0.00000  Uiso   1.00
O130   O     0.40593   0.51629   0.59666   0.00000  Uiso   1.00
O131   O     0.20536   0.15870   0.88571   0.00000  Uiso   1.00
O132   O     0.95690   0.75923   0.94420   0.00000  Uiso   1.00
N133   N     0.46021   0.62349   0.63153   0.00000  Uiso   1.00
N134   N     0.31726   0.08128   0.83751   0.00000  Uiso   1.00
N135   N     0.85280   0.79664   0.87920   0.00000  Uiso   1.00
N136   N     0.41886   0.57866   0.68375   0.00000  Uiso   1.00
N137   N     0.27591   0.03645   0.88973   0.00000  Uiso   1.00
N138   N     0.81145   0.75181   0.93142   0.00000  Uiso   1.00
C139   C     0.63250   0.84628   0.26424   0.00000  Uiso   1.00
C140   C     0.56769   0.79849   0.25630   0.00000  Uiso   1.00
C141   C     0.53540   0.75614   0.20950   0.00000  Uiso   1.00
C142   C     0.47669   0.71630   0.21034   0.00000  Uiso   1.00
C143   C     0.37997   0.64170   0.19102   0.00000  Uiso   1.00
C144   C     0.70954   0.81802   0.30137   0.00000  Uiso   1.00
C145   C     0.79651   0.79209   0.29248   0.00000  Uiso   1.00
C146   C     0.85722   0.76870   0.33126   0.00000  Uiso   1.00
C147   C     0.98073   0.72445   0.38193   0.00000  Uiso   1.00
C148   C     0.58818   0.92546   0.29309   0.00000  Uiso   1.00
C149   C     0.57312   0.98988   0.27723   0.00000  Uiso   1.00
C150   C     0.53166   0.05696   0.30905   0.00000  Uiso   1.00
C151   C     0.46673   0.17953   0.34686   0.00000  Uiso   1.00
C152   C     0.58567   0.85086   0.34894   0.00000  Uiso   1.00
C153   C     0.54226   0.80098   0.30231   0.00000  Uiso   1.00
C154   C     0.48359   0.76121   0.30322   0.00000  Uiso   1.00
C155   C     0.45121   0.71880   0.25643   0.00000  Uiso   1.00
C156   C     0.68411   0.82050   0.34738   0.00000  Uiso   1.00
C157   C     0.74471   0.79715   0.38619   0.00000  Uiso   1.00
C158   C     0.83174   0.77119   0.37735   0.00000  Uiso   1.00
C159   C     0.56274   0.92795   0.33909   0.00000  Uiso   1.00
C160   C     0.52130   0.99494   0.37095   0.00000  Uiso   1.00
C161   C     0.50618   0.05945   0.35514   0.00000  Uiso   1.00
H162   H     0.65230   0.84434   0.22842   0.00000  Uiso   1.00
H163   H     0.55510   0.75422   0.17391   0.00000  Uiso   1.00
H164   H     0.81618   0.79017   0.25687   0.00000  Uiso   1.00
H165   H     0.59281   0.98793   0.24163   0.00000  Uiso   1.00
H166   H     0.43614   0.65538   0.13376   0.00000  Uiso   1.00
H167   H     0.98663   0.73121   0.30870   0.00000  Uiso   1.00
H168   H     0.51562   0.14823   0.27656   0.00000  Uiso   1.00
H169   H     0.56587   0.85280   0.38476   0.00000  Uiso   1.00
H170   H     0.46392   0.76314   0.33882   0.00000  Uiso   1.00
H171   H     0.72500   0.79909   0.42179   0.00000  Uiso   1.00
H172   H     0.50163   0.99685   0.40655   0.00000  Uiso   1.00
H173   H     0.36214   0.66262   0.26761   0.00000  Uiso   1.00
H174   H     0.91264   0.73845   0.44255   0.00000  Uiso   1.00
H175   H     0.44162   0.15546   0.41041   0.00000  Uiso   1.00
O176   O     0.33366   0.59985   0.16765   0.00000  Uiso   1.00
O177   O     0.05588   0.69935   0.39717   0.00000  Uiso   1.00
O178   O     0.43792   0.24646   0.35500   0.00000  Uiso   1.00
N179   N     0.43270   0.66940   0.17157   0.00000  Uiso   1.00
N180   N     0.94738   0.74028   0.33512   0.00000  Uiso   1.00
N181   N     0.50705   0.13016   0.30508   0.00000  Uiso   1.00
N182   N     0.39288   0.67330   0.24359   0.00000  Uiso   1.00
N183   N     0.90756   0.74418   0.40715   0.00000  Uiso   1.00
N184   N     0.46723   0.13406   0.37710   0.00000  Uiso   1.00
C185   C    -0.00001   0.94872   0.29945   0.00000  Uiso   1.00
C186   C     0.00154   0.99876   0.26683   0.00000  Uiso   1.00
C187   C     0.98526   0.98160   0.21378   0.00000  Uiso   1.00
C188   C     0.98984   0.03484   0.19112   0.00000  Uiso   1.00
C189   C     0.98915   0.10222   0.13600   0.00000  Uiso   1.00
C190   C     0.93431   0.99556   0.33697   0.00000  Uiso   1.00
C191   C     0.86150   0.97570   0.34291   0.00000  Uiso   1.00
C192   C     0.80950   0.02625   0.37930   0.00000  Uiso   1.00
C193   C     0.70445   0.08864   0.43311   0.00000  Uiso   1.00
C194   C     0.08955   0.93755   0.33161   0.00000  Uiso   1.00
C195   C     0.14726   0.86891   0.33306   0.00000  Uiso   1.00
C196   C     0.22595   0.87062   0.36495   0.00000  Uiso   1.00
C197   C     0.36193   0.84293   0.41043   0.00000  Uiso   1.00
C198   C     0.03711   0.07380   0.35353   0.00000  Uiso   1.00
C199   C     0.02170   0.06670   0.29620   0.00000  Uiso   1.00
C200   C     0.02632   0.11998   0.27362   0.00000  Uiso   1.00
C201   C     0.01004   0.10290   0.22055   0.00000  Uiso   1.00
C202   C     0.95447   0.06350   0.36635   0.00000  Uiso   1.00
C203   C     0.90257   0.11408   0.40274   0.00000  Uiso   1.00
C204   C     0.82969   0.09431   0.40873   0.00000  Uiso   1.00
C205   C     0.10971   0.00549   0.36099   0.00000  Uiso   1.00
C206   C     0.18832   0.00730   0.39289   0.00000  Uiso   1.00
C207   C     0.24614   0.93867   0.39437   0.00000  Uiso   1.00
H208   H     0.98429   0.89583   0.27659   0.00000  Uiso   1.00
H209   H     0.96965   0.92902   0.19107   0.00000  Uiso   1.00
H210   H     0.84592   0.92312   0.32018   0.00000  Uiso   1.00
H211   H     0.13163   0.81635   0.31032   0.00000  Uiso   1.00
H212   H     0.96227   0.99579   0.10921   0.00000  Uiso   1.00
H213   H     0.70140   0.98334   0.38145   0.00000  Uiso   1.00
H214   H     0.30388   0.75819   0.36067   0.00000  Uiso   1.00
H215   H     0.05280   0.12669   0.37640   0.00000  Uiso   1.00
H216   H     0.04192   0.17255   0.29636   0.00000  Uiso   1.00
H217   H     0.91819   0.16665   0.42547   0.00000  Uiso   1.00
H218   H     0.20390   0.05988   0.41561   0.00000  Uiso   1.00
H219   H     0.02093   0.19344   0.19467   0.00000  Uiso   1.00
H220   H     0.76006   0.18099   0.46691   0.00000  Uiso   1.00
H221   H     0.36253   0.95585   0.44613   0.00000  Uiso   1.00
O222   O     0.98318   0.12063   0.09748   0.00000  Uiso   1.00
O223   O     0.64094   0.10429   0.45466   0.00000  Uiso   1.00
O224   O     0.43137   0.80890   0.42740   0.00000  Uiso   1.00
N225   N     0.97759   0.03601   0.14030   0.00000  Uiso   1.00
N226   N     0.73368   0.02437   0.39483   0.00000  Uiso   1.00
N227   N     0.29694   0.81388   0.37542   0.00000  Uiso   1.00
N228   N     0.00915   0.14236   0.18629   0.00000  Uiso   1.00
N229   N     0.76524   0.13073   0.44082   0.00000  Uiso   1.00
N230   N     0.32850   0.92024   0.42140   0.00000  Uiso   1.00
C231   C     0.05290   0.38749   0.24352   0.00000  Uiso   1.00
C232   C     0.11287   0.30857   0.23284   0.00000  Uiso   1.00
C233   C     0.11696   0.25585   0.18546   0.00000  Uiso   1.00
C234   C     0.17615   0.18686   0.18366   0.00000  Uiso   1.00
C235   C     0.26123   0.06672   0.16036   0.00000  Uiso   1.00
C236   C     0.11274   0.44094   0.26824   0.00000  Uiso   1.00
C237   C     0.11670   0.49952   0.25062   0.00000  Uiso   1.00
C238   C     0.17577   0.54197   0.27862   0.00000  Uiso   1.00
C239   C     0.26059   0.62737   0.31030   0.00000  Uiso   1.00
C240   C     0.00015   0.39324   0.28505   0.00000  Uiso   1.00
C241   C     0.90943   0.41173   0.28158   0.00000  Uiso   1.00
C242   C     0.87371   0.41403   0.32374   0.00000  Uiso   1.00
C243   C     0.78371   0.42536   0.38153   0.00000  Uiso   1.00
C244   C     0.15075   0.35872   0.32459   0.00000  Uiso   1.00
C245   C     0.16603   0.29295   0.27687   0.00000  Uiso   1.00
C246   C     0.22523   0.22402   0.27514   0.00000  Uiso   1.00
C247   C     0.22940   0.17121   0.22777   0.00000  Uiso   1.00
C248   C     0.16589   0.42532   0.31227   0.00000  Uiso   1.00
C249   C     0.22497   0.46770   0.34030   0.00000  Uiso   1.00
C250   C     0.22902   0.52632   0.32273   0.00000  Uiso   1.00
C251   C     0.05330   0.37762   0.32908   0.00000  Uiso   1.00
C252   C     0.01770   0.37990   0.37126   0.00000  Uiso   1.00
C253   C     0.92696   0.39838   0.36785   0.00000  Uiso   1.00
H254   H     0.01152   0.39966   0.20925   0.00000  Uiso   1.00
H255   H     0.07582   0.26796   0.15139   0.00000  Uiso   1.00
H256   H     0.07556   0.51160   0.21654   0.00000  Uiso   1.00
H257   H     0.86832   0.42382   0.24750   0.00000  Uiso   1.00
H258   H     0.17057   0.11508   0.10666   0.00000  Uiso   1.00
H259   H     0.16999   0.62882   0.24405   0.00000  Uiso   1.00
H260   H     0.73300   0.44371   0.30932   0.00000  Uiso   1.00
H261   H     0.19214   0.34656   0.35887   0.00000  Uiso   1.00
H262   H     0.26635   0.21195   0.30922   0.00000  Uiso   1.00
H263   H     0.26609   0.45559   0.37438   0.00000  Uiso   1.00
H264   H     0.05885   0.36781   0.40533   0.00000  Uiso   1.00
H265   H     0.32522   0.06962   0.23476   0.00000  Uiso   1.00
H266   H     0.32463   0.58336   0.37215   0.00000  Uiso   1.00
H267   H     0.88764   0.39825   0.43743   0.00000  Uiso   1.00
O268   O     0.29348   0.00477   0.13535   0.00000  Uiso   1.00
O269   O     0.29270   0.67878   0.31561   0.00000  Uiso   1.00
O270   O     0.71938   0.43592   0.40124   0.00000  Uiso   1.00
N271   N     0.19677   0.12285   0.14362   0.00000  Uiso   1.00
N272   N     0.19624   0.60316   0.27207   0.00000  Uiso   1.00
N273   N     0.78769   0.43012   0.33310   0.00000  Uiso   1.00
N274   N     0.27998   0.09839   0.21256   0.00000  Uiso   1.00
N275   N     0.27945   0.57869   0.34100   0.00000  Uiso   1.00
N276   N     0.87090   0.40565   0.40203   0.00000  Uiso   1.00
C277   C     0.68204   0.33622   0.14890   0.00000  Uiso   1.00
C278   C     0.61657   0.36290   0.18754   0.00000  Uiso   1.00
C279   C     0.62575   0.33760   0.23046   0.00000  Uiso   1.00
C280   C     0.55861   0.36901   0.26103   0.00000  Uiso   1.00
C281   C     0.46818   0.40213   0.32286   0.00000  Uiso   1.00
C282   C     0.70539   0.40643   0.14732   0.00000  Uiso   1.00
C283   C     0.78923   0.41774   0.15641   0.00000  Uiso   1.00
C284   C     0.79685   0.48580   0.15312   0.00000  Uiso   1.00
C285   C     0.84431   0.58648   0.15246   0.00000  Uiso   1.00
C286   C     0.63126   0.30840   0.09676   0.00000  Uiso   1.00
C287   C     0.65279   0.23728   0.06334   0.00000  Uiso   1.00
C288   C     0.59801   0.22281   0.01748   0.00000  Uiso   1.00
C289   C     0.53038   0.17128   0.93833   0.00000  Uiso   1.00
C290   C     0.54648   0.43699   0.12688   0.00000  Uiso   1.00
C291   C     0.54295   0.41763   0.17557   0.00000  Uiso   1.00
C292   C     0.47577   0.44908   0.20609   0.00000  Uiso   1.00
C293   C     0.48484   0.42384   0.24905   0.00000  Uiso   1.00
C294   C     0.63176   0.46116   0.13535   0.00000  Uiso   1.00
C295   C     0.63925   0.52922   0.13205   0.00000  Uiso   1.00
C296   C     0.72309   0.54063   0.14114   0.00000  Uiso   1.00
C297   C     0.55763   0.36313   0.08480   0.00000  Uiso   1.00
C298   C     0.50281   0.34877   0.03898   0.00000  Uiso   1.00
C299   C     0.52425   0.27764   0.00550   0.00000  Uiso   1.00
H300   H     0.73936   0.29362   0.15821   0.00000  Uiso   1.00
H301   H     0.68275   0.29525   0.23970   0.00000  Uiso   1.00
H302   H     0.84620   0.37537   0.16566   0.00000  Uiso   1.00
H303   H     0.70978   0.19494   0.07261   0.00000  Uiso   1.00
H304   H     0.58752   0.32122   0.32478   0.00000  Uiso   1.00
H305   H     0.93218   0.49014   0.16865   0.00000  Uiso   1.00
H306   H     0.64450   0.10968   0.97243   0.00000  Uiso   1.00
H307   H     0.48915   0.47960   0.11757   0.00000  Uiso   1.00
H308   H     0.41880   0.49144   0.19683   0.00000  Uiso   1.00
H309   H     0.58226   0.57156   0.12279   0.00000  Uiso   1.00
H310   H     0.44584   0.39113   0.02974   0.00000  Uiso   1.00
H311   H     0.37329   0.48045   0.28999   0.00000  Uiso   1.00
H312   H     0.71796   0.64938   0.13385   0.00000  Uiso   1.00
H313   H     0.43028   0.26891   0.93763   0.00000  Uiso   1.00
O314   O     0.43865   0.40529   0.36027   0.00000  Uiso   1.00
O315   O     0.89084   0.62690   0.15541   0.00000  Uiso   1.00
O316   O     0.51341   0.12774   0.89799   0.00000  Uiso   1.00
N317   N     0.54674   0.35706   0.30571   0.00000  Uiso   1.00
N318   N     0.86898   0.51500   0.15974   0.00000  Uiso   1.00
N319   N     0.60004   0.15930   0.97629   0.00000  Uiso   1.00
N320   N     0.43147   0.44274   0.28699   0.00000  Uiso   1.00
N321   N     0.75371   0.60068   0.14102   0.00000  Uiso   1.00
N322   N     0.48477   0.24498   0.95756   0.00000  Uiso   1.00
C323   C     0.16187   0.39348   0.11437   0.00000  Uiso   1.00
C324   C     0.24738   0.33854   0.12692   0.00000  Uiso   1.00
C325   C     0.28332   0.32988   0.17532   0.00000  Uiso   1.00
C326   C     0.36203   0.27658   0.17879   0.00000  Uiso   1.00
C327   C     0.48851   0.19779   0.20487   0.00000  Uiso   1.00
C328   C     0.10516   0.34626   0.07440   0.00000  Uiso   1.00
C329   C     0.02152   0.34411   0.07864   0.00000  Uiso   1.00
C330   C     0.98052   0.29732   0.03788   0.00000  Uiso   1.00
C331   C     0.88617   0.23056   0.98241   0.00000  Uiso   1.00
C332   C     0.18509   0.44132   0.08703   0.00000  Uiso   1.00
C333   C     0.16862   0.51910   0.10189   0.00000  Uiso   1.00
C334   C     0.19489   0.55234   0.07177   0.00000  Uiso   1.00
C335   C     0.22464   0.63318   0.03592   0.00000  Uiso   1.00
C336   C     0.23777   0.31422   0.03446   0.00000  Uiso   1.00
C337   C     0.28860   0.29549   0.08351   0.00000  Uiso   1.00
C338   C     0.36729   0.24219   0.08690   0.00000  Uiso   1.00
C339   C     0.40334   0.23345   0.13530   0.00000  Uiso   1.00
C340   C     0.14638   0.30321   0.03099   0.00000  Uiso   1.00
C341   C     0.10549   0.25641   0.99022   0.00000  Uiso   1.00
C342   C     0.02181   0.25418   0.99440   0.00000  Uiso   1.00
C343   C     0.22631   0.39827   0.04363   0.00000  Uiso   1.00
C344   C     0.25260   0.43140   0.01348   0.00000  Uiso   1.00
C345   C     0.23619   0.50921   0.02828   0.00000  Uiso   1.00
H346   H     0.12977   0.42700   0.14816   0.00000  Uiso   1.00
H347   H     0.25139   0.36320   0.20890   0.00000  Uiso   1.00
H348   H     0.98963   0.37744   0.11223   0.00000  Uiso   1.00
H349   H     0.13672   0.55239   0.13548   0.00000  Uiso   1.00
H350   H     0.40438   0.27347   0.25710   0.00000  Uiso   1.00
H351   H     0.85244   0.30350   0.05325   0.00000  Uiso   1.00
H352   H     0.16260   0.67244   0.10228   0.00000  Uiso   1.00
H353   H     0.26986   0.28070   0.00066   0.00000  Uiso   1.00
H354   H     0.39917   0.20888   0.05331   0.00000  Uiso   1.00
H355   H     0.13741   0.22311   0.95663   0.00000  Uiso   1.00
H356   H     0.28450   0.39807   0.97989   0.00000  Uiso   1.00
H357   H     0.52433   0.14821   0.13081   0.00000  Uiso   1.00
H358   H     0.97238   0.17824   0.92696   0.00000  Uiso   1.00
H359   H     0.28255   0.54718   0.97600   0.00000  Uiso   1.00
O360   O     0.54688   0.16621   0.23125   0.00000  Uiso   1.00
O361   O     0.82274   0.20563   0.96380   0.00000  Uiso   1.00
O362   O     0.22967   0.68966   0.02814   0.00000  Uiso   1.00
N363   N     0.41488   0.25386   0.22015   0.00000  Uiso   1.00
N364   N     0.89885   0.28192   0.02957   0.00000  Uiso   1.00
N365   N     0.18880   0.62685   0.07541   0.00000  Uiso   1.00
N366   N     0.47942   0.18646   0.15220   0.00000  Uiso   1.00
N367   N     0.96339   0.21452   0.96162   0.00000  Uiso   1.00
N368   N     0.25334   0.55945   0.00745   0.00000  Uiso   1.00
C369   C     0.67769   0.95033   0.15126   0.00000  Uiso   1.00
C370   C     0.71644   0.01801   0.17804   0.00000  Uiso   1.00
C371   C     0.72615   0.05124   0.23043   0.00000  Uiso   1.00
C372   C     0.76308   0.11265   0.24737   0.00000  Uiso   1.00
C373   C     0.81929   0.21359   0.29416   0.00000  Uiso   1.00
C374   C     0.74748   0.89180   0.12036   0.00000  Uiso   1.00
C375   C     0.78327   0.81893   0.12425   0.00000  Uiso   1.00
C376   C     0.84632   0.77410   0.09263   0.00000  Uiso   1.00
C377   C     0.95067   0.67909   0.04985   0.00000  Uiso   1.00
C378   C     0.60227   0.97539   0.11216   0.00000  Uiso   1.00
C379   C     0.51597   0.97278   0.10914   0.00000  Uiso   1.00
C380   C     0.45676   0.99831   0.07061   0.00000  Uiso   1.00
C381   C     0.33566   0.03309   0.01510   0.00000  Uiso   1.00
C382   C     0.72600   0.00028   0.08818   0.00000  Uiso   1.00
C383   C     0.74268   0.04514   0.14377   0.00000  Uiso   1.00
C384   C     0.77960   0.10652   0.16064   0.00000  Uiso   1.00
C385   C     0.78936   0.13984   0.21305   0.00000  Uiso   1.00
C386   C     0.77372   0.91894   0.08610   0.00000  Uiso   1.00
C387   C     0.83672   0.87420   0.05446   0.00000  Uiso   1.00
C388   C     0.87261   0.80128   0.05831   0.00000  Uiso   1.00
C389   C     0.62851   0.00253   0.07789   0.00000  Uiso   1.00
C390   C     0.56942   0.02806   0.03936   0.00000  Uiso   1.00
C391   C     0.48305   0.02550   0.03629   0.00000  Uiso   1.00
H392   H     0.65727   0.92920   0.17793   0.00000  Uiso   1.00
H393   H     0.70584   0.03022   0.25693   0.00000  Uiso   1.00
H394   H     0.76295   0.79794   0.15076   0.00000  Uiso   1.00
H395   H     0.49569   0.95178   0.13566   0.00000  Uiso   1.00
H396   H     0.77130   0.15418   0.32941   0.00000  Uiso   1.00
H397   H     0.89169   0.66440   0.10554   0.00000  Uiso   1.00
H398   H     0.32812   0.98879   0.07369   0.00000  Uiso   1.00
H399   H     0.74643   0.02141   0.06151   0.00000  Uiso   1.00
H400   H     0.79990   0.12750   0.13412   0.00000  Uiso   1.00
H401   H     0.85701   0.89522   0.02795   0.00000  Uiso   1.00
H402   H     0.58975   0.04906   0.01285   0.00000  Uiso   1.00
H403   H     0.84764   0.23313   0.22973   0.00000  Uiso   1.00
H404   H     0.96803   0.74334   0.00586   0.00000  Uiso   1.00
H405   H     0.40447   0.06774   0.97401   0.00000  Uiso   1.00
O406   O     0.84306   0.26177   0.32944   0.00000  Uiso   1.00
O407   O     0.00099   0.61919   0.03573   0.00000  Uiso   1.00
O408   O     0.26161   0.04479   0.99394   0.00000  Uiso   1.00
N409   N     0.78191   0.15821   0.29598   0.00000  Uiso   1.00
N410   N     0.89448   0.70030   0.08669   0.00000  Uiso   1.00
N411   N     0.36760   0.00356   0.05690   0.00000  Uiso   1.00
N412   N     0.82299   0.20069   0.24235   0.00000  Uiso   1.00
N413   N     0.93556   0.74278   0.03305   0.00000  Uiso   1.00
N414   N     0.40868   0.04604   0.00326   0.00000  Uiso   1.00
C415   C     0.62630   0.02532   0.70964   0.00000  Uiso   1.00
C416   C     0.67415   0.03068   0.76377   0.00000  Uiso   1.00
C417   C     0.65393   0.00482   0.80026   0.00000  Uiso   1.00
C418   C     0.70553   0.01505   0.84752   0.00000  Uiso   1.00
C419   C     0.76925   0.01811   0.93001   0.00000  Uiso   1.00
C420   C     0.59638   0.10541   0.70452   0.00000  Uiso   1.00
C421   C     0.51077   0.14237   0.69120   0.00000  Uiso   1.00
C422   C     0.49691   0.21550   0.68858   0.00000  Uiso   1.00
C423   C     0.43990   0.33456   0.67905   0.00000  Uiso   1.00
C424   C     0.69581   0.98382   0.67367   0.00000  Uiso   1.00
C425   C     0.69381   0.91856   0.63440   0.00000  Uiso   1.00
C426   C     0.76366   0.88932   0.60581   0.00000  Uiso   1.00
C427   C     0.86104   0.81960   0.54838   0.00000  Uiso   1.00
C428   C     0.75389   0.08945   0.72867   0.00000  Uiso   1.00
C429   C     0.74345   0.06552   0.77410   0.00000  Uiso   1.00
C430   C     0.79510   0.07578   0.82132   0.00000  Uiso   1.00
C431   C     0.77496   0.04994   0.85788   0.00000  Uiso   1.00
C432   C     0.66567   0.14024   0.71486   0.00000  Uiso   1.00
C433   C     0.65194   0.21333   0.71226   0.00000  Uiso   1.00
C434   C     0.56634   0.25040   0.69894   0.00000  Uiso   1.00
C435   C     0.76512   0.01865   0.68401   0.00000  Uiso   1.00
C436   C     0.83498   0.98952   0.65547   0.00000  Uiso   1.00
C437   C     0.83308   0.92422   0.61616   0.00000  Uiso   1.00
H438   H     0.57235   0.99820   0.70159   0.00000  Uiso   1.00
H439   H     0.60029   0.97788   0.79225   0.00000  Uiso   1.00
H440   H     0.45716   0.11540   0.68320   0.00000  Uiso   1.00
H441   H     0.64017   0.89162   0.62642   0.00000  Uiso   1.00
H442   H     0.66181   0.97073   0.89733   0.00000  Uiso   1.00
H443   H     0.36002   0.26069   0.66737   0.00000  Uiso   1.00
H444   H     0.74593   0.78881   0.54763   0.00000  Uiso   1.00
H445   H     0.80785   0.11657   0.73672   0.00000  Uiso   1.00
H446   H     0.84872   0.10274   0.82931   0.00000  Uiso   1.00
H447   H     0.70558   0.24027   0.72026   0.00000  Uiso   1.00
H448   H     0.88860   0.01649   0.66348   0.00000  Uiso   1.00
H449   H     0.86344   0.07208   0.92741   0.00000  Uiso   1.00
H450   H     0.56164   0.36205   0.69744   0.00000  Uiso   1.00
H451   H     0.94756   0.89016   0.57771   0.00000  Uiso   1.00
O452   O     0.78525   0.01019   0.97265   0.00000  Uiso   1.00
O453   O     0.38930   0.39061   0.67094   0.00000  Uiso   1.00
O454   O     0.89561   0.77151   0.51385   0.00000  Uiso   1.00
N455   N     0.70367   0.99646   0.89170   0.00000  Uiso   1.00
N456   N     0.42150   0.26757   0.67670   0.00000  Uiso   1.00
N457   N     0.78229   0.82641   0.56475   0.00000  Uiso   1.00
N458   N     0.81217   0.05100   0.90788   0.00000  Uiso   1.00
N459   N     0.53000   0.32211   0.69289   0.00000  Uiso   1.00
N460   N     0.89079   0.88094   0.58094   0.00000  Uiso   1.00
C461   C     0.21886   0.97802   0.66115   0.00000  Uiso   1.00
C462   C     0.21829   0.90480   0.67092   0.00000  Uiso   1.00
C463   C     0.23346   0.89077   0.71851   0.00000  Uiso   1.00
C464   C     0.23007   0.82021   0.71935   0.00000  Uiso   1.00
C465   C     0.23196   0.71480   0.74138   0.00000  Uiso   1.00
C466   C     0.28587   0.95714   0.62408   0.00000  Uiso   1.00
C467   C     0.35784   0.98713   0.63228   0.00000  Uiso   1.00
C468   C     0.41133   0.96063   0.59368   0.00000  Uiso   1.00
C469   C     0.51810   0.93651   0.54297   0.00000  Uiso   1.00
C470   C     0.12981   0.00335   0.63149   0.00000  Uiso   1.00
C471   C     0.07057   0.07220   0.64592   0.00000  Uiso   1.00
C472   C     0.99268   0.08462   0.61355   0.00000  Uiso   1.00
C473   C     0.85714   0.13225   0.57435   0.00000  Uiso   1.00
C474   C     0.18586   0.87767   0.57801   0.00000  Uiso   1.00
C475   C     0.20038   0.85030   0.62576   0.00000  Uiso   1.00
C476   C     0.19696   0.77974   0.62652   0.00000  Uiso   1.00
C477   C     0.21211   0.76561   0.67411   0.00000  Uiso   1.00
C478   C     0.26795   0.90264   0.57892   0.00000  Uiso   1.00
C479   C     0.32134   0.87609   0.54029   0.00000  Uiso   1.00
C480   C     0.39338   0.90602   0.54844   0.00000  Uiso   1.00
C481   C     0.11189   0.94884   0.58633   0.00000  Uiso   1.00
C482   C     0.03407   0.96116   0.55393   0.00000  Uiso   1.00
C483   C     0.97473   0.03001   0.56831   0.00000  Uiso   1.00
H484   H     0.23281   0.02046   0.69631   0.00000  Uiso   1.00
H485   H     0.24733   0.93297   0.75345   0.00000  Uiso   1.00
H486   H     0.37169   0.02931   0.66723   0.00000  Uiso   1.00
H487   H     0.08447   0.11437   0.68087   0.00000  Uiso   1.00
H488   H     0.25556   0.81192   0.79689   0.00000  Uiso   1.00
H489   H     0.51776   0.01508   0.61508   0.00000  Uiso   1.00
H490   H     0.91209   0.19444   0.64383   0.00000  Uiso   1.00
H491   H     0.17191   0.83523   0.54285   0.00000  Uiso   1.00
H492   H     0.18309   0.73757   0.59157   0.00000  Uiso   1.00
H493   H     0.30745   0.83391   0.50535   0.00000  Uiso   1.00
H494   H     0.02022   0.91897   0.51898   0.00000  Uiso   1.00
H495   H     0.20342   0.65332   0.66550   0.00000  Uiso   1.00
H496   H     0.46562   0.85649   0.48369   0.00000  Uiso   1.00
H497   H     0.85995   0.03585   0.51244   0.00000  Uiso   1.00
O498   O     0.23797   0.67171   0.76601   0.00000  Uiso   1.00
O499   O     0.58195   0.93826   0.52748   0.00000  Uiso   1.00
O500   O     0.78733   0.17358   0.56520   0.00000  Uiso   1.00
N501   N     0.24174   0.78800   0.75928   0.00000  Uiso   1.00
N502   N     0.48688   0.97794   0.58930   0.00000  Uiso   1.00
N503   N     0.92064   0.14563   0.61617   0.00000  Uiso   1.00
N504   N     0.21368   0.70266   0.68858   0.00000  Uiso   1.00
N505   N     0.45883   0.89260   0.51860   0.00000  Uiso   1.00
N506   N     0.89259   0.06029   0.54547   0.00000  Uiso   1.00
C507   C     0.08181   0.52619   0.60977   0.00000  Uiso   1.00
C508   C     0.03707   0.59895   0.64588   0.00000  Uiso   1.00
C509   C     0.05782   0.62063   0.69871   0.00000  Uiso   1.00
C510   C     0.00921   0.68928   0.72491   0.00000  Uiso   1.00
C511   C     0.94990   0.79535   0.78492   0.00000  Uiso   1.00
C512   C     0.00929   0.48734   0.58015   0.00000  Uiso   1.00
C513   C     0.00668   0.41518   0.57770   0.00000  Uiso   1.00
C514   C     0.93469   0.38987   0.54855   0.00000  Uiso   1.00
C515   C     0.83228   0.32265   0.50646   0.00000  Uiso   1.00
C516   C     0.11461   0.54942   0.57077   0.00000  Uiso   1.00
C517   C     0.20056   0.52943   0.56043   0.00000  Uiso   1.00
C518   C     0.21723   0.55638   0.52338   0.00000  Uiso   1.00
C519   C     0.27835   0.58554   0.46674   0.00000  Uiso   1.00
C520   C     0.95859   0.60957   0.56235   0.00000  Uiso   1.00
C521   C     0.97015   0.64423   0.62013   0.00000  Uiso   1.00
C522   C     0.92149   0.71287   0.64625   0.00000  Uiso   1.00
C523   C     0.94216   0.73465   0.69911   0.00000  Uiso   1.00
C524   C     0.94236   0.53263   0.55439   0.00000  Uiso   1.00
C525   C     0.87036   0.50742   0.52523   0.00000  Uiso   1.00
C526   C     0.86764   0.43524   0.52275   0.00000  Uiso   1.00
C527   C     0.04768   0.59471   0.54501   0.00000  Uiso   1.00
C528   C     0.06423   0.62168   0.50797   0.00000  Uiso   1.00
C529   C     0.15018   0.60174   0.49758   0.00000  Uiso   1.00
H530   H     0.13391   0.49093   0.62982   0.00000  Uiso   1.00
H531   H     0.10961   0.58556   0.71863   0.00000  Uiso   1.00
H532   H     0.05849   0.38014   0.59763   0.00000  Uiso   1.00
H533   H     0.25233   0.49439   0.58037   0.00000  Uiso   1.00
H534   H     0.05314   0.71044   0.80575   0.00000  Uiso   1.00
H535   H     0.94536   0.27729   0.55059   0.00000  Uiso   1.00
H536   H     0.35411   0.51819   0.51419   0.00000  Uiso   1.00
H537   H     0.90648   0.64482   0.54229   0.00000  Uiso   1.00
H538   H     0.86970   0.74790   0.62631   0.00000  Uiso   1.00
H539   H     0.81858   0.54248   0.50531   0.00000  Uiso   1.00
H540   H     0.01242   0.65672   0.48804   0.00000  Uiso   1.00
H541   H     0.85842   0.84220   0.73081   0.00000  Uiso   1.00
H542   H     0.75064   0.40904   0.47566   0.00000  Uiso   1.00
H543   H     0.15939   0.64995   0.43926   0.00000  Uiso   1.00
O544   O     0.93567   0.84133   0.82513   0.00000  Uiso   1.00
O545   O     0.79428   0.27305   0.49037   0.00000  Uiso   1.00
O546   O     0.33055   0.58912   0.44261   0.00000  Uiso   1.00
N547   N     0.01237   0.72731   0.77658   0.00000  Uiso   1.00
N548   N     0.91160   0.32234   0.53803   0.00000  Uiso   1.00
N549   N     0.29374   0.54755   0.50399   0.00000  Uiso   1.00
N550   N     0.90759   0.79821   0.73626   0.00000  Uiso   1.00
N551   N     0.80682   0.39324   0.49771   0.00000  Uiso   1.00
N552   N     0.18896   0.61845   0.46367   0.00000  Uiso   1.00
