data_job_05282
_audit_creation_date              2018-12-19
_audit_creation_method            'Materials Studio'
_symmetry_space_group_name_H-M    'P1'
_symmetry_Int_Tables_number       1
_symmetry_cell_setting            triclinic
loop_
_symmetry_equiv_pos_as_xyz
  x,y,z
_cell_length_a                    29.5114
_cell_length_b                    14.8481
_cell_length_c                    9.8612
_cell_angle_alpha                 90.0000
_cell_angle_beta                  90.0000
_cell_angle_gamma                 90.0000
loop_
_atom_site_label
_atom_site_type_symbol
_atom_site_fract_x
_atom_site_fract_y
_atom_site_fract_z
_atom_site_U_iso_or_equiv
_atom_site_adp_type
_atom_site_occupancy
C1     C     0.83597   0.26067   0.23048   0.00000  Uiso   1.00
C2     C     0.86719   0.21533   0.12789   0.00000  Uiso   1.00
C3     C     0.86155   0.21580   0.98818   0.00000  Uiso   1.00
C4     C     0.89381   0.17038   0.91183   0.00000  Uiso   1.00
C5     C     0.93671   0.10668   0.74322   0.00000  Uiso   1.00
C6     C     0.82097   0.18676   0.32802   0.00000  Uiso   1.00
C7     C     0.77647   0.16322   0.35659   0.00000  Uiso   1.00
C8     C     0.76982   0.09376   0.44873   0.00000  Uiso   1.00
C9     C     0.74096   0.98575   0.59090   0.00000  Uiso   1.00
C10    C     0.86587   0.32407   0.31287   0.00000  Uiso   1.00
C11    C     0.85913   0.41597   0.32874   0.00000  Uiso   1.00
C12    C     0.89028   0.46211   0.40815   0.00000  Uiso   1.00
C13    C     0.93114   0.56729   0.52680   0.00000  Uiso   1.00
C14    C     0.90328   0.17920   0.34335   0.00000  Uiso   1.00
C15    C     0.90375   0.17108   0.18920   0.00000  Uiso   1.00
C16    C     0.93602   0.12566   0.11305   0.00000  Uiso   1.00
C17    C     0.93043   0.12605   0.97324   0.00000  Uiso   1.00
C18    C     0.85752   0.14251   0.38933   0.00000  Uiso   1.00
C19    C     0.85094   0.07308   0.48146   0.00000  Uiso   1.00
C20    C     0.80644   0.04943   0.51015   0.00000  Uiso   1.00
C21    C     0.90243   0.27982   0.37418   0.00000  Uiso   1.00
C22    C     0.93360   0.32583   0.45360   0.00000  Uiso   1.00
C23    C     0.92690   0.41778   0.46957   0.00000  Uiso   1.00
H24    H     0.80751   0.29512   0.18276   0.00000  Uiso   1.00
H25    H     0.83325   0.25004   0.94078   0.00000  Uiso   1.00
H26    H     0.74819   0.19748   0.30914   0.00000  Uiso   1.00
H27    H     0.83083   0.45019   0.28128   0.00000  Uiso   1.00
H28    H     0.87791   0.18052   0.69953   0.00000  Uiso   1.00
H29    H     0.69854   0.06971   0.47628   0.00000  Uiso   1.00
H30    H     0.87282   0.60261   0.41754   0.00000  Uiso   1.00
H31    H     0.93174   0.14475   0.39108   0.00000  Uiso   1.00
H32    H     0.96431   0.09142   0.16052   0.00000  Uiso   1.00
H33    H     0.87924   0.03885   0.52888   0.00000  Uiso   1.00
H34    H     0.96189   0.29157   0.50102   0.00000  Uiso   1.00
H35    H     0.98428   0.05177   0.87788   0.00000  Uiso   1.00
H36    H     0.80491   0.94097   0.65464   0.00000  Uiso   1.00
H37    H     0.97919   0.47386   0.59589   0.00000  Uiso   1.00
O38    O     0.95027   0.08376   0.63328   0.00000  Uiso   1.00
O39    O     0.71494   0.93839   0.65236   0.00000  Uiso   1.00
O40    O     0.94359   0.63753   0.57529   0.00000  Uiso   1.00
N41    N     0.89848   0.15756   0.77314   0.00000  Uiso   1.00
N42    N     0.73078   0.05394   0.49934   0.00000  Uiso   1.00
N43    N     0.89371   0.55215   0.44445   0.00000  Uiso   1.00
N44    N     0.95572   0.08828   0.86911   0.00000  Uiso   1.00
N45    N     0.78802   0.98467   0.59531   0.00000  Uiso   1.00
N46    N     0.95094   0.48288   0.54042   0.00000  Uiso   1.00
C47    C     0.66403   0.23933   0.73048   0.00000  Uiso   1.00
C48    C     0.63281   0.28467   0.62789   0.00000  Uiso   1.00
C49    C     0.63845   0.28420   0.48818   0.00000  Uiso   1.00
C50    C     0.60619   0.32962   0.41183   0.00000  Uiso   1.00
C51    C     0.56329   0.39332   0.24322   0.00000  Uiso   1.00
C52    C     0.67903   0.31324   0.82802   0.00000  Uiso   1.00
C53    C     0.72353   0.33678   0.85659   0.00000  Uiso   1.00
C54    C     0.73018   0.40624   0.94873   0.00000  Uiso   1.00
C55    C     0.75904   0.51425   0.09090   0.00000  Uiso   1.00
C56    C     0.63413   0.17593   0.81287   0.00000  Uiso   1.00
C57    C     0.64087   0.08403   0.82874   0.00000  Uiso   1.00
C58    C     0.60972   0.03789   0.90815   0.00000  Uiso   1.00
C59    C     0.56886   0.93271   0.02680   0.00000  Uiso   1.00
C60    C     0.59672   0.32080   0.84335   0.00000  Uiso   1.00
C61    C     0.59625   0.32892   0.68920   0.00000  Uiso   1.00
C62    C     0.56398   0.37434   0.61305   0.00000  Uiso   1.00
C63    C     0.56957   0.37395   0.47324   0.00000  Uiso   1.00
C64    C     0.64248   0.35749   0.88933   0.00000  Uiso   1.00
C65    C     0.64906   0.42692   0.98146   0.00000  Uiso   1.00
C66    C     0.69356   0.45057   0.01015   0.00000  Uiso   1.00
C67    C     0.59757   0.22018   0.87418   0.00000  Uiso   1.00
C68    C     0.56640   0.17417   0.95360   0.00000  Uiso   1.00
C69    C     0.57310   0.08222   0.96957   0.00000  Uiso   1.00
H70    H     0.69249   0.20488   0.68276   0.00000  Uiso   1.00
H71    H     0.66675   0.24996   0.44078   0.00000  Uiso   1.00
H72    H     0.75181   0.30252   0.80914   0.00000  Uiso   1.00
H73    H     0.66917   0.04981   0.78128   0.00000  Uiso   1.00
H74    H     0.62209   0.31948   0.19953   0.00000  Uiso   1.00
H75    H     0.80146   0.43029   0.97628   0.00000  Uiso   1.00
H76    H     0.62718   0.89739   0.91754   0.00000  Uiso   1.00
H77    H     0.56826   0.35525   0.89108   0.00000  Uiso   1.00
H78    H     0.53569   0.40858   0.66052   0.00000  Uiso   1.00
H79    H     0.62076   0.46115   0.02888   0.00000  Uiso   1.00
H80    H     0.53811   0.20843   0.00102   0.00000  Uiso   1.00
H81    H     0.51572   0.44823   0.37788   0.00000  Uiso   1.00
H82    H     0.69509   0.55903   0.15464   0.00000  Uiso   1.00
H83    H     0.52081   0.02614   0.09589   0.00000  Uiso   1.00
O84    O     0.54973   0.41624   0.13328   0.00000  Uiso   1.00
O85    O     0.78506   0.56161   0.15236   0.00000  Uiso   1.00
O86    O     0.55641   0.86247   0.07529   0.00000  Uiso   1.00
N87    N     0.60152   0.34244   0.27314   0.00000  Uiso   1.00
N88    N     0.76922   0.44606   0.99934   0.00000  Uiso   1.00
N89    N     0.60629   0.94785   0.94445   0.00000  Uiso   1.00
N90    N     0.54428   0.41172   0.36911   0.00000  Uiso   1.00
N91    N     0.71198   0.51533   0.09531   0.00000  Uiso   1.00
N92    N     0.54906   0.01712   0.04042   0.00000  Uiso   1.00
C93    C     0.16403   0.26067   0.26952   0.00000  Uiso   1.00
C94    C     0.13281   0.21533   0.37211   0.00000  Uiso   1.00
C95    C     0.13845   0.21580   0.51182   0.00000  Uiso   1.00
C96    C     0.10619   0.17038   0.58817   0.00000  Uiso   1.00
C97    C     0.06329   0.10668   0.75678   0.00000  Uiso   1.00
C98    C     0.17903   0.18676   0.17198   0.00000  Uiso   1.00
C99    C     0.22353   0.16322   0.14341   0.00000  Uiso   1.00
C100   C     0.23018   0.09376   0.05127   0.00000  Uiso   1.00
C101   C     0.25904   0.98575   0.90910   0.00000  Uiso   1.00
C102   C     0.13413   0.32407   0.18713   0.00000  Uiso   1.00
C103   C     0.14087   0.41597   0.17126   0.00000  Uiso   1.00
C104   C     0.10972   0.46211   0.09185   0.00000  Uiso   1.00
C105   C     0.06886   0.56729   0.97320   0.00000  Uiso   1.00
C106   C     0.09672   0.17920   0.15665   0.00000  Uiso   1.00
C107   C     0.09625   0.17108   0.31080   0.00000  Uiso   1.00
C108   C     0.06398   0.12566   0.38695   0.00000  Uiso   1.00
C109   C     0.06957   0.12605   0.52676   0.00000  Uiso   1.00
C110   C     0.14248   0.14251   0.11067   0.00000  Uiso   1.00
C111   C     0.14906   0.07308   0.01854   0.00000  Uiso   1.00
C112   C     0.19356   0.04943   0.98985   0.00000  Uiso   1.00
C113   C     0.09757   0.27982   0.12582   0.00000  Uiso   1.00
C114   C     0.06640   0.32583   0.04640   0.00000  Uiso   1.00
C115   C     0.07310   0.41778   0.03043   0.00000  Uiso   1.00
H116   H     0.19249   0.29512   0.31724   0.00000  Uiso   1.00
H117   H     0.16675   0.25004   0.55922   0.00000  Uiso   1.00
H118   H     0.25181   0.19748   0.19086   0.00000  Uiso   1.00
H119   H     0.16917   0.45019   0.21872   0.00000  Uiso   1.00
H120   H     0.12209   0.18052   0.80047   0.00000  Uiso   1.00
H121   H     0.30146   0.06971   0.02372   0.00000  Uiso   1.00
H122   H     0.12718   0.60261   0.08246   0.00000  Uiso   1.00
H123   H     0.06826   0.14475   0.10892   0.00000  Uiso   1.00
H124   H     0.03569   0.09142   0.33948   0.00000  Uiso   1.00
H125   H     0.12076   0.03885   0.97112   0.00000  Uiso   1.00
H126   H     0.03811   0.29157   0.99898   0.00000  Uiso   1.00
H127   H     0.01572   0.05177   0.62212   0.00000  Uiso   1.00
H128   H     0.19509   0.94097   0.84536   0.00000  Uiso   1.00
H129   H     0.02081   0.47386   0.90411   0.00000  Uiso   1.00
O130   O     0.04973   0.08376   0.86672   0.00000  Uiso   1.00
O131   O     0.28506   0.93839   0.84764   0.00000  Uiso   1.00
O132   O     0.05641   0.63753   0.92471   0.00000  Uiso   1.00
N133   N     0.10152   0.15756   0.72686   0.00000  Uiso   1.00
N134   N     0.26922   0.05394   0.00066   0.00000  Uiso   1.00
N135   N     0.10629   0.55215   0.05555   0.00000  Uiso   1.00
N136   N     0.04428   0.08828   0.63089   0.00000  Uiso   1.00
N137   N     0.21198   0.98467   0.90469   0.00000  Uiso   1.00
N138   N     0.04906   0.48288   0.95958   0.00000  Uiso   1.00
C139   C     0.33597   0.23933   0.76952   0.00000  Uiso   1.00
C140   C     0.36719   0.28467   0.87211   0.00000  Uiso   1.00
C141   C     0.36155   0.28420   0.01182   0.00000  Uiso   1.00
C142   C     0.39381   0.32962   0.08817   0.00000  Uiso   1.00
C143   C     0.43671   0.39332   0.25678   0.00000  Uiso   1.00
C144   C     0.32097   0.31324   0.67198   0.00000  Uiso   1.00
C145   C     0.27647   0.33678   0.64341   0.00000  Uiso   1.00
C146   C     0.26982   0.40624   0.55127   0.00000  Uiso   1.00
C147   C     0.24096   0.51425   0.40910   0.00000  Uiso   1.00
C148   C     0.36587   0.17593   0.68713   0.00000  Uiso   1.00
C149   C     0.35913   0.08403   0.67126   0.00000  Uiso   1.00
C150   C     0.39028   0.03789   0.59185   0.00000  Uiso   1.00
C151   C     0.43114   0.93271   0.47320   0.00000  Uiso   1.00
C152   C     0.40328   0.32080   0.65665   0.00000  Uiso   1.00
C153   C     0.40375   0.32892   0.81080   0.00000  Uiso   1.00
C154   C     0.43602   0.37434   0.88695   0.00000  Uiso   1.00
C155   C     0.43043   0.37395   0.02676   0.00000  Uiso   1.00
C156   C     0.35752   0.35749   0.61067   0.00000  Uiso   1.00
C157   C     0.35094   0.42692   0.51854   0.00000  Uiso   1.00
C158   C     0.30644   0.45057   0.48985   0.00000  Uiso   1.00
C159   C     0.40243   0.22018   0.62582   0.00000  Uiso   1.00
C160   C     0.43360   0.17417   0.54640   0.00000  Uiso   1.00
C161   C     0.42690   0.08222   0.53043   0.00000  Uiso   1.00
H162   H     0.30751   0.20488   0.81724   0.00000  Uiso   1.00
H163   H     0.33325   0.24996   0.05922   0.00000  Uiso   1.00
H164   H     0.24819   0.30252   0.69086   0.00000  Uiso   1.00
H165   H     0.33083   0.04981   0.71872   0.00000  Uiso   1.00
H166   H     0.37791   0.31948   0.30047   0.00000  Uiso   1.00
H167   H     0.19854   0.43029   0.52372   0.00000  Uiso   1.00
H168   H     0.37282   0.89739   0.58246   0.00000  Uiso   1.00
H169   H     0.43174   0.35525   0.60892   0.00000  Uiso   1.00
H170   H     0.46431   0.40858   0.83948   0.00000  Uiso   1.00
H171   H     0.37924   0.46115   0.47112   0.00000  Uiso   1.00
H172   H     0.46189   0.20843   0.49898   0.00000  Uiso   1.00
H173   H     0.48428   0.44823   0.12212   0.00000  Uiso   1.00
H174   H     0.30491   0.55903   0.34536   0.00000  Uiso   1.00
H175   H     0.47919   0.02614   0.40411   0.00000  Uiso   1.00
O176   O     0.45027   0.41624   0.36672   0.00000  Uiso   1.00
O177   O     0.21494   0.56161   0.34764   0.00000  Uiso   1.00
O178   O     0.44359   0.86247   0.42471   0.00000  Uiso   1.00
N179   N     0.39848   0.34244   0.22686   0.00000  Uiso   1.00
N180   N     0.23078   0.44606   0.50066   0.00000  Uiso   1.00
N181   N     0.39371   0.94785   0.55555   0.00000  Uiso   1.00
N182   N     0.45572   0.41172   0.13089   0.00000  Uiso   1.00
N183   N     0.28802   0.51533   0.40469   0.00000  Uiso   1.00
N184   N     0.45094   0.01712   0.45958   0.00000  Uiso   1.00
C185   C     0.16403   0.73933   0.76952   0.00000  Uiso   1.00
C186   C     0.13281   0.78467   0.87211   0.00000  Uiso   1.00
C187   C     0.13845   0.78420   0.01182   0.00000  Uiso   1.00
C188   C     0.10619   0.82962   0.08817   0.00000  Uiso   1.00
C189   C     0.06329   0.89332   0.25678   0.00000  Uiso   1.00
C190   C     0.17903   0.81324   0.67198   0.00000  Uiso   1.00
C191   C     0.22353   0.83678   0.64341   0.00000  Uiso   1.00
C192   C     0.23018   0.90624   0.55127   0.00000  Uiso   1.00
C193   C     0.25904   0.01425   0.40910   0.00000  Uiso   1.00
C194   C     0.13413   0.67593   0.68713   0.00000  Uiso   1.00
C195   C     0.14087   0.58403   0.67126   0.00000  Uiso   1.00
C196   C     0.10972   0.53789   0.59185   0.00000  Uiso   1.00
C197   C     0.06886   0.43271   0.47320   0.00000  Uiso   1.00
C198   C     0.09672   0.82080   0.65665   0.00000  Uiso   1.00
C199   C     0.09625   0.82892   0.81080   0.00000  Uiso   1.00
C200   C     0.06398   0.87434   0.88695   0.00000  Uiso   1.00
C201   C     0.06957   0.87395   0.02676   0.00000  Uiso   1.00
C202   C     0.14248   0.85749   0.61067   0.00000  Uiso   1.00
C203   C     0.14906   0.92692   0.51854   0.00000  Uiso   1.00
C204   C     0.19356   0.95057   0.48985   0.00000  Uiso   1.00
C205   C     0.09757   0.72018   0.62582   0.00000  Uiso   1.00
C206   C     0.06640   0.67417   0.54640   0.00000  Uiso   1.00
C207   C     0.07310   0.58222   0.53043   0.00000  Uiso   1.00
H208   H     0.19249   0.70488   0.81724   0.00000  Uiso   1.00
H209   H     0.16675   0.74996   0.05922   0.00000  Uiso   1.00
H210   H     0.25181   0.80252   0.69086   0.00000  Uiso   1.00
H211   H     0.16917   0.54981   0.71872   0.00000  Uiso   1.00
H212   H     0.12209   0.81948   0.30047   0.00000  Uiso   1.00
H213   H     0.30146   0.93029   0.52372   0.00000  Uiso   1.00
H214   H     0.12718   0.39739   0.58246   0.00000  Uiso   1.00
H215   H     0.06826   0.85525   0.60892   0.00000  Uiso   1.00
H216   H     0.03569   0.90858   0.83948   0.00000  Uiso   1.00
H217   H     0.12076   0.96115   0.47112   0.00000  Uiso   1.00
H218   H     0.03811   0.70843   0.49898   0.00000  Uiso   1.00
H219   H     0.01572   0.94823   0.12212   0.00000  Uiso   1.00
H220   H     0.19509   0.05903   0.34536   0.00000  Uiso   1.00
H221   H     0.02081   0.52614   0.40411   0.00000  Uiso   1.00
O222   O     0.04973   0.91624   0.36672   0.00000  Uiso   1.00
O223   O     0.28506   0.06161   0.34764   0.00000  Uiso   1.00
O224   O     0.05641   0.36247   0.42471   0.00000  Uiso   1.00
N225   N     0.10152   0.84244   0.22686   0.00000  Uiso   1.00
N226   N     0.26922   0.94606   0.50066   0.00000  Uiso   1.00
N227   N     0.10629   0.44785   0.55555   0.00000  Uiso   1.00
N228   N     0.04428   0.91172   0.13089   0.00000  Uiso   1.00
N229   N     0.21198   0.01533   0.40469   0.00000  Uiso   1.00
N230   N     0.04906   0.51712   0.45958   0.00000  Uiso   1.00
C231   C     0.33597   0.76067   0.26952   0.00000  Uiso   1.00
C232   C     0.36719   0.71533   0.37211   0.00000  Uiso   1.00
C233   C     0.36155   0.71580   0.51182   0.00000  Uiso   1.00
C234   C     0.39381   0.67038   0.58817   0.00000  Uiso   1.00
C235   C     0.43671   0.60668   0.75678   0.00000  Uiso   1.00
C236   C     0.32097   0.68676   0.17198   0.00000  Uiso   1.00
C237   C     0.27647   0.66322   0.14341   0.00000  Uiso   1.00
C238   C     0.26982   0.59376   0.05127   0.00000  Uiso   1.00
C239   C     0.24096   0.48575   0.90910   0.00000  Uiso   1.00
C240   C     0.36587   0.82407   0.18713   0.00000  Uiso   1.00
C241   C     0.35913   0.91597   0.17126   0.00000  Uiso   1.00
C242   C     0.39028   0.96211   0.09185   0.00000  Uiso   1.00
C243   C     0.43114   0.06729   0.97320   0.00000  Uiso   1.00
C244   C     0.40328   0.67920   0.15665   0.00000  Uiso   1.00
C245   C     0.40375   0.67108   0.31080   0.00000  Uiso   1.00
C246   C     0.43602   0.62566   0.38695   0.00000  Uiso   1.00
C247   C     0.43043   0.62605   0.52676   0.00000  Uiso   1.00
C248   C     0.35752   0.64251   0.11067   0.00000  Uiso   1.00
C249   C     0.35094   0.57308   0.01854   0.00000  Uiso   1.00
C250   C     0.30644   0.54943   0.98985   0.00000  Uiso   1.00
C251   C     0.40243   0.77982   0.12582   0.00000  Uiso   1.00
C252   C     0.43360   0.82583   0.04640   0.00000  Uiso   1.00
C253   C     0.42690   0.91778   0.03043   0.00000  Uiso   1.00
H254   H     0.30751   0.79512   0.31724   0.00000  Uiso   1.00
H255   H     0.33325   0.75004   0.55922   0.00000  Uiso   1.00
H256   H     0.24819   0.69748   0.19086   0.00000  Uiso   1.00
H257   H     0.33083   0.95019   0.21872   0.00000  Uiso   1.00
H258   H     0.37791   0.68052   0.80047   0.00000  Uiso   1.00
H259   H     0.19854   0.56971   0.02372   0.00000  Uiso   1.00
H260   H     0.37282   0.10261   0.08246   0.00000  Uiso   1.00
H261   H     0.43174   0.64475   0.10892   0.00000  Uiso   1.00
H262   H     0.46431   0.59142   0.33948   0.00000  Uiso   1.00
H263   H     0.37924   0.53885   0.97112   0.00000  Uiso   1.00
H264   H     0.46189   0.79157   0.99898   0.00000  Uiso   1.00
H265   H     0.48428   0.55177   0.62212   0.00000  Uiso   1.00
H266   H     0.30491   0.44097   0.84536   0.00000  Uiso   1.00
H267   H     0.47919   0.97386   0.90411   0.00000  Uiso   1.00
O268   O     0.45027   0.58376   0.86672   0.00000  Uiso   1.00
O269   O     0.21494   0.43839   0.84764   0.00000  Uiso   1.00
O270   O     0.44359   0.13753   0.92471   0.00000  Uiso   1.00
N271   N     0.39848   0.65756   0.72686   0.00000  Uiso   1.00
N272   N     0.23078   0.55394   0.00066   0.00000  Uiso   1.00
N273   N     0.39371   0.05215   0.05555   0.00000  Uiso   1.00
N274   N     0.45572   0.58828   0.63089   0.00000  Uiso   1.00
N275   N     0.28802   0.48467   0.90469   0.00000  Uiso   1.00
N276   N     0.45094   0.98288   0.95958   0.00000  Uiso   1.00
C277   C     0.83597   0.73933   0.73048   0.00000  Uiso   1.00
C278   C     0.86719   0.78467   0.62789   0.00000  Uiso   1.00
C279   C     0.86155   0.78420   0.48818   0.00000  Uiso   1.00
C280   C     0.89381   0.82962   0.41183   0.00000  Uiso   1.00
C281   C     0.93671   0.89332   0.24322   0.00000  Uiso   1.00
C282   C     0.82097   0.81324   0.82802   0.00000  Uiso   1.00
C283   C     0.77647   0.83678   0.85659   0.00000  Uiso   1.00
C284   C     0.76982   0.90624   0.94873   0.00000  Uiso   1.00
C285   C     0.74096   0.01425   0.09090   0.00000  Uiso   1.00
C286   C     0.86587   0.67593   0.81287   0.00000  Uiso   1.00
C287   C     0.85913   0.58403   0.82874   0.00000  Uiso   1.00
C288   C     0.89028   0.53789   0.90815   0.00000  Uiso   1.00
C289   C     0.93114   0.43271   0.02680   0.00000  Uiso   1.00
C290   C     0.90328   0.82080   0.84335   0.00000  Uiso   1.00
C291   C     0.90375   0.82892   0.68920   0.00000  Uiso   1.00
C292   C     0.93602   0.87434   0.61305   0.00000  Uiso   1.00
C293   C     0.93043   0.87395   0.47324   0.00000  Uiso   1.00
C294   C     0.85752   0.85749   0.88933   0.00000  Uiso   1.00
C295   C     0.85094   0.92692   0.98146   0.00000  Uiso   1.00
C296   C     0.80644   0.95057   0.01015   0.00000  Uiso   1.00
C297   C     0.90243   0.72018   0.87418   0.00000  Uiso   1.00
C298   C     0.93360   0.67417   0.95360   0.00000  Uiso   1.00
C299   C     0.92690   0.58222   0.96957   0.00000  Uiso   1.00
H300   H     0.80751   0.70488   0.68276   0.00000  Uiso   1.00
H301   H     0.83325   0.74996   0.44078   0.00000  Uiso   1.00
H302   H     0.74819   0.80252   0.80914   0.00000  Uiso   1.00
H303   H     0.83083   0.54981   0.78128   0.00000  Uiso   1.00
H304   H     0.87791   0.81948   0.19953   0.00000  Uiso   1.00
H305   H     0.69854   0.93029   0.97628   0.00000  Uiso   1.00
H306   H     0.87282   0.39739   0.91754   0.00000  Uiso   1.00
H307   H     0.93174   0.85525   0.89108   0.00000  Uiso   1.00
H308   H     0.96431   0.90858   0.66052   0.00000  Uiso   1.00
H309   H     0.87924   0.96115   0.02888   0.00000  Uiso   1.00
H310   H     0.96189   0.70843   0.00102   0.00000  Uiso   1.00
H311   H     0.98428   0.94823   0.37788   0.00000  Uiso   1.00
H312   H     0.80491   0.05903   0.15464   0.00000  Uiso   1.00
H313   H     0.97919   0.52614   0.09589   0.00000  Uiso   1.00
O314   O     0.95027   0.91624   0.13328   0.00000  Uiso   1.00
O315   O     0.71494   0.06161   0.15236   0.00000  Uiso   1.00
O316   O     0.94359   0.36247   0.07529   0.00000  Uiso   1.00
N317   N     0.89848   0.84244   0.27314   0.00000  Uiso   1.00
N318   N     0.73078   0.94606   0.99934   0.00000  Uiso   1.00
N319   N     0.89371   0.44785   0.94445   0.00000  Uiso   1.00
N320   N     0.95572   0.91172   0.36911   0.00000  Uiso   1.00
N321   N     0.78802   0.01533   0.09531   0.00000  Uiso   1.00
N322   N     0.95094   0.51712   0.04042   0.00000  Uiso   1.00
C323   C     0.66403   0.76067   0.23048   0.00000  Uiso   1.00
C324   C     0.63281   0.71533   0.12789   0.00000  Uiso   1.00
C325   C     0.63845   0.71580   0.98818   0.00000  Uiso   1.00
C326   C     0.60619   0.67038   0.91183   0.00000  Uiso   1.00
C327   C     0.56329   0.60668   0.74322   0.00000  Uiso   1.00
C328   C     0.67903   0.68676   0.32802   0.00000  Uiso   1.00
C329   C     0.72353   0.66322   0.35659   0.00000  Uiso   1.00
C330   C     0.73018   0.59376   0.44873   0.00000  Uiso   1.00
C331   C     0.75904   0.48575   0.59090   0.00000  Uiso   1.00
C332   C     0.63413   0.82407   0.31287   0.00000  Uiso   1.00
C333   C     0.64087   0.91597   0.32874   0.00000  Uiso   1.00
C334   C     0.60972   0.96211   0.40815   0.00000  Uiso   1.00
C335   C     0.56886   0.06729   0.52680   0.00000  Uiso   1.00
C336   C     0.59672   0.67920   0.34335   0.00000  Uiso   1.00
C337   C     0.59625   0.67108   0.18920   0.00000  Uiso   1.00
C338   C     0.56398   0.62566   0.11305   0.00000  Uiso   1.00
C339   C     0.56957   0.62605   0.97324   0.00000  Uiso   1.00
C340   C     0.64248   0.64251   0.38933   0.00000  Uiso   1.00
C341   C     0.64906   0.57308   0.48146   0.00000  Uiso   1.00
C342   C     0.69356   0.54943   0.51015   0.00000  Uiso   1.00
C343   C     0.59757   0.77982   0.37418   0.00000  Uiso   1.00
C344   C     0.56640   0.82583   0.45360   0.00000  Uiso   1.00
C345   C     0.57310   0.91778   0.46957   0.00000  Uiso   1.00
H346   H     0.69249   0.79512   0.18276   0.00000  Uiso   1.00
H347   H     0.66675   0.75004   0.94078   0.00000  Uiso   1.00
H348   H     0.75181   0.69748   0.30914   0.00000  Uiso   1.00
H349   H     0.66917   0.95019   0.28128   0.00000  Uiso   1.00
H350   H     0.62209   0.68052   0.69953   0.00000  Uiso   1.00
H351   H     0.80146   0.56971   0.47628   0.00000  Uiso   1.00
H352   H     0.62718   0.10261   0.41754   0.00000  Uiso   1.00
H353   H     0.56826   0.64475   0.39108   0.00000  Uiso   1.00
H354   H     0.53569   0.59142   0.16052   0.00000  Uiso   1.00
H355   H     0.62076   0.53885   0.52888   0.00000  Uiso   1.00
H356   H     0.53811   0.79157   0.50102   0.00000  Uiso   1.00
H357   H     0.51572   0.55177   0.87788   0.00000  Uiso   1.00
H358   H     0.69509   0.44097   0.65464   0.00000  Uiso   1.00
H359   H     0.52081   0.97386   0.59589   0.00000  Uiso   1.00
O360   O     0.54973   0.58376   0.63328   0.00000  Uiso   1.00
O361   O     0.78506   0.43839   0.65236   0.00000  Uiso   1.00
O362   O     0.55641   0.13753   0.57529   0.00000  Uiso   1.00
N363   N     0.60152   0.65756   0.77314   0.00000  Uiso   1.00
N364   N     0.76922   0.55394   0.49934   0.00000  Uiso   1.00
N365   N     0.60629   0.05215   0.44445   0.00000  Uiso   1.00
N366   N     0.54428   0.58828   0.86911   0.00000  Uiso   1.00
N367   N     0.71198   0.48467   0.59531   0.00000  Uiso   1.00
N368   N     0.54906   0.98288   0.54042   0.00000  Uiso   1.00
