data_job_05749
_audit_creation_date              2018-12-19
_audit_creation_method            'Materials Studio'
_symmetry_space_group_name_H-M    'P1'
_symmetry_Int_Tables_number       1
_symmetry_cell_setting            triclinic
loop_
_symmetry_equiv_pos_as_xyz
  x,y,z
_cell_length_a                    24.5616
_cell_length_b                    10.5893
_cell_length_c                    16.0632
_cell_angle_alpha                 90.0000
_cell_angle_beta                  145.7270
_cell_angle_gamma                 90.0000
loop_
_atom_site_label
_atom_site_type_symbol
_atom_site_fract_x
_atom_site_fract_y
_atom_site_fract_z
_atom_site_U_iso_or_equiv
_atom_site_adp_type
_atom_site_occupancy
C1     C     0.53579   0.90329   0.19741   0.00000  Uiso   1.00
C2     C     0.53387   0.83687   0.11077   0.00000  Uiso   1.00
C3     C     0.45354   0.78101   0.97288   0.00000  Uiso   1.00
C4     C     0.46669   0.72508   0.91215   0.00000  Uiso   1.00
C5     C     0.44999   0.62189   0.76630   0.00000  Uiso   1.00
C6     C     0.61364   0.83687   0.34678   0.00000  Uiso   1.00
C7     C     0.60037   0.78103   0.40734   0.00000  Uiso   1.00
C8     C     0.68067   0.72511   0.54529   0.00000  Uiso   1.00
C9     C     0.78782   0.62200   0.76591   0.00000  Uiso   1.00
C10    C     0.57377   0.03612   0.22879   0.00000  Uiso   1.00
C11    C     0.52698   0.14781   0.19018   0.00000  Uiso   1.00
C12    C     0.57372   0.25964   0.22882   0.00000  Uiso   1.00
C13    C     0.61896   0.46589   0.26624   0.00000  Uiso   1.00
C14    C     0.70199   0.90328   0.33473   0.00000  Uiso   1.00
C15    C     0.62415   0.83687   0.18536   0.00000  Uiso   1.00
C16    C     0.63742   0.78100   0.12481   0.00000  Uiso   1.00
C17    C     0.55712   0.72508   0.98686   0.00000  Uiso   1.00
C18    C     0.70391   0.83686   0.42137   0.00000  Uiso   1.00
C19    C     0.78425   0.78102   0.55927   0.00000  Uiso   1.00
C20    C     0.77111   0.72510   0.62001   0.00000  Uiso   1.00
C21    C     0.66404   0.03611   0.30338   0.00000  Uiso   1.00
C22    C     0.71086   0.14780   0.34210   0.00000  Uiso   1.00
C23    C     0.66416   0.25964   0.30355   0.00000  Uiso   1.00
H24    H     0.46552   0.90329   0.13935   0.00000  Uiso   1.00
H25    H     0.38369   0.78103   0.91520   0.00000  Uiso   1.00
H26    H     0.53051   0.78106   0.34960   0.00000  Uiso   1.00
H27    H     0.45713   0.14778   0.13246   0.00000  Uiso   1.00
H28    H     0.33280   0.64543   0.69962   0.00000  Uiso   1.00
H29    H     0.64236   0.64553   0.61558   0.00000  Uiso   1.00
H30    H     0.48763   0.41883   0.15772   0.00000  Uiso   1.00
H31    H     0.77228   0.90328   0.39280   0.00000  Uiso   1.00
H32    H     0.70729   0.78101   0.18256   0.00000  Uiso   1.00
H33    H     0.85410   0.78104   0.61696   0.00000  Uiso   1.00
H34    H     0.78072   0.14776   0.39982   0.00000  Uiso   1.00
H35    H     0.59544   0.64541   0.91662   0.00000  Uiso   1.00
H36    H     0.90501   0.64552   0.83259   0.00000  Uiso   1.00
H37    H     0.75028   0.41882   0.37471   0.00000  Uiso   1.00
O38    O     0.41584   0.56496   0.66526   0.00000  Uiso   1.00
O39    O     0.82198   0.56511   0.86698   0.00000  Uiso   1.00
O40    O     0.61897   0.57966   0.26626   0.00000  Uiso   1.00
N41    N     0.40353   0.66223   0.77953   0.00000  Uiso   1.00
N42    N     0.69295   0.66230   0.63589   0.00000  Uiso   1.00
N43    N     0.54830   0.38528   0.20786   0.00000  Uiso   1.00
N44    N     0.54485   0.66222   0.89629   0.00000  Uiso   1.00
N45    N     0.83427   0.66230   0.75265   0.00000  Uiso   1.00
N46    N     0.68962   0.38527   0.32462   0.00000  Uiso   1.00
C47    C     0.03579   0.40329   0.19741   0.00000  Uiso   1.00
C48    C     0.03387   0.33687   0.11077   0.00000  Uiso   1.00
C49    C     0.95354   0.28101   0.97288   0.00000  Uiso   1.00
C50    C     0.96669   0.22508   0.91215   0.00000  Uiso   1.00
C51    C     0.94999   0.12189   0.76630   0.00000  Uiso   1.00
C52    C     0.11364   0.33687   0.34678   0.00000  Uiso   1.00
C53    C     0.10037   0.28103   0.40734   0.00000  Uiso   1.00
C54    C     0.18067   0.22511   0.54529   0.00000  Uiso   1.00
C55    C     0.28782   0.12200   0.76591   0.00000  Uiso   1.00
C56    C     0.07377   0.53612   0.22879   0.00000  Uiso   1.00
C57    C     0.02698   0.64781   0.19018   0.00000  Uiso   1.00
C58    C     0.07372   0.75964   0.22882   0.00000  Uiso   1.00
C59    C     0.11896   0.96589   0.26624   0.00000  Uiso   1.00
C60    C     0.20199   0.40328   0.33473   0.00000  Uiso   1.00
C61    C     0.12415   0.33687   0.18536   0.00000  Uiso   1.00
C62    C     0.13742   0.28100   0.12481   0.00000  Uiso   1.00
C63    C     0.05712   0.22508   0.98686   0.00000  Uiso   1.00
C64    C     0.20391   0.33686   0.42137   0.00000  Uiso   1.00
C65    C     0.28425   0.28102   0.55927   0.00000  Uiso   1.00
C66    C     0.27111   0.22510   0.62001   0.00000  Uiso   1.00
C67    C     0.16404   0.53611   0.30338   0.00000  Uiso   1.00
C68    C     0.21086   0.64780   0.34210   0.00000  Uiso   1.00
C69    C     0.16416   0.75964   0.30355   0.00000  Uiso   1.00
H70    H     0.96552   0.40329   0.13935   0.00000  Uiso   1.00
H71    H     0.88369   0.28103   0.91520   0.00000  Uiso   1.00
H72    H     0.03051   0.28106   0.34960   0.00000  Uiso   1.00
H73    H     0.95713   0.64778   0.13246   0.00000  Uiso   1.00
H74    H     0.83280   0.14543   0.69962   0.00000  Uiso   1.00
H75    H     0.14236   0.14553   0.61558   0.00000  Uiso   1.00
H76    H     0.98763   0.91883   0.15772   0.00000  Uiso   1.00
H77    H     0.27228   0.40328   0.39280   0.00000  Uiso   1.00
H78    H     0.20729   0.28101   0.18256   0.00000  Uiso   1.00
H79    H     0.35410   0.28104   0.61696   0.00000  Uiso   1.00
H80    H     0.28072   0.64776   0.39982   0.00000  Uiso   1.00
H81    H     0.09544   0.14541   0.91662   0.00000  Uiso   1.00
H82    H     0.40501   0.14552   0.83259   0.00000  Uiso   1.00
H83    H     0.25028   0.91882   0.37471   0.00000  Uiso   1.00
O84    O     0.91584   0.06496   0.66526   0.00000  Uiso   1.00
O85    O     0.32198   0.06511   0.86698   0.00000  Uiso   1.00
O86    O     0.11897   0.07966   0.26626   0.00000  Uiso   1.00
N87    N     0.90353   0.16223   0.77953   0.00000  Uiso   1.00
N88    N     0.19295   0.16230   0.63589   0.00000  Uiso   1.00
N89    N     0.04830   0.88528   0.20786   0.00000  Uiso   1.00
N90    N     0.04485   0.16222   0.89629   0.00000  Uiso   1.00
N91    N     0.33427   0.16230   0.75265   0.00000  Uiso   1.00
N92    N     0.18962   0.88527   0.32462   0.00000  Uiso   1.00
C93    C     0.53579   0.09671   0.69741   0.00000  Uiso   1.00
C94    C     0.53387   0.16313   0.61077   0.00000  Uiso   1.00
C95    C     0.45354   0.21899   0.47288   0.00000  Uiso   1.00
C96    C     0.46669   0.27492   0.41215   0.00000  Uiso   1.00
C97    C     0.44999   0.37811   0.26630   0.00000  Uiso   1.00
C98    C     0.61364   0.16313   0.84678   0.00000  Uiso   1.00
C99    C     0.60037   0.21897   0.90734   0.00000  Uiso   1.00
C100   C     0.68067   0.27489   0.04529   0.00000  Uiso   1.00
C101   C     0.78782   0.37800   0.26591   0.00000  Uiso   1.00
C102   C     0.57377   0.96388   0.72879   0.00000  Uiso   1.00
C103   C     0.52698   0.85219   0.69018   0.00000  Uiso   1.00
C104   C     0.57372   0.74036   0.72882   0.00000  Uiso   1.00
C105   C     0.61896   0.53411   0.76624   0.00000  Uiso   1.00
C106   C     0.70199   0.09672   0.83473   0.00000  Uiso   1.00
C107   C     0.62415   0.16313   0.68536   0.00000  Uiso   1.00
C108   C     0.63742   0.21900   0.62481   0.00000  Uiso   1.00
C109   C     0.55712   0.27492   0.48686   0.00000  Uiso   1.00
C110   C     0.70391   0.16314   0.92137   0.00000  Uiso   1.00
C111   C     0.78425   0.21898   0.05927   0.00000  Uiso   1.00
C112   C     0.77111   0.27490   0.12001   0.00000  Uiso   1.00
C113   C     0.66404   0.96389   0.80338   0.00000  Uiso   1.00
C114   C     0.71086   0.85220   0.84210   0.00000  Uiso   1.00
C115   C     0.66416   0.74036   0.80355   0.00000  Uiso   1.00
H116   H     0.46552   0.09671   0.63935   0.00000  Uiso   1.00
H117   H     0.38369   0.21897   0.41520   0.00000  Uiso   1.00
H118   H     0.53051   0.21894   0.84960   0.00000  Uiso   1.00
H119   H     0.45713   0.85222   0.63246   0.00000  Uiso   1.00
H120   H     0.33280   0.35457   0.19962   0.00000  Uiso   1.00
H121   H     0.64236   0.35447   0.11558   0.00000  Uiso   1.00
H122   H     0.48763   0.58117   0.65772   0.00000  Uiso   1.00
H123   H     0.77228   0.09672   0.89280   0.00000  Uiso   1.00
H124   H     0.70729   0.21899   0.68256   0.00000  Uiso   1.00
H125   H     0.85410   0.21896   0.11696   0.00000  Uiso   1.00
H126   H     0.78072   0.85224   0.89982   0.00000  Uiso   1.00
H127   H     0.59544   0.35459   0.41662   0.00000  Uiso   1.00
H128   H     0.90501   0.35448   0.33259   0.00000  Uiso   1.00
H129   H     0.75028   0.58118   0.87471   0.00000  Uiso   1.00
O130   O     0.41584   0.43504   0.16526   0.00000  Uiso   1.00
O131   O     0.82198   0.43489   0.36698   0.00000  Uiso   1.00
O132   O     0.61897   0.42034   0.76626   0.00000  Uiso   1.00
N133   N     0.40353   0.33777   0.27953   0.00000  Uiso   1.00
N134   N     0.69295   0.33770   0.13589   0.00000  Uiso   1.00
N135   N     0.54830   0.61472   0.70786   0.00000  Uiso   1.00
N136   N     0.54485   0.33778   0.39629   0.00000  Uiso   1.00
N137   N     0.83427   0.33770   0.25265   0.00000  Uiso   1.00
N138   N     0.68962   0.61473   0.82462   0.00000  Uiso   1.00
C139   C     0.03579   0.59671   0.69741   0.00000  Uiso   1.00
C140   C     0.03387   0.66313   0.61077   0.00000  Uiso   1.00
C141   C     0.95354   0.71899   0.47288   0.00000  Uiso   1.00
C142   C     0.96669   0.77492   0.41215   0.00000  Uiso   1.00
C143   C     0.94999   0.87811   0.26630   0.00000  Uiso   1.00
C144   C     0.11364   0.66313   0.84678   0.00000  Uiso   1.00
C145   C     0.10037   0.71897   0.90734   0.00000  Uiso   1.00
C146   C     0.18067   0.77489   0.04529   0.00000  Uiso   1.00
C147   C     0.28782   0.87800   0.26591   0.00000  Uiso   1.00
C148   C     0.07377   0.46388   0.72879   0.00000  Uiso   1.00
C149   C     0.02698   0.35219   0.69018   0.00000  Uiso   1.00
C150   C     0.07372   0.24036   0.72882   0.00000  Uiso   1.00
C151   C     0.11896   0.03411   0.76624   0.00000  Uiso   1.00
C152   C     0.20199   0.59672   0.83473   0.00000  Uiso   1.00
C153   C     0.12415   0.66313   0.68536   0.00000  Uiso   1.00
C154   C     0.13742   0.71900   0.62481   0.00000  Uiso   1.00
C155   C     0.05712   0.77492   0.48686   0.00000  Uiso   1.00
C156   C     0.20391   0.66314   0.92137   0.00000  Uiso   1.00
C157   C     0.28425   0.71898   0.05927   0.00000  Uiso   1.00
C158   C     0.27111   0.77490   0.12001   0.00000  Uiso   1.00
C159   C     0.16404   0.46389   0.80338   0.00000  Uiso   1.00
C160   C     0.21086   0.35220   0.84210   0.00000  Uiso   1.00
C161   C     0.16416   0.24036   0.80355   0.00000  Uiso   1.00
H162   H     0.96552   0.59671   0.63935   0.00000  Uiso   1.00
H163   H     0.88369   0.71897   0.41520   0.00000  Uiso   1.00
H164   H     0.03051   0.71894   0.84960   0.00000  Uiso   1.00
H165   H     0.95713   0.35222   0.63246   0.00000  Uiso   1.00
H166   H     0.83280   0.85457   0.19962   0.00000  Uiso   1.00
H167   H     0.14236   0.85447   0.11558   0.00000  Uiso   1.00
H168   H     0.98763   0.08117   0.65772   0.00000  Uiso   1.00
H169   H     0.27228   0.59672   0.89280   0.00000  Uiso   1.00
H170   H     0.20729   0.71899   0.68256   0.00000  Uiso   1.00
H171   H     0.35410   0.71896   0.11696   0.00000  Uiso   1.00
H172   H     0.28072   0.35224   0.89982   0.00000  Uiso   1.00
H173   H     0.09544   0.85459   0.41662   0.00000  Uiso   1.00
H174   H     0.40501   0.85448   0.33259   0.00000  Uiso   1.00
H175   H     0.25028   0.08118   0.87471   0.00000  Uiso   1.00
O176   O     0.91584   0.93504   0.16526   0.00000  Uiso   1.00
O177   O     0.32198   0.93489   0.36698   0.00000  Uiso   1.00
O178   O     0.11897   0.92034   0.76626   0.00000  Uiso   1.00
N179   N     0.90353   0.83777   0.27953   0.00000  Uiso   1.00
N180   N     0.19295   0.83770   0.13589   0.00000  Uiso   1.00
N181   N     0.04830   0.11472   0.70786   0.00000  Uiso   1.00
N182   N     0.04485   0.83778   0.39629   0.00000  Uiso   1.00
N183   N     0.33427   0.83770   0.25265   0.00000  Uiso   1.00
N184   N     0.18962   0.11473   0.82462   0.00000  Uiso   1.00
