data_job_02976
_audit_creation_date              2018-12-19
_audit_creation_method            'Materials Studio'
_symmetry_space_group_name_H-M    'P1'
_symmetry_Int_Tables_number       1
_symmetry_cell_setting            triclinic
loop_
_symmetry_equiv_pos_as_xyz
  x,y,z
_cell_length_a                    14.5392
_cell_length_b                    16.1688
_cell_length_c                    20.0728
_cell_angle_alpha                 90.0000
_cell_angle_beta                  132.4575
_cell_angle_gamma                 90.0000
loop_
_atom_site_label
_atom_site_type_symbol
_atom_site_fract_x
_atom_site_fract_y
_atom_site_fract_z
_atom_site_U_iso_or_equiv
_atom_site_adp_type
_atom_site_occupancy
C1     C     0.32340   0.93163   0.19766   0.00000  Uiso   1.00
C2     C     0.24037   0.98536   0.20099   0.00000  Uiso   1.00
C3     C     0.19045   0.06149   0.15904   0.00000  Uiso   1.00
C4     C     0.11679   0.10091   0.17021   0.00000  Uiso   1.00
C5     C     0.99128   0.18972   0.16754   0.00000  Uiso   1.00
C6     C     0.25855   0.84792   0.16109   0.00000  Uiso   1.00
C7     C     0.22393   0.80849   0.08560   0.00000  Uiso   1.00
C8     C     0.16559   0.73221   0.06320   0.00000  Uiso   1.00
C9     C     0.06839   0.60762   0.99861   0.00000  Uiso   1.00
C10    C     0.44248   0.91681   0.29562   0.00000  Uiso   1.00
C11    C     0.56253   0.93529   0.33325   0.00000  Uiso   1.00
C12    C     0.65906   0.91699   0.42412   0.00000  Uiso   1.00
C13    C     0.84744   0.89936   0.56842   0.00000  Uiso   1.00
C14    C     0.28138   0.86627   0.29211   0.00000  Uiso   1.00
C15    C     0.21755   0.94985   0.25229   0.00000  Uiso   1.00
C16    C     0.14396   0.98918   0.26353   0.00000  Uiso   1.00
C17    C     0.09393   0.06535   0.22161   0.00000  Uiso   1.00
C18    C     0.23572   0.81242   0.21238   0.00000  Uiso   1.00
C19    C     0.17744   0.73618   0.19009   0.00000  Uiso   1.00
C20    C     0.14273   0.69664   0.11459   0.00000  Uiso   1.00
C21    C     0.41966   0.88131   0.34693   0.00000  Uiso   1.00
C22    C     0.51603   0.86298   0.43774   0.00000  Uiso   1.00
C23    C     0.63619   0.88142   0.47551   0.00000  Uiso   1.00
H24    H     0.34117   0.95926   0.15772   0.00000  Uiso   1.00
H25    H     0.20812   0.08894   0.11934   0.00000  Uiso   1.00
H26    H     0.24161   0.83598   0.04592   0.00000  Uiso   1.00
H27    H     0.58015   0.96276   0.29354   0.00000  Uiso   1.00
H28    H     0.05051   0.21704   0.09938   0.00000  Uiso   1.00
H29    H     0.12116   0.68364   0.94459   0.00000  Uiso   1.00
H30    H     0.83504   0.95098   0.46673   0.00000  Uiso   1.00
H31    H     0.26361   0.83862   0.33205   0.00000  Uiso   1.00
H32    H     0.12631   0.96169   0.30323   0.00000  Uiso   1.00
H33    H     0.15980   0.70872   0.22981   0.00000  Uiso   1.00
H34    H     0.49834   0.83550   0.47742   0.00000  Uiso   1.00
H35    H     0.98410   0.11375   0.24863   0.00000  Uiso   1.00
H36    H     0.05476   0.58035   0.09384   0.00000  Uiso   1.00
H37    H     0.76864   0.84769   0.61598   0.00000  Uiso   1.00
O38    O     0.92835   0.24851   0.15188   0.00000  Uiso   1.00
O39    O     0.02107   0.54870   0.94881   0.00000  Uiso   1.00
O40    O     0.95766   0.89946   0.63385   0.00000  Uiso   1.00
N41    N     0.05374   0.17585   0.13848   0.00000  Uiso   1.00
N42    N     0.11978   0.67716   0.99375   0.00000  Uiso   1.00
N43    N     0.78720   0.92708   0.48190   0.00000  Uiso   1.00
N44    N     0.01801   0.12027   0.21879   0.00000  Uiso   1.00
N45    N     0.08405   0.62158   0.07406   0.00000  Uiso   1.00
N46    N     0.75147   0.87150   0.56221   0.00000  Uiso   1.00
C47    C     0.67660   0.43163   0.30234   0.00000  Uiso   1.00
C48    C     0.75963   0.48536   0.29901   0.00000  Uiso   1.00
C49    C     0.80955   0.56149   0.34096   0.00000  Uiso   1.00
C50    C     0.88321   0.60091   0.32979   0.00000  Uiso   1.00
C51    C     0.00872   0.68972   0.33246   0.00000  Uiso   1.00
C52    C     0.74145   0.34792   0.33891   0.00000  Uiso   1.00
C53    C     0.77607   0.30849   0.41440   0.00000  Uiso   1.00
C54    C     0.83441   0.23221   0.43680   0.00000  Uiso   1.00
C55    C     0.93161   0.10762   0.50139   0.00000  Uiso   1.00
C56    C     0.55752   0.41681   0.20438   0.00000  Uiso   1.00
C57    C     0.43747   0.43529   0.16675   0.00000  Uiso   1.00
C58    C     0.34094   0.41699   0.07588   0.00000  Uiso   1.00
C59    C     0.15256   0.39936   0.93158   0.00000  Uiso   1.00
C60    C     0.71862   0.36627   0.20789   0.00000  Uiso   1.00
C61    C     0.78245   0.44985   0.24771   0.00000  Uiso   1.00
C62    C     0.85604   0.48918   0.23647   0.00000  Uiso   1.00
C63    C     0.90607   0.56535   0.27839   0.00000  Uiso   1.00
C64    C     0.76428   0.31242   0.28762   0.00000  Uiso   1.00
C65    C     0.82256   0.23618   0.30991   0.00000  Uiso   1.00
C66    C     0.85727   0.19664   0.38541   0.00000  Uiso   1.00
C67    C     0.58034   0.38131   0.15307   0.00000  Uiso   1.00
C68    C     0.48397   0.36298   0.06226   0.00000  Uiso   1.00
C69    C     0.36381   0.38142   0.02449   0.00000  Uiso   1.00
H70    H     0.65883   0.45926   0.34228   0.00000  Uiso   1.00
H71    H     0.79188   0.58894   0.38066   0.00000  Uiso   1.00
H72    H     0.75839   0.33598   0.45408   0.00000  Uiso   1.00
H73    H     0.41985   0.46276   0.20646   0.00000  Uiso   1.00
H74    H     0.94949   0.71704   0.40062   0.00000  Uiso   1.00
H75    H     0.87884   0.18364   0.55541   0.00000  Uiso   1.00
H76    H     0.16496   0.45098   0.03327   0.00000  Uiso   1.00
H77    H     0.73639   0.33862   0.16795   0.00000  Uiso   1.00
H78    H     0.87369   0.46169   0.19677   0.00000  Uiso   1.00
H79    H     0.84020   0.20872   0.27019   0.00000  Uiso   1.00
H80    H     0.50166   0.33550   0.02258   0.00000  Uiso   1.00
H81    H     0.01590   0.61375   0.25137   0.00000  Uiso   1.00
H82    H     0.94524   0.08035   0.40616   0.00000  Uiso   1.00
H83    H     0.23136   0.34769   0.88402   0.00000  Uiso   1.00
O84    O     0.07165   0.74851   0.34812   0.00000  Uiso   1.00
O85    O     0.97893   0.04870   0.55119   0.00000  Uiso   1.00
O86    O     0.04234   0.39946   0.86615   0.00000  Uiso   1.00
N87    N     0.94626   0.67585   0.36152   0.00000  Uiso   1.00
N88    N     0.88022   0.17716   0.50625   0.00000  Uiso   1.00
N89    N     0.21280   0.42708   0.01810   0.00000  Uiso   1.00
N90    N     0.98199   0.62027   0.28121   0.00000  Uiso   1.00
N91    N     0.91595   0.12158   0.42594   0.00000  Uiso   1.00
N92    N     0.24853   0.37150   0.93779   0.00000  Uiso   1.00
C93    C     0.67660   0.06837   0.80234   0.00000  Uiso   1.00
C94    C     0.75963   0.01464   0.79901   0.00000  Uiso   1.00
C95    C     0.80955   0.93851   0.84096   0.00000  Uiso   1.00
C96    C     0.88321   0.89909   0.82979   0.00000  Uiso   1.00
C97    C     0.00872   0.81028   0.83246   0.00000  Uiso   1.00
C98    C     0.74145   0.15208   0.83891   0.00000  Uiso   1.00
C99    C     0.77607   0.19151   0.91440   0.00000  Uiso   1.00
C100   C     0.83441   0.26779   0.93680   0.00000  Uiso   1.00
C101   C     0.93161   0.39238   0.00139   0.00000  Uiso   1.00
C102   C     0.55752   0.08319   0.70438   0.00000  Uiso   1.00
C103   C     0.43747   0.06471   0.66675   0.00000  Uiso   1.00
C104   C     0.34094   0.08301   0.57588   0.00000  Uiso   1.00
C105   C     0.15256   0.10064   0.43158   0.00000  Uiso   1.00
C106   C     0.71862   0.13373   0.70789   0.00000  Uiso   1.00
C107   C     0.78245   0.05015   0.74771   0.00000  Uiso   1.00
C108   C     0.85604   0.01082   0.73647   0.00000  Uiso   1.00
C109   C     0.90607   0.93465   0.77839   0.00000  Uiso   1.00
C110   C     0.76428   0.18758   0.78762   0.00000  Uiso   1.00
C111   C     0.82256   0.26382   0.80991   0.00000  Uiso   1.00
C112   C     0.85727   0.30336   0.88541   0.00000  Uiso   1.00
C113   C     0.58034   0.11869   0.65307   0.00000  Uiso   1.00
C114   C     0.48397   0.13702   0.56226   0.00000  Uiso   1.00
C115   C     0.36381   0.11858   0.52449   0.00000  Uiso   1.00
H116   H     0.65883   0.04074   0.84228   0.00000  Uiso   1.00
H117   H     0.79188   0.91106   0.88066   0.00000  Uiso   1.00
H118   H     0.75839   0.16402   0.95408   0.00000  Uiso   1.00
H119   H     0.41985   0.03724   0.70646   0.00000  Uiso   1.00
H120   H     0.94949   0.78296   0.90062   0.00000  Uiso   1.00
H121   H     0.87884   0.31636   0.05541   0.00000  Uiso   1.00
H122   H     0.16496   0.04902   0.53327   0.00000  Uiso   1.00
H123   H     0.73639   0.16138   0.66795   0.00000  Uiso   1.00
H124   H     0.87369   0.03831   0.69677   0.00000  Uiso   1.00
H125   H     0.84020   0.29128   0.77019   0.00000  Uiso   1.00
H126   H     0.50166   0.16450   0.52258   0.00000  Uiso   1.00
H127   H     0.01590   0.88625   0.75137   0.00000  Uiso   1.00
H128   H     0.94524   0.41965   0.90616   0.00000  Uiso   1.00
H129   H     0.23136   0.15231   0.38402   0.00000  Uiso   1.00
O130   O     0.07165   0.75149   0.84812   0.00000  Uiso   1.00
O131   O     0.97893   0.45130   0.05119   0.00000  Uiso   1.00
O132   O     0.04234   0.10054   0.36615   0.00000  Uiso   1.00
N133   N     0.94626   0.82415   0.86152   0.00000  Uiso   1.00
N134   N     0.88022   0.32284   0.00625   0.00000  Uiso   1.00
N135   N     0.21280   0.07292   0.51810   0.00000  Uiso   1.00
N136   N     0.98199   0.87973   0.78121   0.00000  Uiso   1.00
N137   N     0.91595   0.37842   0.92594   0.00000  Uiso   1.00
N138   N     0.24853   0.12850   0.43779   0.00000  Uiso   1.00
C139   C     0.32340   0.56837   0.69766   0.00000  Uiso   1.00
C140   C     0.24037   0.51464   0.70099   0.00000  Uiso   1.00
C141   C     0.19045   0.43851   0.65904   0.00000  Uiso   1.00
C142   C     0.11679   0.39909   0.67021   0.00000  Uiso   1.00
C143   C     0.99128   0.31028   0.66754   0.00000  Uiso   1.00
C144   C     0.25855   0.65208   0.66109   0.00000  Uiso   1.00
C145   C     0.22393   0.69151   0.58560   0.00000  Uiso   1.00
C146   C     0.16559   0.76779   0.56320   0.00000  Uiso   1.00
C147   C     0.06839   0.89238   0.49861   0.00000  Uiso   1.00
C148   C     0.44248   0.58319   0.79562   0.00000  Uiso   1.00
C149   C     0.56253   0.56471   0.83325   0.00000  Uiso   1.00
C150   C     0.65906   0.58301   0.92412   0.00000  Uiso   1.00
C151   C     0.84744   0.60064   0.06842   0.00000  Uiso   1.00
C152   C     0.28138   0.63373   0.79211   0.00000  Uiso   1.00
C153   C     0.21755   0.55015   0.75229   0.00000  Uiso   1.00
C154   C     0.14396   0.51082   0.76353   0.00000  Uiso   1.00
C155   C     0.09393   0.43465   0.72161   0.00000  Uiso   1.00
C156   C     0.23572   0.68758   0.71238   0.00000  Uiso   1.00
C157   C     0.17744   0.76382   0.69009   0.00000  Uiso   1.00
C158   C     0.14273   0.80336   0.61459   0.00000  Uiso   1.00
C159   C     0.41966   0.61869   0.84693   0.00000  Uiso   1.00
C160   C     0.51603   0.63702   0.93774   0.00000  Uiso   1.00
C161   C     0.63619   0.61858   0.97551   0.00000  Uiso   1.00
H162   H     0.34117   0.54074   0.65772   0.00000  Uiso   1.00
H163   H     0.20812   0.41106   0.61934   0.00000  Uiso   1.00
H164   H     0.24161   0.66402   0.54592   0.00000  Uiso   1.00
H165   H     0.58015   0.53724   0.79354   0.00000  Uiso   1.00
H166   H     0.05051   0.28296   0.59938   0.00000  Uiso   1.00
H167   H     0.12116   0.81636   0.44459   0.00000  Uiso   1.00
H168   H     0.83504   0.54902   0.96673   0.00000  Uiso   1.00
H169   H     0.26361   0.66138   0.83205   0.00000  Uiso   1.00
H170   H     0.12631   0.53831   0.80323   0.00000  Uiso   1.00
H171   H     0.15980   0.79128   0.72981   0.00000  Uiso   1.00
H172   H     0.49834   0.66450   0.97742   0.00000  Uiso   1.00
H173   H     0.98410   0.38625   0.74863   0.00000  Uiso   1.00
H174   H     0.05476   0.91965   0.59384   0.00000  Uiso   1.00
H175   H     0.76864   0.65231   0.11598   0.00000  Uiso   1.00
O176   O     0.92835   0.25149   0.65188   0.00000  Uiso   1.00
O177   O     0.02107   0.95130   0.44881   0.00000  Uiso   1.00
O178   O     0.95766   0.60054   0.13385   0.00000  Uiso   1.00
N179   N     0.05374   0.32415   0.63848   0.00000  Uiso   1.00
N180   N     0.11978   0.82284   0.49375   0.00000  Uiso   1.00
N181   N     0.78720   0.57292   0.98190   0.00000  Uiso   1.00
N182   N     0.01801   0.37973   0.71879   0.00000  Uiso   1.00
N183   N     0.08405   0.87842   0.57406   0.00000  Uiso   1.00
N184   N     0.75147   0.62850   0.06221   0.00000  Uiso   1.00
