data_job_04914
_audit_creation_date              2018-12-19
_audit_creation_method            'Materials Studio'
_symmetry_space_group_name_H-M    'P1'
_symmetry_Int_Tables_number       1
_symmetry_cell_setting            triclinic
loop_
_symmetry_equiv_pos_as_xyz
  x,y,z
_cell_length_a                    34.5004
_cell_length_b                    12.5883
_cell_length_c                    28.1267
_cell_angle_alpha                 90.0000
_cell_angle_beta                  153.4409
_cell_angle_gamma                 90.0000
loop_
_atom_site_label
_atom_site_type_symbol
_atom_site_fract_x
_atom_site_fract_y
_atom_site_fract_z
_atom_site_U_iso_or_equiv
_atom_site_adp_type
_atom_site_occupancy
C1     C     0.90386   0.50862   0.72508   0.00000  Uiso   1.00
C2     C     0.95751   0.44991   0.82114   0.00000  Uiso   1.00
C3     C     0.04261   0.41635   0.90898   0.00000  Uiso   1.00
C4     C     0.08027   0.36395   0.98851   0.00000  Uiso   1.00
C5     C     0.17054   0.27550   0.13887   0.00000  Uiso   1.00
C6     C     0.82251   0.44192   0.62821   0.00000  Uiso   1.00
C7     C     0.79411   0.40166   0.55383   0.00000  Uiso   1.00
C8     C     0.71813   0.34254   0.47095   0.00000  Uiso   1.00
C9     C     0.59878   0.24175   0.32175   0.00000  Uiso   1.00
C10    C     0.87368   0.61113   0.71564   0.00000  Uiso   1.00
C11    C     0.88828   0.71315   0.71475   0.00000  Uiso   1.00
C12    C     0.85536   0.79650   0.70545   0.00000  Uiso   1.00
C13    C     0.81546   0.95845   0.69200   0.00000  Uiso   1.00
C14    C     0.81942   0.47524   0.71013   0.00000  Uiso   1.00
C15    C     0.91164   0.43178   0.81301   0.00000  Uiso   1.00
C16    C     0.94919   0.37942   0.89243   0.00000  Uiso   1.00
C17    C     0.03433   0.34578   0.98038   0.00000  Uiso   1.00
C18    C     0.77665   0.42379   0.62009   0.00000  Uiso   1.00
C19    C     0.70069   0.36472   0.53729   0.00000  Uiso   1.00
C20    C     0.67218   0.32437   0.46281   0.00000  Uiso   1.00
C21    C     0.82782   0.59300   0.70752   0.00000  Uiso   1.00
C22    C     0.79486   0.67621   0.69821   0.00000  Uiso   1.00
C23    C     0.80941   0.77833   0.69731   0.00000  Uiso   1.00
H24    H     0.93956   0.52273   0.73140   0.00000  Uiso   1.00
H25    H     0.07807   0.43039   0.91523   0.00000  Uiso   1.00
H26    H     0.82961   0.41571   0.56014   0.00000  Uiso   1.00
H27    H     0.92377   0.72715   0.72104   0.00000  Uiso   1.00
H28    H     0.21141   0.31998   0.11544   0.00000  Uiso   1.00
H29    H     0.68750   0.28906   0.36669   0.00000  Uiso   1.00
H30    H     0.88605   0.94579   0.70597   0.00000  Uiso   1.00
H31    H     0.78371   0.46112   0.70380   0.00000  Uiso   1.00
H32    H     0.91368   0.36540   0.88612   0.00000  Uiso   1.00
H33    H     0.66521   0.35071   0.53102   0.00000  Uiso   1.00
H34    H     0.75937   0.66215   0.69193   0.00000  Uiso   1.00
H35    H     0.07798   0.26722   0.09181   0.00000  Uiso   1.00
H36    H     0.55406   0.23630   0.34305   0.00000  Uiso   1.00
H37    H     0.75262   0.89304   0.68234   0.00000  Uiso   1.00
O38    O     0.23299   0.23171   0.22404   0.00000  Uiso   1.00
O39    O     0.54563   0.19116   0.24170   0.00000  Uiso   1.00
O40    O     0.80613   0.05278   0.68684   0.00000  Uiso   1.00
N41    N     0.16217   0.32072   0.08487   0.00000  Uiso   1.00
N42    N     0.67235   0.29179   0.38484   0.00000  Uiso   1.00
N43    N     0.85797   0.90579   0.70201   0.00000  Uiso   1.00
N44    N     0.09038   0.29233   0.07215   0.00000  Uiso   1.00
N45    N     0.60056   0.26341   0.37212   0.00000  Uiso   1.00
N46    N     0.78617   0.87740   0.68930   0.00000  Uiso   1.00
C47    C     0.40106   0.08749   0.71936   0.00000  Uiso   1.00
C48    C     0.45602   0.02875   0.81626   0.00000  Uiso   1.00
C49    C     0.54122   0.99625   0.90350   0.00000  Uiso   1.00
C50    C     0.58017   0.94361   0.98399   0.00000  Uiso   1.00
C51    C     0.67229   0.85531   0.13543   0.00000  Uiso   1.00
C52    C     0.32004   0.02001   0.62319   0.00000  Uiso   1.00
C53    C     0.29092   0.98018   0.54809   0.00000  Uiso   1.00
C54    C     0.21540   0.92020   0.46604   0.00000  Uiso   1.00
C55    C     0.09639   0.81839   0.31769   0.00000  Uiso   1.00
C56    C     0.37068   0.18925   0.71027   0.00000  Uiso   1.00
C57    C     0.38412   0.29172   0.70836   0.00000  Uiso   1.00
C58    C     0.35122   0.37423   0.69961   0.00000  Uiso   1.00
C59    C     0.31084   0.53519   0.68647   0.00000  Uiso   1.00
C60    C     0.31871   0.05182   0.70716   0.00000  Uiso   1.00
C61    C     0.41128   0.00938   0.80963   0.00000  Uiso   1.00
C62    C     0.45011   0.95678   0.89001   0.00000  Uiso   1.00
C63    C     0.53536   0.92421   0.97736   0.00000  Uiso   1.00
C64    C     0.27531   0.00064   0.61656   0.00000  Uiso   1.00
C65    C     0.19981   0.94071   0.53460   0.00000  Uiso   1.00
C66    C     0.17059   0.90079   0.45940   0.00000  Uiso   1.00
C67    C     0.32596   0.16988   0.70365   0.00000  Uiso   1.00
C68    C     0.29302   0.25225   0.69488   0.00000  Uiso   1.00
C69    C     0.30641   0.35482   0.69297   0.00000  Uiso   1.00
H70    H     0.43588   0.10258   0.72451   0.00000  Uiso   1.00
H71    H     0.57581   0.01125   0.90859   0.00000  Uiso   1.00
H72    H     0.32555   0.99520   0.55323   0.00000  Uiso   1.00
H73    H     0.41874   0.30668   0.71349   0.00000  Uiso   1.00
H74    H     0.71122   0.90142   0.10974   0.00000  Uiso   1.00
H75    H     0.18351   0.86760   0.36042   0.00000  Uiso   1.00
H76    H     0.38002   0.52443   0.69836   0.00000  Uiso   1.00
H77    H     0.28388   0.03673   0.70200   0.00000  Uiso   1.00
H78    H     0.41548   0.94180   0.88486   0.00000  Uiso   1.00
H79    H     0.16522   0.92574   0.52949   0.00000  Uiso   1.00
H80    H     0.25841   0.23722   0.68976   0.00000  Uiso   1.00
H81    H     0.58109   0.84504   0.09048   0.00000  Uiso   1.00
H82    H     0.05337   0.81122   0.34115   0.00000  Uiso   1.00
H83    H     0.24988   0.46805   0.67909   0.00000  Uiso   1.00
O84    O     0.73546   0.81194   0.22079   0.00000  Uiso   1.00
O85    O     0.04311   0.76758   0.23770   0.00000  Uiso   1.00
O86    O     0.30093   0.62932   0.68107   0.00000  Uiso   1.00
N87    N     0.66254   0.90120   0.08013   0.00000  Uiso   1.00
N88    N     0.16916   0.86956   0.37956   0.00000  Uiso   1.00
N89    N     0.35287   0.48364   0.69548   0.00000  Uiso   1.00
N90    N     0.59252   0.87087   0.06976   0.00000  Uiso   1.00
N91    N     0.09914   0.83923   0.36920   0.00000  Uiso   1.00
N92    N     0.28284   0.45331   0.68511   0.00000  Uiso   1.00
C93    C     0.09614   0.50862   0.77492   0.00000  Uiso   1.00
C94    C     0.04249   0.44991   0.67886   0.00000  Uiso   1.00
C95    C     0.95739   0.41635   0.59102   0.00000  Uiso   1.00
C96    C     0.91973   0.36395   0.51149   0.00000  Uiso   1.00
C97    C     0.82946   0.27550   0.36113   0.00000  Uiso   1.00
C98    C     0.17749   0.44192   0.87179   0.00000  Uiso   1.00
C99    C     0.20589   0.40166   0.94617   0.00000  Uiso   1.00
C100   C     0.28187   0.34254   0.02905   0.00000  Uiso   1.00
C101   C     0.40122   0.24175   0.17825   0.00000  Uiso   1.00
C102   C     0.12632   0.61113   0.78436   0.00000  Uiso   1.00
C103   C     0.11172   0.71315   0.78525   0.00000  Uiso   1.00
C104   C     0.14464   0.79650   0.79455   0.00000  Uiso   1.00
C105   C     0.18454   0.95845   0.80800   0.00000  Uiso   1.00
C106   C     0.18058   0.47524   0.78987   0.00000  Uiso   1.00
C107   C     0.08836   0.43178   0.68699   0.00000  Uiso   1.00
C108   C     0.05081   0.37942   0.60757   0.00000  Uiso   1.00
C109   C     0.96567   0.34578   0.51962   0.00000  Uiso   1.00
C110   C     0.22335   0.42379   0.87991   0.00000  Uiso   1.00
C111   C     0.29931   0.36472   0.96271   0.00000  Uiso   1.00
C112   C     0.32782   0.32437   0.03719   0.00000  Uiso   1.00
C113   C     0.17218   0.59300   0.79248   0.00000  Uiso   1.00
C114   C     0.20514   0.67621   0.80179   0.00000  Uiso   1.00
C115   C     0.19059   0.77833   0.80269   0.00000  Uiso   1.00
H116   H     0.06044   0.52273   0.76860   0.00000  Uiso   1.00
H117   H     0.92193   0.43039   0.58477   0.00000  Uiso   1.00
H118   H     0.17039   0.41571   0.93986   0.00000  Uiso   1.00
H119   H     0.07623   0.72715   0.77896   0.00000  Uiso   1.00
H120   H     0.78859   0.31998   0.38456   0.00000  Uiso   1.00
H121   H     0.31250   0.28906   0.13331   0.00000  Uiso   1.00
H122   H     0.11395   0.94579   0.79403   0.00000  Uiso   1.00
H123   H     0.21629   0.46112   0.79620   0.00000  Uiso   1.00
H124   H     0.08632   0.36540   0.61388   0.00000  Uiso   1.00
H125   H     0.33479   0.35071   0.96898   0.00000  Uiso   1.00
H126   H     0.24063   0.66215   0.80807   0.00000  Uiso   1.00
H127   H     0.92202   0.26722   0.40819   0.00000  Uiso   1.00
H128   H     0.44594   0.23630   0.15695   0.00000  Uiso   1.00
H129   H     0.24738   0.89304   0.81766   0.00000  Uiso   1.00
O130   O     0.76701   0.23171   0.27596   0.00000  Uiso   1.00
O131   O     0.45437   0.19116   0.25830   0.00000  Uiso   1.00
O132   O     0.19387   0.05278   0.81316   0.00000  Uiso   1.00
N133   N     0.83783   0.32072   0.41513   0.00000  Uiso   1.00
N134   N     0.32765   0.29179   0.11516   0.00000  Uiso   1.00
N135   N     0.14203   0.90579   0.79799   0.00000  Uiso   1.00
N136   N     0.90962   0.29233   0.42785   0.00000  Uiso   1.00
N137   N     0.39944   0.26341   0.12788   0.00000  Uiso   1.00
N138   N     0.21383   0.87740   0.81070   0.00000  Uiso   1.00
C139   C     0.59894   0.08749   0.78064   0.00000  Uiso   1.00
C140   C     0.54398   0.02875   0.68374   0.00000  Uiso   1.00
C141   C     0.45878   0.99625   0.59650   0.00000  Uiso   1.00
C142   C     0.41983   0.94361   0.51601   0.00000  Uiso   1.00
C143   C     0.32771   0.85531   0.36457   0.00000  Uiso   1.00
C144   C     0.67996   0.02001   0.87681   0.00000  Uiso   1.00
C145   C     0.70908   0.98018   0.95191   0.00000  Uiso   1.00
C146   C     0.78460   0.92020   0.03396   0.00000  Uiso   1.00
C147   C     0.90361   0.81839   0.18231   0.00000  Uiso   1.00
C148   C     0.62932   0.18925   0.78973   0.00000  Uiso   1.00
C149   C     0.61588   0.29172   0.79164   0.00000  Uiso   1.00
C150   C     0.64878   0.37423   0.80039   0.00000  Uiso   1.00
C151   C     0.68916   0.53519   0.81353   0.00000  Uiso   1.00
C152   C     0.68129   0.05182   0.79284   0.00000  Uiso   1.00
C153   C     0.58872   0.00938   0.69037   0.00000  Uiso   1.00
C154   C     0.54989   0.95678   0.60999   0.00000  Uiso   1.00
C155   C     0.46464   0.92421   0.52264   0.00000  Uiso   1.00
C156   C     0.72469   0.00064   0.88344   0.00000  Uiso   1.00
C157   C     0.80019   0.94071   0.96540   0.00000  Uiso   1.00
C158   C     0.82941   0.90079   0.04060   0.00000  Uiso   1.00
C159   C     0.67404   0.16988   0.79635   0.00000  Uiso   1.00
C160   C     0.70698   0.25225   0.80512   0.00000  Uiso   1.00
C161   C     0.69359   0.35482   0.80703   0.00000  Uiso   1.00
H162   H     0.56412   0.10258   0.77549   0.00000  Uiso   1.00
H163   H     0.42419   0.01125   0.59141   0.00000  Uiso   1.00
H164   H     0.67445   0.99520   0.94677   0.00000  Uiso   1.00
H165   H     0.58126   0.30668   0.78651   0.00000  Uiso   1.00
H166   H     0.28878   0.90142   0.39026   0.00000  Uiso   1.00
H167   H     0.81649   0.86760   0.13958   0.00000  Uiso   1.00
H168   H     0.61998   0.52443   0.80164   0.00000  Uiso   1.00
H169   H     0.71612   0.03673   0.79800   0.00000  Uiso   1.00
H170   H     0.58452   0.94180   0.61514   0.00000  Uiso   1.00
H171   H     0.83478   0.92574   0.97051   0.00000  Uiso   1.00
H172   H     0.74159   0.23722   0.81024   0.00000  Uiso   1.00
H173   H     0.41891   0.84504   0.40952   0.00000  Uiso   1.00
H174   H     0.94663   0.81122   0.15885   0.00000  Uiso   1.00
H175   H     0.75012   0.46805   0.82091   0.00000  Uiso   1.00
O176   O     0.26454   0.81194   0.27921   0.00000  Uiso   1.00
O177   O     0.95689   0.76758   0.26230   0.00000  Uiso   1.00
O178   O     0.69907   0.62932   0.81893   0.00000  Uiso   1.00
N179   N     0.33746   0.90120   0.41987   0.00000  Uiso   1.00
N180   N     0.83084   0.86956   0.12044   0.00000  Uiso   1.00
N181   N     0.64713   0.48364   0.80452   0.00000  Uiso   1.00
N182   N     0.40748   0.87087   0.43024   0.00000  Uiso   1.00
N183   N     0.90086   0.83923   0.13080   0.00000  Uiso   1.00
N184   N     0.71716   0.45331   0.81489   0.00000  Uiso   1.00
C185   C     0.09614   0.49138   0.27492   0.00000  Uiso   1.00
C186   C     0.04249   0.55009   0.17886   0.00000  Uiso   1.00
C187   C     0.95739   0.58365   0.09102   0.00000  Uiso   1.00
C188   C     0.91973   0.63605   0.01149   0.00000  Uiso   1.00
C189   C     0.82946   0.72450   0.86113   0.00000  Uiso   1.00
C190   C     0.17749   0.55808   0.37179   0.00000  Uiso   1.00
C191   C     0.20589   0.59834   0.44617   0.00000  Uiso   1.00
C192   C     0.28187   0.65746   0.52905   0.00000  Uiso   1.00
C193   C     0.40122   0.75825   0.67825   0.00000  Uiso   1.00
C194   C     0.12632   0.38887   0.28436   0.00000  Uiso   1.00
C195   C     0.11172   0.28685   0.28525   0.00000  Uiso   1.00
C196   C     0.14464   0.20350   0.29455   0.00000  Uiso   1.00
C197   C     0.18454   0.04155   0.30800   0.00000  Uiso   1.00
C198   C     0.18058   0.52476   0.28987   0.00000  Uiso   1.00
C199   C     0.08836   0.56822   0.18699   0.00000  Uiso   1.00
C200   C     0.05081   0.62058   0.10757   0.00000  Uiso   1.00
C201   C     0.96567   0.65422   0.01962   0.00000  Uiso   1.00
C202   C     0.22335   0.57621   0.37991   0.00000  Uiso   1.00
C203   C     0.29931   0.63528   0.46271   0.00000  Uiso   1.00
C204   C     0.32782   0.67563   0.53719   0.00000  Uiso   1.00
C205   C     0.17218   0.40700   0.29248   0.00000  Uiso   1.00
C206   C     0.20514   0.32379   0.30179   0.00000  Uiso   1.00
C207   C     0.19059   0.22167   0.30269   0.00000  Uiso   1.00
H208   H     0.06044   0.47727   0.26860   0.00000  Uiso   1.00
H209   H     0.92193   0.56961   0.08477   0.00000  Uiso   1.00
H210   H     0.17039   0.58429   0.43986   0.00000  Uiso   1.00
H211   H     0.07623   0.27285   0.27896   0.00000  Uiso   1.00
H212   H     0.78859   0.68002   0.88456   0.00000  Uiso   1.00
H213   H     0.31250   0.71094   0.63331   0.00000  Uiso   1.00
H214   H     0.11395   0.05421   0.29403   0.00000  Uiso   1.00
H215   H     0.21629   0.53888   0.29620   0.00000  Uiso   1.00
H216   H     0.08632   0.63460   0.11388   0.00000  Uiso   1.00
H217   H     0.33479   0.64929   0.46898   0.00000  Uiso   1.00
H218   H     0.24063   0.33785   0.30807   0.00000  Uiso   1.00
H219   H     0.92202   0.73278   0.90819   0.00000  Uiso   1.00
H220   H     0.44594   0.76370   0.65695   0.00000  Uiso   1.00
H221   H     0.24738   0.10696   0.31766   0.00000  Uiso   1.00
O222   O     0.76701   0.76829   0.77596   0.00000  Uiso   1.00
O223   O     0.45437   0.80884   0.75830   0.00000  Uiso   1.00
O224   O     0.19387   0.94722   0.31316   0.00000  Uiso   1.00
N225   N     0.83783   0.67928   0.91513   0.00000  Uiso   1.00
N226   N     0.32765   0.70821   0.61516   0.00000  Uiso   1.00
N227   N     0.14203   0.09421   0.29799   0.00000  Uiso   1.00
N228   N     0.90962   0.70767   0.92785   0.00000  Uiso   1.00
N229   N     0.39944   0.73659   0.62788   0.00000  Uiso   1.00
N230   N     0.21383   0.12260   0.31070   0.00000  Uiso   1.00
C231   C     0.59894   0.91251   0.28064   0.00000  Uiso   1.00
C232   C     0.54398   0.97125   0.18374   0.00000  Uiso   1.00
C233   C     0.45878   0.00375   0.09650   0.00000  Uiso   1.00
C234   C     0.41983   0.05639   0.01601   0.00000  Uiso   1.00
C235   C     0.32771   0.14469   0.86457   0.00000  Uiso   1.00
C236   C     0.67996   0.97999   0.37681   0.00000  Uiso   1.00
C237   C     0.70908   0.01982   0.45191   0.00000  Uiso   1.00
C238   C     0.78460   0.07980   0.53396   0.00000  Uiso   1.00
C239   C     0.90361   0.18161   0.68231   0.00000  Uiso   1.00
C240   C     0.62932   0.81075   0.28973   0.00000  Uiso   1.00
C241   C     0.61588   0.70828   0.29164   0.00000  Uiso   1.00
C242   C     0.64878   0.62577   0.30039   0.00000  Uiso   1.00
C243   C     0.68916   0.46481   0.31353   0.00000  Uiso   1.00
C244   C     0.68129   0.94818   0.29284   0.00000  Uiso   1.00
C245   C     0.58872   0.99062   0.19037   0.00000  Uiso   1.00
C246   C     0.54989   0.04322   0.10999   0.00000  Uiso   1.00
C247   C     0.46464   0.07579   0.02264   0.00000  Uiso   1.00
C248   C     0.72469   0.99936   0.38344   0.00000  Uiso   1.00
C249   C     0.80019   0.05929   0.46540   0.00000  Uiso   1.00
C250   C     0.82941   0.09921   0.54060   0.00000  Uiso   1.00
C251   C     0.67404   0.83012   0.29635   0.00000  Uiso   1.00
C252   C     0.70698   0.74775   0.30512   0.00000  Uiso   1.00
C253   C     0.69359   0.64518   0.30703   0.00000  Uiso   1.00
H254   H     0.56412   0.89742   0.27549   0.00000  Uiso   1.00
H255   H     0.42419   0.98875   0.09141   0.00000  Uiso   1.00
H256   H     0.67445   0.00480   0.44677   0.00000  Uiso   1.00
H257   H     0.58126   0.69332   0.28651   0.00000  Uiso   1.00
H258   H     0.28878   0.09858   0.89026   0.00000  Uiso   1.00
H259   H     0.81649   0.13240   0.63958   0.00000  Uiso   1.00
H260   H     0.61998   0.47557   0.30164   0.00000  Uiso   1.00
H261   H     0.71612   0.96327   0.29800   0.00000  Uiso   1.00
H262   H     0.58452   0.05820   0.11514   0.00000  Uiso   1.00
H263   H     0.83478   0.07426   0.47051   0.00000  Uiso   1.00
H264   H     0.74159   0.76278   0.31024   0.00000  Uiso   1.00
H265   H     0.41891   0.15496   0.90952   0.00000  Uiso   1.00
H266   H     0.94663   0.18878   0.65885   0.00000  Uiso   1.00
H267   H     0.75012   0.53195   0.32091   0.00000  Uiso   1.00
O268   O     0.26454   0.18806   0.77921   0.00000  Uiso   1.00
O269   O     0.95689   0.23242   0.76230   0.00000  Uiso   1.00
O270   O     0.69907   0.37068   0.31893   0.00000  Uiso   1.00
N271   N     0.33746   0.09880   0.91987   0.00000  Uiso   1.00
N272   N     0.83084   0.13044   0.62044   0.00000  Uiso   1.00
N273   N     0.64713   0.51636   0.30452   0.00000  Uiso   1.00
N274   N     0.40748   0.12913   0.93024   0.00000  Uiso   1.00
N275   N     0.90086   0.16077   0.63080   0.00000  Uiso   1.00
N276   N     0.71716   0.54669   0.31489   0.00000  Uiso   1.00
C277   C     0.90386   0.49138   0.22508   0.00000  Uiso   1.00
C278   C     0.95751   0.55009   0.32114   0.00000  Uiso   1.00
C279   C     0.04261   0.58365   0.40898   0.00000  Uiso   1.00
C280   C     0.08027   0.63605   0.48851   0.00000  Uiso   1.00
C281   C     0.17054   0.72450   0.63887   0.00000  Uiso   1.00
C282   C     0.82251   0.55808   0.12821   0.00000  Uiso   1.00
C283   C     0.79411   0.59834   0.05383   0.00000  Uiso   1.00
C284   C     0.71813   0.65746   0.97095   0.00000  Uiso   1.00
C285   C     0.59878   0.75825   0.82175   0.00000  Uiso   1.00
C286   C     0.87368   0.38887   0.21564   0.00000  Uiso   1.00
C287   C     0.88828   0.28685   0.21475   0.00000  Uiso   1.00
C288   C     0.85536   0.20350   0.20545   0.00000  Uiso   1.00
C289   C     0.81546   0.04155   0.19200   0.00000  Uiso   1.00
C290   C     0.81942   0.52476   0.21013   0.00000  Uiso   1.00
C291   C     0.91164   0.56822   0.31301   0.00000  Uiso   1.00
C292   C     0.94919   0.62058   0.39243   0.00000  Uiso   1.00
C293   C     0.03433   0.65422   0.48038   0.00000  Uiso   1.00
C294   C     0.77665   0.57621   0.12009   0.00000  Uiso   1.00
C295   C     0.70069   0.63528   0.03729   0.00000  Uiso   1.00
C296   C     0.67218   0.67563   0.96281   0.00000  Uiso   1.00
C297   C     0.82782   0.40700   0.20752   0.00000  Uiso   1.00
C298   C     0.79486   0.32379   0.19821   0.00000  Uiso   1.00
C299   C     0.80941   0.22167   0.19731   0.00000  Uiso   1.00
H300   H     0.93956   0.47727   0.23140   0.00000  Uiso   1.00
H301   H     0.07807   0.56961   0.41523   0.00000  Uiso   1.00
H302   H     0.82961   0.58429   0.06014   0.00000  Uiso   1.00
H303   H     0.92377   0.27285   0.22104   0.00000  Uiso   1.00
H304   H     0.21141   0.68002   0.61544   0.00000  Uiso   1.00
H305   H     0.68750   0.71094   0.86669   0.00000  Uiso   1.00
H306   H     0.88605   0.05421   0.20597   0.00000  Uiso   1.00
H307   H     0.78371   0.53888   0.20380   0.00000  Uiso   1.00
H308   H     0.91368   0.63460   0.38612   0.00000  Uiso   1.00
H309   H     0.66521   0.64929   0.03102   0.00000  Uiso   1.00
H310   H     0.75937   0.33785   0.19193   0.00000  Uiso   1.00
H311   H     0.07798   0.73278   0.59181   0.00000  Uiso   1.00
H312   H     0.55406   0.76370   0.84305   0.00000  Uiso   1.00
H313   H     0.75262   0.10696   0.18234   0.00000  Uiso   1.00
O314   O     0.23299   0.76829   0.72404   0.00000  Uiso   1.00
O315   O     0.54563   0.80884   0.74170   0.00000  Uiso   1.00
O316   O     0.80613   0.94722   0.18684   0.00000  Uiso   1.00
N317   N     0.16217   0.67928   0.58487   0.00000  Uiso   1.00
N318   N     0.67235   0.70821   0.88484   0.00000  Uiso   1.00
N319   N     0.85797   0.09421   0.20201   0.00000  Uiso   1.00
N320   N     0.09038   0.70767   0.57215   0.00000  Uiso   1.00
N321   N     0.60056   0.73659   0.87212   0.00000  Uiso   1.00
N322   N     0.78617   0.12260   0.18930   0.00000  Uiso   1.00
C323   C     0.40106   0.91251   0.21936   0.00000  Uiso   1.00
C324   C     0.45602   0.97125   0.31626   0.00000  Uiso   1.00
C325   C     0.54122   0.00375   0.40350   0.00000  Uiso   1.00
C326   C     0.58017   0.05639   0.48399   0.00000  Uiso   1.00
C327   C     0.67229   0.14469   0.63543   0.00000  Uiso   1.00
C328   C     0.32004   0.97999   0.12319   0.00000  Uiso   1.00
C329   C     0.29092   0.01982   0.04809   0.00000  Uiso   1.00
C330   C     0.21540   0.07980   0.96604   0.00000  Uiso   1.00
C331   C     0.09639   0.18161   0.81769   0.00000  Uiso   1.00
C332   C     0.37068   0.81075   0.21027   0.00000  Uiso   1.00
C333   C     0.38412   0.70828   0.20836   0.00000  Uiso   1.00
C334   C     0.35122   0.62577   0.19961   0.00000  Uiso   1.00
C335   C     0.31084   0.46481   0.18647   0.00000  Uiso   1.00
C336   C     0.31871   0.94818   0.20716   0.00000  Uiso   1.00
C337   C     0.41128   0.99062   0.30963   0.00000  Uiso   1.00
C338   C     0.45011   0.04322   0.39001   0.00000  Uiso   1.00
C339   C     0.53536   0.07579   0.47736   0.00000  Uiso   1.00
C340   C     0.27531   0.99936   0.11656   0.00000  Uiso   1.00
C341   C     0.19981   0.05929   0.03460   0.00000  Uiso   1.00
C342   C     0.17059   0.09921   0.95940   0.00000  Uiso   1.00
C343   C     0.32596   0.83012   0.20365   0.00000  Uiso   1.00
C344   C     0.29302   0.74775   0.19488   0.00000  Uiso   1.00
C345   C     0.30641   0.64518   0.19297   0.00000  Uiso   1.00
H346   H     0.43588   0.89742   0.22451   0.00000  Uiso   1.00
H347   H     0.57581   0.98875   0.40859   0.00000  Uiso   1.00
H348   H     0.32555   0.00480   0.05323   0.00000  Uiso   1.00
H349   H     0.41874   0.69332   0.21349   0.00000  Uiso   1.00
H350   H     0.71122   0.09858   0.60974   0.00000  Uiso   1.00
H351   H     0.18351   0.13240   0.86042   0.00000  Uiso   1.00
H352   H     0.38002   0.47557   0.19836   0.00000  Uiso   1.00
H353   H     0.28388   0.96327   0.20200   0.00000  Uiso   1.00
H354   H     0.41548   0.05820   0.38486   0.00000  Uiso   1.00
H355   H     0.16522   0.07426   0.02949   0.00000  Uiso   1.00
H356   H     0.25841   0.76278   0.18976   0.00000  Uiso   1.00
H357   H     0.58109   0.15496   0.59048   0.00000  Uiso   1.00
H358   H     0.05337   0.18878   0.84115   0.00000  Uiso   1.00
H359   H     0.24988   0.53195   0.17909   0.00000  Uiso   1.00
O360   O     0.73546   0.18806   0.72079   0.00000  Uiso   1.00
O361   O     0.04311   0.23242   0.73770   0.00000  Uiso   1.00
O362   O     0.30093   0.37068   0.18107   0.00000  Uiso   1.00
N363   N     0.66254   0.09880   0.58013   0.00000  Uiso   1.00
N364   N     0.16916   0.13044   0.87956   0.00000  Uiso   1.00
N365   N     0.35287   0.51636   0.19548   0.00000  Uiso   1.00
N366   N     0.59252   0.12913   0.56976   0.00000  Uiso   1.00
N367   N     0.09914   0.16077   0.86920   0.00000  Uiso   1.00
N368   N     0.28284   0.54669   0.18511   0.00000  Uiso   1.00
