data_job_05849
_audit_creation_date              2018-12-19
_audit_creation_method            'Materials Studio'
_symmetry_space_group_name_H-M    'P1'
_symmetry_Int_Tables_number       1
_symmetry_cell_setting            triclinic
loop_
_symmetry_equiv_pos_as_xyz
  x,y,z
_cell_length_a                    19.0661
_cell_length_b                    11.3557
_cell_length_c                    27.0747
_cell_angle_alpha                 90.0000
_cell_angle_beta                  155.5339
_cell_angle_gamma                 90.0000
loop_
_atom_site_label
_atom_site_type_symbol
_atom_site_fract_x
_atom_site_fract_y
_atom_site_fract_z
_atom_site_U_iso_or_equiv
_atom_site_adp_type
_atom_site_occupancy
C1     C     0.46719   0.82128   0.08023   0.00000  Uiso   1.00
C2     C     0.59684   0.88755   0.19447   0.00000  Uiso   1.00
C3     C     0.77141   0.88128   0.30103   0.00000  Uiso   1.00
C4     C     0.86827   0.94872   0.39524   0.00000  Uiso   1.00
C5     C     0.08102   0.04086   0.57445   0.00000  Uiso   1.00
C6     C     0.35061   0.91479   0.98364   0.00000  Uiso   1.00
C7     C     0.31812   0.93141   0.91293   0.00000  Uiso   1.00
C8     C     0.20768   0.02176   0.82964   0.00000  Uiso   1.00
C9     C     0.03805   0.15613   0.68147   0.00000  Uiso   1.00
C10    C     0.35928   0.75121   0.04736   0.00000  Uiso   1.00
C11    C     0.33404   0.63028   0.03019   0.00000  Uiso   1.00
C12    C     0.23086   0.58292   0.00052   0.00000  Uiso   1.00
C13    C     0.07469   0.46330   0.95128   0.00000  Uiso   1.00
C14    C     0.32879   0.95218   0.05804   0.00000  Uiso   1.00
C15    C     0.52167   0.95866   0.18242   0.00000  Uiso   1.00
C16    C     0.61829   0.02612   0.27649   0.00000  Uiso   1.00
C17    C     0.79297   0.01994   0.38317   0.00000  Uiso   1.00
C18    C     0.27544   0.98589   0.97159   0.00000  Uiso   1.00
C19    C     0.16501   0.07624   0.88838   0.00000  Uiso   1.00
C20    C     0.13238   0.09300   0.81757   0.00000  Uiso   1.00
C21    C     0.28411   0.82231   0.03531   0.00000  Uiso   1.00
C22    C     0.18093   0.77512   0.00565   0.00000  Uiso   1.00
C23    C     0.15555   0.65415   0.98844   0.00000  Uiso   1.00
H24    H     0.52570   0.76592   0.08960   0.00000  Uiso   1.00
H25    H     0.82953   0.82625   0.31032   0.00000  Uiso   1.00
H26    H     0.37630   0.87636   0.92227   0.00000  Uiso   1.00
H27    H     0.39223   0.57529   0.03952   0.00000  Uiso   1.00
H28    H     0.13323   0.92453   0.54970   0.00000  Uiso   1.00
H29    H     0.17753   0.03016   0.73144   0.00000  Uiso   1.00
H30    H     0.21110   0.39528   0.97868   0.00000  Uiso   1.00
H31    H     0.27027   0.00754   0.04865   0.00000  Uiso   1.00
H32    H     0.56009   0.08113   0.26713   0.00000  Uiso   1.00
H33    H     0.10686   0.13124   0.87908   0.00000  Uiso   1.00
H34    H     0.12278   0.83017   0.99633   0.00000  Uiso   1.00
H35    H     0.91454   0.13140   0.51464   0.00000  Uiso   1.00
H36    H     0.95883   0.23703   0.69638   0.00000  Uiso   1.00
H37    H     0.99241   0.60216   0.94363   0.00000  Uiso   1.00
O38    O     0.21914   0.07205   0.67662   0.00000  Uiso   1.00
O39    O     0.96527   0.21061   0.60308   0.00000  Uiso   1.00
O40    O     0.00933   0.37767   0.92747   0.00000  Uiso   1.00
N41    N     0.04199   0.96310   0.51147   0.00000  Uiso   1.00
N42    N     0.14848   0.06187   0.74646   0.00000  Uiso   1.00
N43    N     0.17984   0.46832   0.97758   0.00000  Uiso   1.00
N44    N     0.92431   0.07442   0.49261   0.00000  Uiso   1.00
N45    N     0.03081   0.17319   0.72760   0.00000  Uiso   1.00
N46    N     0.06216   0.57964   0.95872   0.00000  Uiso   1.00
C47    C     0.96719   0.32128   0.08023   0.00000  Uiso   1.00
C48    C     0.09684   0.38755   0.19447   0.00000  Uiso   1.00
C49    C     0.27141   0.38128   0.30103   0.00000  Uiso   1.00
C50    C     0.36827   0.44872   0.39524   0.00000  Uiso   1.00
C51    C     0.58102   0.54086   0.57445   0.00000  Uiso   1.00
C52    C     0.85061   0.41479   0.98364   0.00000  Uiso   1.00
C53    C     0.81812   0.43141   0.91293   0.00000  Uiso   1.00
C54    C     0.70768   0.52176   0.82964   0.00000  Uiso   1.00
C55    C     0.53805   0.65613   0.68147   0.00000  Uiso   1.00
C56    C     0.85928   0.25121   0.04736   0.00000  Uiso   1.00
C57    C     0.83404   0.13028   0.03019   0.00000  Uiso   1.00
C58    C     0.73086   0.08292   0.00052   0.00000  Uiso   1.00
C59    C     0.57469   0.96330   0.95128   0.00000  Uiso   1.00
C60    C     0.82879   0.45218   0.05804   0.00000  Uiso   1.00
C61    C     0.02167   0.45866   0.18242   0.00000  Uiso   1.00
C62    C     0.11829   0.52612   0.27649   0.00000  Uiso   1.00
C63    C     0.29297   0.51994   0.38317   0.00000  Uiso   1.00
C64    C     0.77544   0.48589   0.97159   0.00000  Uiso   1.00
C65    C     0.66501   0.57624   0.88838   0.00000  Uiso   1.00
C66    C     0.63238   0.59300   0.81757   0.00000  Uiso   1.00
C67    C     0.78411   0.32231   0.03531   0.00000  Uiso   1.00
C68    C     0.68093   0.27512   0.00565   0.00000  Uiso   1.00
C69    C     0.65555   0.15415   0.98844   0.00000  Uiso   1.00
H70    H     0.02570   0.26592   0.08960   0.00000  Uiso   1.00
H71    H     0.32953   0.32625   0.31032   0.00000  Uiso   1.00
H72    H     0.87630   0.37636   0.92227   0.00000  Uiso   1.00
H73    H     0.89223   0.07529   0.03952   0.00000  Uiso   1.00
H74    H     0.63323   0.42453   0.54970   0.00000  Uiso   1.00
H75    H     0.67753   0.53016   0.73144   0.00000  Uiso   1.00
H76    H     0.71110   0.89528   0.97868   0.00000  Uiso   1.00
H77    H     0.77027   0.50754   0.04865   0.00000  Uiso   1.00
H78    H     0.06009   0.58113   0.26713   0.00000  Uiso   1.00
H79    H     0.60686   0.63124   0.87908   0.00000  Uiso   1.00
H80    H     0.62278   0.33017   0.99633   0.00000  Uiso   1.00
H81    H     0.41454   0.63140   0.51464   0.00000  Uiso   1.00
H82    H     0.45883   0.73703   0.69638   0.00000  Uiso   1.00
H83    H     0.49241   0.10216   0.94363   0.00000  Uiso   1.00
O84    O     0.71914   0.57205   0.67662   0.00000  Uiso   1.00
O85    O     0.46527   0.71061   0.60308   0.00000  Uiso   1.00
O86    O     0.50933   0.87767   0.92747   0.00000  Uiso   1.00
N87    N     0.54199   0.46310   0.51147   0.00000  Uiso   1.00
N88    N     0.64848   0.56187   0.74646   0.00000  Uiso   1.00
N89    N     0.67984   0.96832   0.97758   0.00000  Uiso   1.00
N90    N     0.42431   0.57442   0.49261   0.00000  Uiso   1.00
N91    N     0.53081   0.67319   0.72760   0.00000  Uiso   1.00
N92    N     0.56216   0.07964   0.95872   0.00000  Uiso   1.00
C93    C     0.46719   0.17872   0.58023   0.00000  Uiso   1.00
C94    C     0.59684   0.11245   0.69447   0.00000  Uiso   1.00
C95    C     0.77141   0.11872   0.80103   0.00000  Uiso   1.00
C96    C     0.86827   0.05128   0.89524   0.00000  Uiso   1.00
C97    C     0.08102   0.95914   0.07445   0.00000  Uiso   1.00
C98    C     0.35061   0.08521   0.48364   0.00000  Uiso   1.00
C99    C     0.31812   0.06859   0.41293   0.00000  Uiso   1.00
C100   C     0.20768   0.97824   0.32964   0.00000  Uiso   1.00
C101   C     0.03805   0.84387   0.18147   0.00000  Uiso   1.00
C102   C     0.35928   0.24879   0.54736   0.00000  Uiso   1.00
C103   C     0.33404   0.36972   0.53019   0.00000  Uiso   1.00
C104   C     0.23086   0.41708   0.50052   0.00000  Uiso   1.00
C105   C     0.07469   0.53670   0.45128   0.00000  Uiso   1.00
C106   C     0.32879   0.04782   0.55804   0.00000  Uiso   1.00
C107   C     0.52167   0.04134   0.68242   0.00000  Uiso   1.00
C108   C     0.61829   0.97388   0.77649   0.00000  Uiso   1.00
C109   C     0.79297   0.98006   0.88317   0.00000  Uiso   1.00
C110   C     0.27544   0.01411   0.47159   0.00000  Uiso   1.00
C111   C     0.16501   0.92376   0.38838   0.00000  Uiso   1.00
C112   C     0.13238   0.90700   0.31757   0.00000  Uiso   1.00
C113   C     0.28411   0.17769   0.53531   0.00000  Uiso   1.00
C114   C     0.18093   0.22488   0.50565   0.00000  Uiso   1.00
C115   C     0.15555   0.34585   0.48844   0.00000  Uiso   1.00
H116   H     0.52570   0.23408   0.58960   0.00000  Uiso   1.00
H117   H     0.82953   0.17375   0.81032   0.00000  Uiso   1.00
H118   H     0.37630   0.12364   0.42227   0.00000  Uiso   1.00
H119   H     0.39223   0.42471   0.53952   0.00000  Uiso   1.00
H120   H     0.13323   0.07547   0.04970   0.00000  Uiso   1.00
H121   H     0.17753   0.96984   0.23144   0.00000  Uiso   1.00
H122   H     0.21110   0.60472   0.47868   0.00000  Uiso   1.00
H123   H     0.27027   0.99246   0.54865   0.00000  Uiso   1.00
H124   H     0.56009   0.91887   0.76713   0.00000  Uiso   1.00
H125   H     0.10686   0.86876   0.37908   0.00000  Uiso   1.00
H126   H     0.12278   0.16983   0.49633   0.00000  Uiso   1.00
H127   H     0.91454   0.86860   0.01464   0.00000  Uiso   1.00
H128   H     0.95883   0.76297   0.19638   0.00000  Uiso   1.00
H129   H     0.99241   0.39784   0.44363   0.00000  Uiso   1.00
O130   O     0.21914   0.92795   0.17662   0.00000  Uiso   1.00
O131   O     0.96527   0.78939   0.10308   0.00000  Uiso   1.00
O132   O     0.00933   0.62233   0.42747   0.00000  Uiso   1.00
N133   N     0.04199   0.03690   0.01147   0.00000  Uiso   1.00
N134   N     0.14848   0.93813   0.24646   0.00000  Uiso   1.00
N135   N     0.17984   0.53168   0.47758   0.00000  Uiso   1.00
N136   N     0.92431   0.92558   0.99261   0.00000  Uiso   1.00
N137   N     0.03081   0.82681   0.22760   0.00000  Uiso   1.00
N138   N     0.06216   0.42036   0.45872   0.00000  Uiso   1.00
C139   C     0.96719   0.67872   0.58023   0.00000  Uiso   1.00
C140   C     0.09684   0.61245   0.69447   0.00000  Uiso   1.00
C141   C     0.27141   0.61872   0.80103   0.00000  Uiso   1.00
C142   C     0.36827   0.55128   0.89524   0.00000  Uiso   1.00
C143   C     0.58102   0.45914   0.07445   0.00000  Uiso   1.00
C144   C     0.85061   0.58521   0.48364   0.00000  Uiso   1.00
C145   C     0.81812   0.56859   0.41293   0.00000  Uiso   1.00
C146   C     0.70768   0.47824   0.32964   0.00000  Uiso   1.00
C147   C     0.53805   0.34387   0.18147   0.00000  Uiso   1.00
C148   C     0.85928   0.74879   0.54736   0.00000  Uiso   1.00
C149   C     0.83404   0.86972   0.53019   0.00000  Uiso   1.00
C150   C     0.73086   0.91708   0.50052   0.00000  Uiso   1.00
C151   C     0.57469   0.03670   0.45128   0.00000  Uiso   1.00
C152   C     0.82879   0.54782   0.55804   0.00000  Uiso   1.00
C153   C     0.02167   0.54134   0.68242   0.00000  Uiso   1.00
C154   C     0.11829   0.47388   0.77649   0.00000  Uiso   1.00
C155   C     0.29297   0.48006   0.88317   0.00000  Uiso   1.00
C156   C     0.77544   0.51411   0.47159   0.00000  Uiso   1.00
C157   C     0.66501   0.42376   0.38838   0.00000  Uiso   1.00
C158   C     0.63238   0.40700   0.31757   0.00000  Uiso   1.00
C159   C     0.78411   0.67769   0.53531   0.00000  Uiso   1.00
C160   C     0.68093   0.72488   0.50565   0.00000  Uiso   1.00
C161   C     0.65555   0.84585   0.48844   0.00000  Uiso   1.00
H162   H     0.02570   0.73408   0.58960   0.00000  Uiso   1.00
H163   H     0.32953   0.67375   0.81032   0.00000  Uiso   1.00
H164   H     0.87630   0.62364   0.42227   0.00000  Uiso   1.00
H165   H     0.89223   0.92471   0.53952   0.00000  Uiso   1.00
H166   H     0.63323   0.57547   0.04970   0.00000  Uiso   1.00
H167   H     0.67753   0.46984   0.23144   0.00000  Uiso   1.00
H168   H     0.71110   0.10472   0.47868   0.00000  Uiso   1.00
H169   H     0.77027   0.49246   0.54865   0.00000  Uiso   1.00
H170   H     0.06009   0.41887   0.76713   0.00000  Uiso   1.00
H171   H     0.60686   0.36876   0.37908   0.00000  Uiso   1.00
H172   H     0.62278   0.66983   0.49633   0.00000  Uiso   1.00
H173   H     0.41454   0.36860   0.01464   0.00000  Uiso   1.00
H174   H     0.45883   0.26297   0.19638   0.00000  Uiso   1.00
H175   H     0.49241   0.89784   0.44363   0.00000  Uiso   1.00
O176   O     0.71914   0.42795   0.17662   0.00000  Uiso   1.00
O177   O     0.46527   0.28939   0.10308   0.00000  Uiso   1.00
O178   O     0.50933   0.12233   0.42747   0.00000  Uiso   1.00
N179   N     0.54199   0.53690   0.01147   0.00000  Uiso   1.00
N180   N     0.64848   0.43813   0.24646   0.00000  Uiso   1.00
N181   N     0.67984   0.03168   0.47758   0.00000  Uiso   1.00
N182   N     0.42431   0.42558   0.99261   0.00000  Uiso   1.00
N183   N     0.53081   0.32681   0.22760   0.00000  Uiso   1.00
N184   N     0.56216   0.92036   0.45872   0.00000  Uiso   1.00
