data_job_06620
_audit_creation_date              2018-12-19
_audit_creation_method            'Materials Studio'
_symmetry_space_group_name_H-M    'P1'
_symmetry_Int_Tables_number       1
_symmetry_cell_setting            triclinic
loop_
_symmetry_equiv_pos_as_xyz
  x,y,z
_cell_length_a                    20.4690
_cell_length_b                    21.9885
_cell_length_c                    23.0149
_cell_angle_alpha                 110.9698
_cell_angle_beta                  98.7346
_cell_angle_gamma                 114.1843
loop_
_atom_site_label
_atom_site_type_symbol
_atom_site_fract_x
_atom_site_fract_y
_atom_site_fract_z
_atom_site_U_iso_or_equiv
_atom_site_adp_type
_atom_site_occupancy
C1     C     0.05612   0.71566   0.01194   0.00000  Uiso   1.00
C2     C     0.07361   0.65579   0.97203   0.00000  Uiso   1.00
C3     C     0.14333   0.65852   0.98724   0.00000  Uiso   1.00
C4     C     0.14775   0.59817   0.94449   0.00000  Uiso   1.00
C5     C     0.18451   0.51448   0.89101   0.00000  Uiso   1.00
C6     C     0.02727   0.73927   0.96352   0.00000  Uiso   1.00
C7     C     0.05801   0.81219   0.97158   0.00000  Uiso   1.00
C8     C     0.02340   0.82211   0.92167   0.00000  Uiso   1.00
C9     C     0.98818   0.86803   0.85501   0.00000  Uiso   1.00
C10    C     0.98791   0.67516   0.02970   0.00000  Uiso   1.00
C11    C     0.98555   0.69419   0.09341   0.00000  Uiso   1.00
C12    C     0.91779   0.65015   0.09922   0.00000  Uiso   1.00
C13    C     0.82145   0.59654   0.13531   0.00000  Uiso   1.00
C14    C     0.93998   0.60364   0.90898   0.00000  Uiso   1.00
C15    C     0.01053   0.59495   0.91610   0.00000  Uiso   1.00
C16    C     0.01483   0.53458   0.87333   0.00000  Uiso   1.00
C17    C     0.08455   0.53721   0.88847   0.00000  Uiso   1.00
C18    C     0.96418   0.67843   0.90760   0.00000  Uiso   1.00
C19    C     0.92951   0.68825   0.85767   0.00000  Uiso   1.00
C20    C     0.96020   0.76116   0.86565   0.00000  Uiso   1.00
C21    C     0.92482   0.61431   0.97378   0.00000  Uiso   1.00
C22    C     0.85705   0.57024   0.97949   0.00000  Uiso   1.00
C23    C     0.85459   0.58920   0.04320   0.00000  Uiso   1.00
H24    H     0.10524   0.76304   0.05547   0.00000  Uiso   1.00
H25    H     0.19214   0.70562   0.03052   0.00000  Uiso   1.00
H26    H     0.10683   0.85927   0.01487   0.00000  Uiso   1.00
H27    H     0.03438   0.74128   0.13667   0.00000  Uiso   1.00
H28    H     0.26068   0.61514   0.97817   0.00000  Uiso   1.00
H29    H     0.08078   0.93912   0.94518   0.00000  Uiso   1.00
H30    H     0.92800   0.69033   0.20203   0.00000  Uiso   1.00
H31    H     0.89086   0.55627   0.86544   0.00000  Uiso   1.00
H32    H     0.96600   0.48750   0.83005   0.00000  Uiso   1.00
H33    H     0.88069   0.64115   0.81440   0.00000  Uiso   1.00
H34    H     0.80824   0.52316   0.93621   0.00000  Uiso   1.00
H35    H     0.07714   0.43811   0.81547   0.00000  Uiso   1.00
H36    H     0.89723   0.76208   0.78248   0.00000  Uiso   1.00
H37    H     0.74445   0.51329   0.03933   0.00000  Uiso   1.00
O38    O     0.22221   0.48513   0.87696   0.00000  Uiso   1.00
O39    O     0.98618   0.91017   0.83369   0.00000  Uiso   1.00
O40    O     0.78574   0.58376   0.17067   0.00000  Uiso   1.00
N41    N     0.20717   0.58291   0.94474   0.00000  Uiso   1.00
N42    N     0.03898   0.88580   0.91389   0.00000  Uiso   1.00
N43    N     0.89613   0.65322   0.15403   0.00000  Uiso   1.00
N44    N     0.10840   0.48765   0.85719   0.00000  Uiso   1.00
N45    N     0.94021   0.79054   0.82634   0.00000  Uiso   1.00
N46    N     0.79737   0.55795   0.06648   0.00000  Uiso   1.00
C47    C     0.69609   0.82990   0.96299   0.00000  Uiso   1.00
C48    C     0.61692   0.81594   0.96372   0.00000  Uiso   1.00
C49    C     0.57931   0.78586   0.00046   0.00000  Uiso   1.00
C50    C     0.50721   0.77753   0.99429   0.00000  Uiso   1.00
C51    C     0.38930   0.75261   0.00169   0.00000  Uiso   1.00
C52    C     0.68595   0.78699   0.89048   0.00000  Uiso   1.00
C53    C     0.70640   0.73259   0.86566   0.00000  Uiso   1.00
C54    C     0.69243   0.69990   0.79784   0.00000  Uiso   1.00
C55    C     0.68176   0.63009   0.69155   0.00000  Uiso   1.00
C56    C     0.74350   0.91327   0.98248   0.00000  Uiso   1.00
C57    C     0.81235   0.96505   0.03499   0.00000  Uiso   1.00
C58    C     0.84683   0.03868   0.04461   0.00000  Uiso   1.00
C59    C     0.92551   0.16493   0.08117   0.00000  Uiso   1.00
C60    C     0.63494   0.86858   0.88669   0.00000  Uiso   1.00
C61    C     0.58370   0.83694   0.92227   0.00000  Uiso   1.00
C62    C     0.51164   0.82866   0.91604   0.00000  Uiso   1.00
C63    C     0.47393   0.79858   0.95277   0.00000  Uiso   1.00
C64    C     0.65274   0.80800   0.84904   0.00000  Uiso   1.00
C65    C     0.63874   0.77539   0.78124   0.00000  Uiso   1.00
C66    C     0.65916   0.72095   0.75632   0.00000  Uiso   1.00
C67    C     0.71028   0.93428   0.94103   0.00000  Uiso   1.00
C68    C     0.74468   0.00784   0.95057   0.00000  Uiso   1.00
C69    C     0.81356   0.05972   0.00309   0.00000  Uiso   1.00
H70    H     0.72196   0.81354   0.99525   0.00000  Uiso   1.00
H71    H     0.60503   0.76960   0.03252   0.00000  Uiso   1.00
H72    H     0.73212   0.71635   0.89774   0.00000  Uiso   1.00
H73    H     0.83803   0.94877   0.06705   0.00000  Uiso   1.00
H74    H     0.46074   0.73013   0.05555   0.00000  Uiso   1.00
H75    H     0.72872   0.61786   0.77136   0.00000  Uiso   1.00
H76    H     0.95208   0.10796   0.12838   0.00000  Uiso   1.00
H77    H     0.60908   0.88494   0.85442   0.00000  Uiso   1.00
H78    H     0.48595   0.84492   0.88397   0.00000  Uiso   1.00
H79    H     0.61304   0.79166   0.74919   0.00000  Uiso   1.00
H80    H     0.71896   0.02408   0.91849   0.00000  Uiso   1.00
H81    H     0.36408   0.79126   0.93497   0.00000  Uiso   1.00
H82    H     0.63208   0.67899   0.65078   0.00000  Uiso   1.00
H83    H     0.85543   0.16909   0.00781   0.00000  Uiso   1.00
O84    O     0.33344   0.73306   0.01722   0.00000  Uiso   1.00
O85    O     0.68505   0.58578   0.64438   0.00000  Uiso   1.00
O86    O     0.97808   0.22877   0.11278   0.00000  Uiso   1.00
N87    N     0.45489   0.75002   0.02313   0.00000  Uiso   1.00
N88    N     0.70543   0.64505   0.75742   0.00000  Uiso   1.00
N89    N     0.91426   0.10325   0.09120   0.00000  Uiso   1.00
N90    N     0.40289   0.78292   0.95825   0.00000  Uiso   1.00
N91    N     0.65343   0.67794   0.69255   0.00000  Uiso   1.00
N92    N     0.86226   0.13614   0.02632   0.00000  Uiso   1.00
C93    C     0.27139   0.19331   0.98170   0.00000  Uiso   1.00
C94    C     0.30401   0.26700   0.97753   0.00000  Uiso   1.00
C95    C     0.28240   0.32092   0.99954   0.00000  Uiso   1.00
C96    C     0.31904   0.38447   0.99123   0.00000  Uiso   1.00
C97    C     0.36111   0.49748   0.98917   0.00000  Uiso   1.00
C98    C     0.24157   0.13081   0.91087   0.00000  Uiso   1.00
C99    C     0.16745   0.07021   0.87684   0.00000  Uiso   1.00
C100   C     0.15153   0.01911   0.81243   0.00000  Uiso   1.00
C101   C     0.09667   0.92065   0.70690   0.00000  Uiso   1.00
C102   C     0.33953   0.19373   0.01977   0.00000  Uiso   1.00
C103   C     0.34778   0.18602   0.07729   0.00000  Uiso   1.00
C104   C     0.41433   0.18787   0.10455   0.00000  Uiso   1.00
C105   C     0.51157   0.18711   0.16811   0.00000  Uiso   1.00
C106   C     0.37490   0.21028   0.92782   0.00000  Uiso   1.00
C107   C     0.36023   0.27622   0.94826   0.00000  Uiso   1.00
C108   C     0.39692   0.33970   0.93992   0.00000  Uiso   1.00
C109   C     0.37537   0.39371   0.96191   0.00000  Uiso   1.00
C110   C     0.29778   0.14003   0.88161   0.00000  Uiso   1.00
C111   C     0.28197   0.08899   0.81723   0.00000  Uiso   1.00
C112   C     0.20786   0.02834   0.78310   0.00000  Uiso   1.00
C113   C     0.39575   0.20295   0.99051   0.00000  Uiso   1.00
C114   C     0.46230   0.20480   0.01768   0.00000  Uiso   1.00
C115   C     0.47066   0.19710   0.07523   0.00000  Uiso   1.00
H116   H     0.22762   0.18612   0.00448   0.00000  Uiso   1.00
H117   H     0.23888   0.31376   0.02218   0.00000  Uiso   1.00
H118   H     0.12396   0.06309   0.89951   0.00000  Uiso   1.00
H119   H     0.30426   0.17889   0.09993   0.00000  Uiso   1.00
H120   H     0.27614   0.45933   0.02886   0.00000  Uiso   1.00
H121   H     0.03383   0.93076   0.77021   0.00000  Uiso   1.00
H122   H     0.41403   0.17493   0.19284   0.00000  Uiso   1.00
H123   H     0.41867   0.21745   0.90503   0.00000  Uiso   1.00
H124   H     0.44042   0.34682   0.91727   0.00000  Uiso   1.00
H125   H     0.32550   0.09614   0.79460   0.00000  Uiso   1.00
H126   H     0.50580   0.21194   0.99502   0.00000  Uiso   1.00
H127   H     0.43972   0.48616   0.94371   0.00000  Uiso   1.00
H128   H     0.19740   0.95758   0.68506   0.00000  Uiso   1.00
H129   H     0.57760   0.20176   0.10769   0.00000  Uiso   1.00
O130   O     0.36877   0.55727   0.99611   0.00000  Uiso   1.00
O131   O     0.05087   0.86379   0.65678   0.00000  Uiso   1.00
O132   O     0.54968   0.18415   0.21125   0.00000  Uiso   1.00
N133   N     0.31167   0.44790   0.00716   0.00000  Uiso   1.00
N134   N     0.08511   0.95372   0.76533   0.00000  Uiso   1.00
N135   N     0.44056   0.18198   0.16044   0.00000  Uiso   1.00
N136   N     0.39969   0.46234   0.96134   0.00000  Uiso   1.00
N137   N     0.17313   0.96816   0.71951   0.00000  Uiso   1.00
N138   N     0.52858   0.19642   0.11462   0.00000  Uiso   1.00
C139   C     0.02813   0.95046   0.54300   0.00000  Uiso   1.00
C140   C     0.05408   0.01337   0.52322   0.00000  Uiso   1.00
C141   C     0.12772   0.07419   0.54814   0.00000  Uiso   1.00
C142   C     0.13986   0.12566   0.52368   0.00000  Uiso   1.00
C143   C     0.18921   0.22471   0.50019   0.00000  Uiso   1.00
C144   C     0.99300   0.87711   0.47874   0.00000  Uiso   1.00
C145   C     0.01527   0.82335   0.46628   0.00000  Uiso   1.00
C146   C     0.97599   0.76010   0.40438   0.00000  Uiso   1.00
C147   C     0.93047   0.64757   0.31185   0.00000  Uiso   1.00
C148   C     0.96234   0.94944   0.56690   0.00000  Uiso   1.00
C149   C     0.95882   0.95647   0.62856   0.00000  Uiso   1.00
C150   C     0.89372   0.95411   0.64089   0.00000  Uiso   1.00
C151   C     0.80060   0.95388   0.68525   0.00000  Uiso   1.00
C152   C     0.91875   0.93373   0.45524   0.00000  Uiso   1.00
C153   C     0.99467   0.00428   0.47554   0.00000  Uiso   1.00
C154   C     0.00670   0.05568   0.45104   0.00000  Uiso   1.00
C155   C     0.08034   0.11656   0.47593   0.00000  Uiso   1.00
C156   C     0.93359   0.86802   0.43107   0.00000  Uiso   1.00
C157   C     0.89426   0.80484   0.36918   0.00000  Uiso   1.00
C158   C     0.91647   0.75100   0.35663   0.00000  Uiso   1.00
C159   C     0.90293   0.94035   0.51924   0.00000  Uiso   1.00
C160   C     0.83781   0.93797   0.53146   0.00000  Uiso   1.00
C161   C     0.83420   0.94500   0.59313   0.00000  Uiso   1.00
H162   H     0.07438   0.95753   0.58011   0.00000  Uiso   1.00
H163   H     0.17368   0.08120   0.58503   0.00000  Uiso   1.00
H164   H     0.06124   0.83039   0.50318   0.00000  Uiso   1.00
H165   H     0.00481   0.96350   0.66544   0.00000  Uiso   1.00
H166   H     0.25758   0.21428   0.56944   0.00000  Uiso   1.00
H167   H     0.02049   0.68543   0.39687   0.00000  Uiso   1.00
H168   H     0.90148   0.96612   0.73902   0.00000  Uiso   1.00
H169   H     0.87249   0.92666   0.41813   0.00000  Uiso   1.00
H170   H     0.96071   0.04863   0.41415   0.00000  Uiso   1.00
H171   H     0.84828   0.79782   0.33230   0.00000  Uiso   1.00
H172   H     0.79185   0.93094   0.49456   0.00000  Uiso   1.00
H173   H     0.08473   0.18784   0.43075   0.00000  Uiso   1.00
H174   H     0.84764   0.65899   0.25818   0.00000  Uiso   1.00
H175   H     0.72863   0.93969   0.60033   0.00000  Uiso   1.00
O176   O     0.23284   0.28184   0.50039   0.00000  Uiso   1.00
O177   O     0.92178   0.58801   0.27398   0.00000  Uiso   1.00
O178   O     0.76565   0.95627   0.72289   0.00000  Uiso   1.00
N179   N     0.20479   0.19133   0.53735   0.00000  Uiso   1.00
N180   N     0.98313   0.69689   0.37600   0.00000  Uiso   1.00
N181   N     0.87186   0.95929   0.69589   0.00000  Uiso   1.00
N182   N     0.11178   0.17710   0.46273   0.00000  Uiso   1.00
N183   N     0.89012   0.68267   0.30138   0.00000  Uiso   1.00
N184   N     0.77885   0.94507   0.62126   0.00000  Uiso   1.00
C185   C     0.72588   0.41967   0.40739   0.00000  Uiso   1.00
C186   C     0.63966   0.37429   0.38985   0.00000  Uiso   1.00
C187   C     0.59221   0.40405   0.40237   0.00000  Uiso   1.00
C188   C     0.51493   0.35311   0.38248   0.00000  Uiso   1.00
C189   C     0.38543   0.29450   0.35997   0.00000  Uiso   1.00
C190   C     0.74060   0.39229   0.34250   0.00000  Uiso   1.00
C191   C     0.77802   0.43720   0.31522   0.00000  Uiso   1.00
C192   C     0.78572   0.40141   0.25547   0.00000  Uiso   1.00
C193   C     0.81297   0.37076   0.15948   0.00000  Uiso   1.00
C194   C     0.76115   0.39415   0.45034   0.00000  Uiso   1.00
C195   C     0.81586   0.44063   0.51373   0.00000  Uiso   1.00
C196   C     0.84087   0.40642   0.54478   0.00000  Uiso   1.00
C197   C     0.90002   0.37865   0.61623   0.00000  Uiso   1.00
C198   C     0.67302   0.27627   0.34979   0.00000  Uiso   1.00
C199   C     0.61096   0.29640   0.35856   0.00000  Uiso   1.00
C200   C     0.53373   0.24540   0.33865   0.00000  Uiso   1.00
C201   C     0.48617   0.27509   0.35114   0.00000  Uiso   1.00
C202   C     0.71189   0.31440   0.31121   0.00000  Uiso   1.00
C203   C     0.71954   0.27854   0.25150   0.00000  Uiso   1.00
C204   C     0.75696   0.32339   0.22413   0.00000  Uiso   1.00
C205   C     0.73244   0.31626   0.41906   0.00000  Uiso   1.00
C206   C     0.75738   0.28197   0.45001   0.00000  Uiso   1.00
C207   C     0.81211   0.32839   0.51344   0.00000  Uiso   1.00
H208   H     0.74823   0.48030   0.43174   0.00000  Uiso   1.00
H209   H     0.61445   0.46433   0.42658   0.00000  Uiso   1.00
H210   H     0.80024   0.49747   0.33944   0.00000  Uiso   1.00
H211   H     0.83807   0.50090   0.53793   0.00000  Uiso   1.00
H212   H     0.45346   0.41228   0.40703   0.00000  Uiso   1.00
H213   H     0.84524   0.48216   0.22332   0.00000  Uiso   1.00
H214   H     0.92500   0.48939   0.64186   0.00000  Uiso   1.00
H215   H     0.65067   0.21562   0.32543   0.00000  Uiso   1.00
H216   H     0.51153   0.18513   0.31444   0.00000  Uiso   1.00
H217   H     0.69732   0.21827   0.22730   0.00000  Uiso   1.00
H218   H     0.73515   0.22170   0.42579   0.00000  Uiso   1.00
H219   H     0.36993   0.18566   0.31602   0.00000  Uiso   1.00
H220   H     0.76171   0.25555   0.13230   0.00000  Uiso   1.00
H221   H     0.84147   0.26277   0.55084   0.00000  Uiso   1.00
O222   O     0.32192   0.28368   0.35619   0.00000  Uiso   1.00
O223   O     0.83593   0.37537   0.11517   0.00000  Uiso   1.00
O224   O     0.94057   0.38485   0.66429   0.00000  Uiso   1.00
N225   N     0.45290   0.36313   0.38713   0.00000  Uiso   1.00
N226   N     0.81918   0.42846   0.21536   0.00000  Uiso   1.00
N227   N     0.89376   0.43523   0.60666   0.00000  Uiso   1.00
N228   N     0.40795   0.24119   0.33816   0.00000  Uiso   1.00
N229   N     0.77423   0.30652   0.16639   0.00000  Uiso   1.00
N230   N     0.84881   0.31329   0.55769   0.00000  Uiso   1.00
C231   C     0.13356   0.57015   0.33867   0.00000  Uiso   1.00
C232   C     0.20355   0.56072   0.34120   0.00000  Uiso   1.00
C233   C     0.21291   0.50660   0.35289   0.00000  Uiso   1.00
C234   C     0.28110   0.50732   0.35321   0.00000  Uiso   1.00
C235   C     0.38113   0.48460   0.35877   0.00000  Uiso   1.00
C236   C     0.10573   0.56545   0.27104   0.00000  Uiso   1.00
C237   C     0.03285   0.51531   0.22375   0.00000  Uiso   1.00
C238   C     0.01870   0.52001   0.16501   0.00000  Uiso   1.00
C239   C     0.96685   0.50466   0.06167   0.00000  Uiso   1.00
C240   C     0.16298   0.65110   0.38991   0.00000  Uiso   1.00
C241   C     0.13822   0.67298   0.44256   0.00000  Uiso   1.00
C242   C     0.17226   0.74980   0.48390   0.00000  Uiso   1.00
C243   C     0.20930   0.86744   0.56512   0.00000  Uiso   1.00
C244   C     0.23803   0.66767   0.31844   0.00000  Uiso   1.00
C245   C     0.26029   0.61369   0.33020   0.00000  Uiso   1.00
C246   C     0.32849   0.61449   0.33051   0.00000  Uiso   1.00
C247   C     0.33795   0.56038   0.34220   0.00000  Uiso   1.00
C248   C     0.16247   0.61841   0.26005   0.00000  Uiso   1.00
C249   C     0.14843   0.62320   0.20137   0.00000  Uiso   1.00
C250   C     0.07554   0.57307   0.15400   0.00000  Uiso   1.00
C251   C     0.21973   0.70407   0.37892   0.00000  Uiso   1.00
C252   C     0.25381   0.78087   0.42018   0.00000  Uiso   1.00
C253   C     0.22910   0.80286   0.47289   0.00000  Uiso   1.00
H254   H     0.08938   0.52891   0.34722   0.00000  Uiso   1.00
H255   H     0.16898   0.46562   0.36139   0.00000  Uiso   1.00
H256   H     0.98894   0.47433   0.23227   0.00000  Uiso   1.00
H257   H     0.09431   0.63198   0.45105   0.00000  Uiso   1.00
H258   H     0.28224   0.41878   0.37222   0.00000  Uiso   1.00
H259   H     0.90262   0.43717   0.09998   0.00000  Uiso   1.00
H260   H     0.12479   0.76960   0.56132   0.00000  Uiso   1.00
H261   H     0.28221   0.70891   0.30988   0.00000  Uiso   1.00
H262   H     0.37239   0.65549   0.32200   0.00000  Uiso   1.00
H263   H     0.19236   0.66420   0.19288   0.00000  Uiso   1.00
H264   H     0.29772   0.82184   0.41166   0.00000  Uiso   1.00
H265   H     0.44734   0.57288   0.34025   0.00000  Uiso   1.00
H266   H     0.06772   0.59127   0.06801   0.00000  Uiso   1.00
H267   H     0.28989   0.92370   0.52935   0.00000  Uiso   1.00
O268   O     0.42062   0.45743   0.36486   0.00000  Uiso   1.00
O269   O     0.92258   0.48156   0.00770   0.00000  Uiso   1.00
O270   O     0.21406   0.91770   0.61297   0.00000  Uiso   1.00
N271   N     0.30872   0.46239   0.36305   0.00000  Uiso   1.00
N272   N     0.95381   0.47957   0.10852   0.00000  Uiso   1.00
N273   N     0.16151   0.79037   0.53982   0.00000  Uiso   1.00
N274   N     0.39756   0.54531   0.34584   0.00000  Uiso   1.00
N275   N     0.04265   0.56249   0.09131   0.00000  Uiso   1.00
N276   N     0.25034   0.87329   0.52262   0.00000  Uiso   1.00
C277   C     0.96876   0.15693   0.81378   0.00000  Uiso   1.00
C278   C     0.93366   0.20730   0.83121   0.00000  Uiso   1.00
C279   C     0.85932   0.18717   0.79937   0.00000  Uiso   1.00
C280   C     0.83817   0.24128   0.82278   0.00000  Uiso   1.00
C281   C     0.77583   0.30858   0.84176   0.00000  Uiso   1.00
C282   C     0.99779   0.15417   0.87733   0.00000  Uiso   1.00
C283   C     0.97736   0.08935   0.88426   0.00000  Uiso   1.00
C284   C     0.01020   0.09874   0.94649   0.00000  Uiso   1.00
C285   C     0.04746   0.08355   0.03706   0.00000  Uiso   1.00
C286   C     0.03970   0.19972   0.80007   0.00000  Uiso   1.00
C287   C     0.05453   0.17321   0.74205   0.00000  Uiso   1.00
C288   C     0.12267   0.22095   0.73924   0.00000  Uiso   1.00
C289   C     0.22501   0.27648   0.70985   0.00000  Uiso   1.00
C290   C     0.06341   0.28885   0.91196   0.00000  Uiso   1.00
C291   C     0.98507   0.27895   0.88454   0.00000  Uiso   1.00
C292   C     0.96403   0.33312   0.90800   0.00000  Uiso   1.00
C293   C     0.88967   0.31306   0.87620   0.00000  Uiso   1.00
C294   C     0.04919   0.22582   0.93066   0.00000  Uiso   1.00
C295   C     0.08208   0.23530   0.99289   0.00000  Uiso   1.00
C296   C     0.06170   0.17052   0.99991   0.00000  Uiso   1.00
C297   C     0.09111   0.27138   0.85340   0.00000  Uiso   1.00
C298   C     0.15925   0.31916   0.85068   0.00000  Uiso   1.00
C299   C     0.17417   0.29272   0.79266   0.00000  Uiso   1.00
H300   H     0.92874   0.10115   0.77226   0.00000  Uiso   1.00
H301   H     0.81955   0.13171   0.75811   0.00000  Uiso   1.00
H302   H     0.93758   0.03391   0.84298   0.00000  Uiso   1.00
H303   H     0.01474   0.11776   0.70080   0.00000  Uiso   1.00
H304   H     0.72115   0.19718   0.76595   0.00000  Uiso   1.00
H305   H     0.97004   0.99097   0.94491   0.00000  Uiso   1.00
H306   H     0.13275   0.16777   0.64508   0.00000  Uiso   1.00
H307   H     0.10344   0.34463   0.95348   0.00000  Uiso   1.00
H308   H     0.00383   0.38856   0.94927   0.00000  Uiso   1.00
H309   H     0.12186   0.29076   0.03414   0.00000  Uiso   1.00
H310   H     0.19902   0.37460   0.89196   0.00000  Uiso   1.00
H311   H     0.87072   0.40565   0.92111   0.00000  Uiso   1.00
H312   H     0.11961   0.19944   0.10006   0.00000  Uiso   1.00
H313   H     0.28231   0.37624   0.80023   0.00000  Uiso   1.00
O314   O     0.72725   0.32591   0.83751   0.00000  Uiso   1.00
O315   O     0.05380   0.05537   0.07228   0.00000  Uiso   1.00
O316   O     0.26725   0.28732   0.67891   0.00000  Uiso   1.00
N317   N     0.77002   0.24022   0.80304   0.00000  Uiso   1.00
N318   N     0.00272   0.04743   0.97035   0.00000  Uiso   1.00
N319   N     0.15484   0.21271   0.69004   0.00000  Uiso   1.00
N320   N     0.85051   0.35240   0.88652   0.00000  Uiso   1.00
N321   N     0.08320   0.15960   0.05384   0.00000  Uiso   1.00
N322   N     0.23532   0.32489   0.77353   0.00000  Uiso   1.00
C323   C     0.25970   0.96222   0.94746   0.00000  Uiso   1.00
C324   C     0.34317   0.98256   0.96167   0.00000  Uiso   1.00
C325   C     0.39675   0.03334   0.94742   0.00000  Uiso   1.00
C326   C     0.47014   0.04417   0.96431   0.00000  Uiso   1.00
C327   C     0.59686   0.08165   0.98184   0.00000  Uiso   1.00
C328   C     0.24748   0.97847   0.01388   0.00000  Uiso   1.00
C329   C     0.22061   0.02581   0.04351   0.00000  Uiso   1.00
C330   C     0.21344   0.03317   0.10435   0.00000  Uiso   1.00
C331   C     0.19155   0.06427   0.20290   0.00000  Uiso   1.00
C332   C     0.21246   0.87691   0.90476   0.00000  Uiso   1.00
C333   C     0.15612   0.83885   0.84265   0.00000  Uiso   1.00
C334   C     0.11944   0.76071   0.81162   0.00000  Uiso   1.00
C335   C     0.04317   0.63412   0.74075   0.00000  Uiso   1.00
C336   C     0.29473   0.89112   0.00281   0.00000  Uiso   1.00
C337   C     0.36219   0.94394   0.99174   0.00000  Uiso   1.00
C338   C     0.43551   0.95468   0.00865   0.00000  Uiso   1.00
C339   C     0.48920   0.00548   0.99442   0.00000  Uiso   1.00
C340   C     0.26651   0.93985   0.04395   0.00000  Uiso   1.00
C341   C     0.25937   0.94714   0.10475   0.00000  Uiso   1.00
C342   C     0.23250   0.99449   0.13447   0.00000  Uiso   1.00
C343   C     0.23148   0.83829   0.93482   0.00000  Uiso   1.00
C344   C     0.19488   0.76019   0.90389   0.00000  Uiso   1.00
C345   C     0.13850   0.72202   0.84174   0.00000  Uiso   1.00
H346   H     0.24488   0.99228   0.92406   0.00000  Uiso   1.00
H347   H     0.38201   0.06323   0.92416   0.00000  Uiso   1.00
H348   H     0.20588   0.05568   0.02023   0.00000  Uiso   1.00
H349   H     0.14141   0.86876   0.81940   0.00000  Uiso   1.00
H350   H     0.54243   0.12487   0.93755   0.00000  Uiso   1.00
H351   H     0.17104   0.10894   0.14012   0.00000  Uiso   1.00
H352   H     0.03508   0.71477   0.71662   0.00000  Uiso   1.00
H353   H     0.30954   0.86105   0.02622   0.00000  Uiso   1.00
H354   H     0.45022   0.92479   0.03192   0.00000  Uiso   1.00
H355   H     0.27410   0.91725   0.12800   0.00000  Uiso   1.00
H356   H     0.20962   0.73032   0.92717   0.00000  Uiso   1.00
H357   H     0.59780   0.01251   0.02501   0.00000  Uiso   1.00
H358   H     0.22640   0.99658   0.22758   0.00000  Uiso   1.00
H359   H     0.09044   0.60241   0.80409   0.00000  Uiso   1.00
O360   O     0.66150   0.11301   0.98321   0.00000  Uiso   1.00
O361   O     0.17423   0.09209   0.24896   0.00000  Uiso   1.00
O362   O     0.99586   0.57496   0.69335   0.00000  Uiso   1.00
N363   N     0.53615   0.08967   0.95734   0.00000  Uiso   1.00
N364   N     0.18894   0.07478   0.14673   0.00000  Uiso   1.00
N365   N     0.06181   0.70627   0.75081   0.00000  Uiso   1.00
N366   N     0.56595   0.02921   0.00440   0.00000  Uiso   1.00
N367   N     0.21873   0.01432   0.19380   0.00000  Uiso   1.00
N368   N     0.09160   0.64581   0.79788   0.00000  Uiso   1.00
C369   C     0.66827   0.56576   0.90011   0.00000  Uiso   1.00
C370   C     0.64623   0.50239   0.91928   0.00000  Uiso   1.00
C371   C     0.64734   0.43629   0.88690   0.00000  Uiso   1.00
C372   C     0.62512   0.38534   0.91214   0.00000  Uiso   1.00
C373   C     0.59436   0.28472   0.93347   0.00000  Uiso   1.00
C374   C     0.73104   0.63703   0.96178   0.00000  Uiso   1.00
C375   C     0.80345   0.68412   0.96512   0.00000  Uiso   1.00
C376   C     0.85262   0.74653   0.02614   0.00000  Uiso   1.00
C377   C     0.95350   0.85496   0.11344   0.00000  Uiso   1.00
C378   C     0.59915   0.57644   0.88945   0.00000  Uiso   1.00
C379   C     0.56067   0.57261   0.83199   0.00000  Uiso   1.00
C380   C     0.49880   0.58402   0.83212   0.00000  Uiso   1.00
C381   C     0.39490   0.59838   0.80711   0.00000  Uiso   1.00
C382   C     0.62682   0.59285   0.00252   0.00000  Uiso   1.00
C383   C     0.62371   0.51711   0.97491   0.00000  Uiso   1.00
C384   C     0.60148   0.46625   0.00021   0.00000  Uiso   1.00
C385   C     0.60256   0.40008   0.96786   0.00000  Uiso   1.00
C386   C     0.70852   0.65174   0.01741   0.00000  Uiso   1.00
C387   C     0.75759   0.71409   0.07843   0.00000  Uiso   1.00
C388   C     0.83006   0.76127   0.08187   0.00000  Uiso   1.00
C389   C     0.57663   0.59115   0.94508   0.00000  Uiso   1.00
C390   C     0.51481   0.60257   0.94530   0.00000  Uiso   1.00
C391   C     0.47624   0.59876   0.88785   0.00000  Uiso   1.00
H392   H     0.68581   0.55431   0.85680   0.00000  Uiso   1.00
H393   H     0.66478   0.42492   0.84385   0.00000  Uiso   1.00
H394   H     0.82086   0.67273   0.92206   0.00000  Uiso   1.00
H395   H     0.57812   0.56122   0.78895   0.00000  Uiso   1.00
H396   H     0.63157   0.28797   0.85404   0.00000  Uiso   1.00
H397   H     0.96066   0.81049   0.01895   0.00000  Uiso   1.00
H398   H     0.44879   0.57537   0.73825   0.00000  Uiso   1.00
H399   H     0.60928   0.60431   0.04584   0.00000  Uiso   1.00
H400   H     0.58405   0.47766   0.04326   0.00000  Uiso   1.00
H401   H     0.74014   0.72546   0.12147   0.00000  Uiso   1.00
H402   H     0.49740   0.61396   0.98836   0.00000  Uiso   1.00
H403   H     0.56605   0.33077   0.01589   0.00000  Uiso   1.00
H404   H     0.89515   0.85330   0.18080   0.00000  Uiso   1.00
H405   H     0.38327   0.61817   0.90010   0.00000  Uiso   1.00
O406   O     0.58362   0.22516   0.92987   0.00000  Uiso   1.00
O407   O     0.01537   0.91070   0.14622   0.00000  Uiso   1.00
O408   O     0.34381   0.60222   0.77795   0.00000  Uiso   1.00
N409   N     0.61959   0.31542   0.89248   0.00000  Uiso   1.00
N410   N     0.92728   0.80394   0.04666   0.00000  Uiso   1.00
N411   N     0.44874   0.58414   0.78424   0.00000  Uiso   1.00
N412   N     0.58434   0.33845   0.97957   0.00000  Uiso   1.00
N413   N     0.89203   0.82697   0.13375   0.00000  Uiso   1.00
N414   N     0.41348   0.60717   0.87133   0.00000  Uiso   1.00
C415   C     0.94094   0.29742   0.37374   0.00000  Uiso   1.00
C416   C     0.91785   0.24528   0.40537   0.00000  Uiso   1.00
C417   C     0.84443   0.18749   0.38826   0.00000  Uiso   1.00
C418   C     0.83512   0.14621   0.42308   0.00000  Uiso   1.00
C419   C     0.78984   0.06284   0.46459   0.00000  Uiso   1.00
C420   C     0.97978   0.37737   0.43053   0.00000  Uiso   1.00
C421   C     0.95842   0.43065   0.43457   0.00000  Uiso   1.00
C422   C     0.00125   0.50058   0.49057   0.00000  Uiso   1.00
C423   C     0.05215   0.62230   0.57110   0.00000  Uiso   1.00
C424   C     0.00333   0.28980   0.34857   0.00000  Uiso   1.00
C425   C     0.00179   0.26947   0.28370   0.00000  Uiso   1.00
C426   C     0.06445   0.26569   0.27070   0.00000  Uiso   1.00
C427   C     0.15192   0.25145   0.22398   0.00000  Uiso   1.00
C428   C     0.05497   0.32687   0.46600   0.00000  Uiso   1.00
C429   C     0.97979   0.26128   0.45548   0.00000  Uiso   1.00
C430   C     0.97059   0.22008   0.49033   0.00000  Uiso   1.00
C431   C     0.89717   0.16224   0.47328   0.00000  Uiso   1.00
C432   C     0.04171   0.39337   0.48063   0.00000  Uiso   1.00
C433   C     0.08459   0.46324   0.53664   0.00000  Uiso   1.00
C434   C     0.06330   0.51661   0.54077   0.00000  Uiso   1.00
C435   C     0.06527   0.30580   0.39867   0.00000  Uiso   1.00
C436   C     0.12795   0.30206   0.38577   0.00000  Uiso   1.00
C437   C     0.12650   0.28172   0.32090   0.00000  Uiso   1.00
H438   H     0.89272   0.28497   0.33473   0.00000  Uiso   1.00
H439   H     0.79651   0.17513   0.34948   0.00000  Uiso   1.00
H440   H     0.91050   0.41826   0.39578   0.00000  Uiso   1.00
H441   H     0.95385   0.25710   0.24494   0.00000  Uiso   1.00
H442   H     0.71715   0.06043   0.38795   0.00000  Uiso   1.00
H443   H     0.95751   0.57308   0.48556   0.00000  Uiso   1.00
H444   H     0.04893   0.23325   0.16747   0.00000  Uiso   1.00
H445   H     0.10319   0.33933   0.50501   0.00000  Uiso   1.00
H446   H     0.01853   0.23247   0.52911   0.00000  Uiso   1.00
H447   H     0.13251   0.47560   0.57540   0.00000  Uiso   1.00
H448   H     0.17587   0.31444   0.42456   0.00000  Uiso   1.00
H449   H     0.89735   0.10697   0.53374   0.00000  Uiso   1.00
H450   H     0.13771   0.61962   0.63135   0.00000  Uiso   1.00
H451   H     0.22913   0.27979   0.31326   0.00000  Uiso   1.00
O452   O     0.74776   0.01244   0.47364   0.00000  Uiso   1.00
O453   O     0.06310   0.68502   0.60169   0.00000  Uiso   1.00
O454   O     0.18305   0.23916   0.18437   0.00000  Uiso   1.00
N455   N     0.77119   0.08603   0.41895   0.00000  Uiso   1.00
N456   N     0.99590   0.56533   0.51021   0.00000  Uiso   1.00
N457   N     0.08138   0.24764   0.21283   0.00000  Uiso   1.00
N458   N     0.86815   0.11108   0.49740   0.00000  Uiso   1.00
N459   N     0.09286   0.59038   0.58866   0.00000  Uiso   1.00
N460   N     0.17834   0.27268   0.29128   0.00000  Uiso   1.00
C461   C     0.32678   0.06121   0.51124   0.00000  Uiso   1.00
C462   C     0.38860   0.06821   0.48027   0.00000  Uiso   1.00
C463   C     0.42509   0.02632   0.47320   0.00000  Uiso   1.00
C464   C     0.48005   0.04117   0.44359   0.00000  Uiso   1.00
C465   C     0.57336   0.04373   0.39885   0.00000  Uiso   1.00
C466   C     0.35606   0.13967   0.56731   0.00000  Uiso   1.00
C467   C     0.36517   0.15786   0.63341   0.00000  Uiso   1.00
C468   C     0.39272   0.23287   0.67706   0.00000  Uiso   1.00
C469   C     0.43545   0.34637   0.76743   0.00000  Uiso   1.00
C470   C     0.25812   0.04488   0.45872   0.00000  Uiso   1.00
C471   C     0.18488   0.98339   0.43353   0.00000  Uiso   1.00
C472   C     0.12997   0.97861   0.38577   0.00000  Uiso   1.00
C473   C     0.02064   0.94494   0.30754   0.00000  Uiso   1.00
C474   C     0.35950   0.16208   0.47123   0.00000  Uiso   1.00
C475   C     0.40637   0.12300   0.45855   0.00000  Uiso   1.00
C476   C     0.46129   0.13792   0.42894   0.00000  Uiso   1.00
C477   C     0.49785   0.09606   0.42182   0.00000  Uiso   1.00
C478   C     0.37383   0.19446   0.54558   0.00000  Uiso   1.00
C479   C     0.40137   0.26946   0.58915   0.00000  Uiso   1.00
C480   C     0.41052   0.28776   0.65529   0.00000  Uiso   1.00
C481   C     0.27589   0.09967   0.43699   0.00000  Uiso   1.00
C482   C     0.22108   0.09499   0.38927   0.00000  Uiso   1.00
C483   C     0.14777   0.03350   0.36400   0.00000  Uiso   1.00
H484   H     0.31295   0.01856   0.52816   0.00000  Uiso   1.00
H485   H     0.41133   0.98393   0.49003   0.00000  Uiso   1.00
H486   H     0.35140   0.11545   0.65020   0.00000  Uiso   1.00
H487   H     0.17115   0.94100   0.45035   0.00000  Uiso   1.00
H488   H     0.52825   0.96971   0.43819   0.00000  Uiso   1.00
H489   H     0.40188   0.24703   0.77593   0.00000  Uiso   1.00
H490   H     0.02177   0.87918   0.35451   0.00000  Uiso   1.00
H491   H     0.37334   0.20474   0.45432   0.00000  Uiso   1.00
H492   H     0.47503   0.18033   0.41213   0.00000  Uiso   1.00
H493   H     0.41511   0.31185   0.57231   0.00000  Uiso   1.00
H494   H     0.23485   0.13740   0.37246   0.00000  Uiso   1.00
H495   H     0.57996   0.12912   0.37497   0.00000  Uiso   1.00
H496   H     0.45358   0.40643   0.71272   0.00000  Uiso   1.00
H497   H     0.07348   0.03858   0.29129   0.00000  Uiso   1.00
O498   O     0.61993   0.03001   0.38018   0.00000  Uiso   1.00
O499   O     0.45411   0.39383   0.82328   0.00000  Uiso   1.00
O500   O     0.95543   0.91122   0.27039   0.00000  Uiso   1.00
N501   N     0.52645   0.01057   0.42909   0.00000  Uiso   1.00
N502   N     0.40831   0.26984   0.74486   0.00000  Uiso   1.00
N503   N     0.05294   0.92595   0.35088   0.00000  Uiso   1.00
N504   N     0.55428   0.09635   0.39507   0.00000  Uiso   1.00
N505   N     0.43614   0.35562   0.71084   0.00000  Uiso   1.00
N506   N     0.08076   0.01172   0.31686   0.00000  Uiso   1.00
C507   C     0.72431   0.70718   0.40488   0.00000  Uiso   1.00
C508   C     0.66687   0.73290   0.41815   0.00000  Uiso   1.00
C509   C     0.67049   0.79773   0.41922   0.00000  Uiso   1.00
C510   C     0.61241   0.81129   0.43231   0.00000  Uiso   1.00
C511   C     0.53231   0.85877   0.45119   0.00000  Uiso   1.00
C512   C     0.75267   0.69813   0.46478   0.00000  Uiso   1.00
C513   C     0.82843   0.73371   0.50504   0.00000  Uiso   1.00
C514   C     0.84257   0.71799   0.55737   0.00000  Uiso   1.00
C515   C     0.89567   0.71145   0.64861   0.00000  Uiso   1.00
C516   C     0.67829   0.62802   0.34632   0.00000  Uiso   1.00
C517   C     0.69152   0.60466   0.28699   0.00000  Uiso   1.00
C518   C     0.64305   0.52990   0.23959   0.00000  Uiso   1.00
C519   C     0.58066   0.41452   0.14691   0.00000  Uiso   1.00
C520   C     0.61472   0.61598   0.42620   0.00000  Uiso   1.00
C521   C     0.60735   0.68336   0.42974   0.00000  Uiso   1.00
C522   C     0.54925   0.69682   0.44282   0.00000  Uiso   1.00
C523   C     0.55278   0.76166   0.44391   0.00000  Uiso   1.00
C524   C     0.69315   0.64859   0.47636   0.00000  Uiso   1.00
C525   C     0.70719   0.63280   0.52864   0.00000  Uiso   1.00
C526   C     0.78295   0.66836   0.56897   0.00000  Uiso   1.00
C527   C     0.61876   0.57848   0.35790   0.00000  Uiso   1.00
C528   C     0.57027   0.50375   0.31059   0.00000  Uiso   1.00
C529   C     0.58342   0.48027   0.25120   0.00000  Uiso   1.00
H530   H     0.77065   0.74575   0.39586   0.00000  Uiso   1.00
H531   H     0.71657   0.83606   0.41026   0.00000  Uiso   1.00
H532   H     0.87448   0.77204   0.49606   0.00000  Uiso   1.00
H533   H     0.73759   0.64301   0.27804   0.00000  Uiso   1.00
H534   H     0.63038   0.91434   0.43136   0.00000  Uiso   1.00
H535   H     0.96334   0.77935   0.61226   0.00000  Uiso   1.00
H536   H     0.67468   0.50725   0.15253   0.00000  Uiso   1.00
H537   H     0.56838   0.57740   0.43522   0.00000  Uiso   1.00
H538   H     0.50320   0.65847   0.45178   0.00000  Uiso   1.00
H539   H     0.66111   0.59446   0.53758   0.00000  Uiso   1.00
H540   H     0.52422   0.46543   0.31957   0.00000  Uiso   1.00
H541   H     0.45720   0.77021   0.46507   0.00000  Uiso   1.00
H542   H     0.79017   0.63521   0.64596   0.00000  Uiso   1.00
H543   H     0.50150   0.36312   0.18623   0.00000  Uiso   1.00
O544   O     0.50457   0.89866   0.45842   0.00000  Uiso   1.00
O545   O     0.94141   0.72153   0.69574   0.00000  Uiso   1.00
O546   O     0.56269   0.36456   0.09259   0.00000  Uiso   1.00
N547   N     0.59855   0.86929   0.43701   0.00000  Uiso   1.00
N548   N     0.90986   0.74308   0.60614   0.00000  Uiso   1.00
N549   N     0.63999   0.48869   0.17634   0.00000  Uiso   1.00
N550   N     0.50537   0.79173   0.45514   0.00000  Uiso   1.00
N551   N     0.81667   0.66553   0.62428   0.00000  Uiso   1.00
N552   N     0.54681   0.41114   0.19448   0.00000  Uiso   1.00
