data_job_05138
_audit_creation_date              2018-12-19
_audit_creation_method            'Materials Studio'
_symmetry_space_group_name_H-M    'P1'
_symmetry_Int_Tables_number       1
_symmetry_cell_setting            triclinic
loop_
_symmetry_equiv_pos_as_xyz
  x,y,z
_cell_length_a                    12.4770
_cell_length_b                    30.7967
_cell_length_c                    18.2908
_cell_angle_alpha                 90.0000
_cell_angle_beta                  137.4860
_cell_angle_gamma                 90.0000
loop_
_atom_site_label
_atom_site_type_symbol
_atom_site_fract_x
_atom_site_fract_y
_atom_site_fract_z
_atom_site_U_iso_or_equiv
_atom_site_adp_type
_atom_site_occupancy
C1     C     0.33420   0.87552   0.46365   0.00000  Uiso   1.00
C2     C     0.50783   0.86199   0.54591   0.00000  Uiso   1.00
C3     C     0.57944   0.84245   0.52205   0.00000  Uiso   1.00
C4     C     0.73957   0.83259   0.60873   0.00000  Uiso   1.00
C5     C     0.99621   0.81017   0.72022   0.00000  Uiso   1.00
C6     C     0.33490   0.92383   0.48234   0.00000  Uiso   1.00
C7     C     0.26110   0.95627   0.40503   0.00000  Uiso   1.00
C8     C     0.27564   0.99847   0.43821   0.00000  Uiso   1.00
C9     C     0.26371   0.07205   0.45099   0.00000  Uiso   1.00
C10    C     0.26748   0.85258   0.49728   0.00000  Uiso   1.00
C11    C     0.13696   0.82513   0.43252   0.00000  Uiso   1.00
C12    C     0.09471   0.80736   0.47827   0.00000  Uiso   1.00
C13    C     0.97811   0.77032   0.51425   0.00000  Uiso   1.00
C14    C     0.49123   0.89278   0.66002   0.00000  Uiso   1.00
C15    C     0.59312   0.87137   0.65257   0.00000  Uiso   1.00
C16    C     0.75318   0.86154   0.73931   0.00000  Uiso   1.00
C17    C     0.82501   0.84198   0.71559   0.00000  Uiso   1.00
C18    C     0.42019   0.93320   0.58900   0.00000  Uiso   1.00
C19    C     0.43483   0.97536   0.62229   0.00000  Uiso   1.00
C20    C     0.36108   0.00786   0.54506   0.00000  Uiso   1.00
C21    C     0.35277   0.86196   0.60394   0.00000  Uiso   1.00
C22    C     0.31071   0.84422   0.64979   0.00000  Uiso   1.00
C23    C     0.18016   0.81675   0.58512   0.00000  Uiso   1.00
H24    H     0.26779   0.86823   0.38061   0.00000  Uiso   1.00
H25    H     0.51340   0.83520   0.43949   0.00000  Uiso   1.00
H26    H     0.19509   0.94901   0.32249   0.00000  Uiso   1.00
H27    H     0.07099   0.81789   0.34999   0.00000  Uiso   1.00
H28    H     0.82332   0.80273   0.55181   0.00000  Uiso   1.00
H29    H     0.15211   0.04269   0.30510   0.00000  Uiso   1.00
H30    H     0.89040   0.76620   0.36307   0.00000  Uiso   1.00
H31    H     0.55763   0.90008   0.74307   0.00000  Uiso   1.00
H32    H     0.81915   0.86879   0.82184   0.00000  Uiso   1.00
H33    H     0.50084   0.98260   0.70484   0.00000  Uiso   1.00
H34    H     0.37674   0.85148   0.73233   0.00000  Uiso   1.00
H35    H     0.07148   0.83000   0.86214   0.00000  Uiso   1.00
H36    H     0.40026   0.06996   0.61543   0.00000  Uiso   1.00
H37    H     0.13856   0.79347   0.67340   0.00000  Uiso   1.00
O38    O     0.11422   0.79522   0.75225   0.00000  Uiso   1.00
O39    O     0.23359   0.11004   0.42857   0.00000  Uiso   1.00
O40    O     0.89024   0.74729   0.50463   0.00000  Uiso   1.00
N41    N     0.84583   0.81343   0.61404   0.00000  Uiso   1.00
N42    N     0.21831   0.03779   0.38338   0.00000  Uiso   1.00
N43    N     0.97361   0.77930   0.43757   0.00000  Uiso   1.00
N44    N     0.97936   0.82810   0.78102   0.00000  Uiso   1.00
N45    N     0.35184   0.05246   0.55037   0.00000  Uiso   1.00
N46    N     0.10714   0.79397   0.60456   0.00000  Uiso   1.00
C47    C     0.10017   0.62499   0.46751   0.00000  Uiso   1.00
C48    C     0.12526   0.63060   0.56215   0.00000  Uiso   1.00
C49    C     0.03208   0.65560   0.56155   0.00000  Uiso   1.00
C50    C     0.07461   0.65651   0.65624   0.00000  Uiso   1.00
C51    C     0.09358   0.66874   0.78919   0.00000  Uiso   1.00
C52    C     0.08539   0.57625   0.44708   0.00000  Uiso   1.00
C53    C     0.95869   0.55556   0.34972   0.00000  Uiso   1.00
C54    C     0.96767   0.51072   0.34755   0.00000  Uiso   1.00
C55    C     0.92480   0.43857   0.30183   0.00000  Uiso   1.00
C56    C     0.25517   0.63876   0.50929   0.00000  Uiso   1.00
C57    C     0.27123   0.67063   0.46422   0.00000  Uiso   1.00
C58    C     0.42315   0.67841   0.51441   0.00000  Uiso   1.00
C59    C     0.64389   0.70333   0.56528   0.00000  Uiso   1.00
C60    C     0.34141   0.58215   0.63677   0.00000  Uiso   1.00
C61    C     0.25629   0.60733   0.65408   0.00000  Uiso   1.00
C62    C     0.29898   0.60820   0.74881   0.00000  Uiso   1.00
C63    C     0.20588   0.63320   0.74835   0.00000  Uiso   1.00
C64    C     0.21642   0.55298   0.53901   0.00000  Uiso   1.00
C65    C     0.22559   0.50816   0.53698   0.00000  Uiso   1.00
C66    C     0.09894   0.48740   0.43965   0.00000  Uiso   1.00
C67    C     0.38621   0.61549   0.60122   0.00000  Uiso   1.00
C68    C     0.53813   0.62323   0.65149   0.00000  Uiso   1.00
C69    C     0.55442   0.65510   0.60651   0.00000  Uiso   1.00
H70    H     0.99816   0.64311   0.39593   0.00000  Uiso   1.00
H71    H     0.93067   0.67361   0.49038   0.00000  Uiso   1.00
H72    H     0.85732   0.57358   0.27859   0.00000  Uiso   1.00
H73    H     0.16980   0.68863   0.39308   0.00000  Uiso   1.00
H74    H     0.91361   0.69714   0.63562   0.00000  Uiso   1.00
H75    H     0.75895   0.48623   0.18903   0.00000  Uiso   1.00
H76    H     0.41789   0.72884   0.43045   0.00000  Uiso   1.00
H77    H     0.44343   0.56403   0.70834   0.00000  Uiso   1.00
H78    H     0.40038   0.59019   0.81994   0.00000  Uiso   1.00
H79    H     0.32702   0.49016   0.60814   0.00000  Uiso   1.00
H80    H     0.63950   0.60521   0.72263   0.00000  Uiso   1.00
H81    H     0.29484   0.62944   0.90310   0.00000  Uiso   1.00
H82    H     0.14017   0.41852   0.45651   0.00000  Uiso   1.00
H83    H     0.79912   0.66113   0.69793   0.00000  Uiso   1.00
O84    O     0.06784   0.68191   0.83712   0.00000  Uiso   1.00
O85    O     0.86494   0.40521   0.25121   0.00000  Uiso   1.00
O86    O     0.72946   0.72350   0.56795   0.00000  Uiso   1.00
N87    N     0.00926   0.67762   0.68327   0.00000  Uiso   1.00
N88    N     0.86465   0.48043   0.26573   0.00000  Uiso   1.00
N89    N     0.48069   0.70724   0.49142   0.00000  Uiso   1.00
N90    N     0.21439   0.64119   0.82720   0.00000  Uiso   1.00
N91    N     0.06978   0.44400   0.40966   0.00000  Uiso   1.00
N92    N     0.68583   0.67081   0.63535   0.00000  Uiso   1.00
C93    C     0.83420   0.37552   0.46365   0.00000  Uiso   1.00
C94    C     0.00783   0.36199   0.54591   0.00000  Uiso   1.00
C95    C     0.07944   0.34245   0.52205   0.00000  Uiso   1.00
C96    C     0.23957   0.33259   0.60873   0.00000  Uiso   1.00
C97    C     0.49621   0.31017   0.72022   0.00000  Uiso   1.00
C98    C     0.83490   0.42383   0.48234   0.00000  Uiso   1.00
C99    C     0.76110   0.45627   0.40503   0.00000  Uiso   1.00
C100   C     0.77564   0.49847   0.43821   0.00000  Uiso   1.00
C101   C     0.76371   0.57205   0.45099   0.00000  Uiso   1.00
C102   C     0.76748   0.35258   0.49728   0.00000  Uiso   1.00
C103   C     0.63696   0.32513   0.43252   0.00000  Uiso   1.00
C104   C     0.59471   0.30736   0.47827   0.00000  Uiso   1.00
C105   C     0.47811   0.27032   0.51425   0.00000  Uiso   1.00
C106   C     0.99123   0.39278   0.66002   0.00000  Uiso   1.00
C107   C     0.09312   0.37137   0.65257   0.00000  Uiso   1.00
C108   C     0.25318   0.36154   0.73931   0.00000  Uiso   1.00
C109   C     0.32501   0.34198   0.71559   0.00000  Uiso   1.00
C110   C     0.92019   0.43320   0.58900   0.00000  Uiso   1.00
C111   C     0.93483   0.47536   0.62229   0.00000  Uiso   1.00
C112   C     0.86108   0.50786   0.54506   0.00000  Uiso   1.00
C113   C     0.85277   0.36196   0.60394   0.00000  Uiso   1.00
C114   C     0.81071   0.34422   0.64979   0.00000  Uiso   1.00
C115   C     0.68016   0.31675   0.58512   0.00000  Uiso   1.00
H116   H     0.76779   0.36823   0.38061   0.00000  Uiso   1.00
H117   H     0.01340   0.33520   0.43949   0.00000  Uiso   1.00
H118   H     0.69509   0.44901   0.32249   0.00000  Uiso   1.00
H119   H     0.57099   0.31789   0.34999   0.00000  Uiso   1.00
H120   H     0.32332   0.30273   0.55181   0.00000  Uiso   1.00
H121   H     0.65211   0.54269   0.30510   0.00000  Uiso   1.00
H122   H     0.39040   0.26620   0.36307   0.00000  Uiso   1.00
H123   H     0.05763   0.40008   0.74307   0.00000  Uiso   1.00
H124   H     0.31915   0.36879   0.82184   0.00000  Uiso   1.00
H125   H     0.00084   0.48260   0.70484   0.00000  Uiso   1.00
H126   H     0.87674   0.35148   0.73233   0.00000  Uiso   1.00
H127   H     0.57148   0.33000   0.86214   0.00000  Uiso   1.00
H128   H     0.90026   0.56996   0.61543   0.00000  Uiso   1.00
H129   H     0.63856   0.29347   0.67340   0.00000  Uiso   1.00
O130   O     0.61422   0.29522   0.75225   0.00000  Uiso   1.00
O131   O     0.73359   0.61004   0.42857   0.00000  Uiso   1.00
O132   O     0.39024   0.24729   0.50463   0.00000  Uiso   1.00
N133   N     0.34583   0.31343   0.61404   0.00000  Uiso   1.00
N134   N     0.71831   0.53779   0.38338   0.00000  Uiso   1.00
N135   N     0.47361   0.27930   0.43757   0.00000  Uiso   1.00
N136   N     0.47936   0.32810   0.78102   0.00000  Uiso   1.00
N137   N     0.85184   0.55246   0.55037   0.00000  Uiso   1.00
N138   N     0.60714   0.29397   0.60456   0.00000  Uiso   1.00
C139   C     0.60017   0.12499   0.46751   0.00000  Uiso   1.00
C140   C     0.62526   0.13060   0.56215   0.00000  Uiso   1.00
C141   C     0.53208   0.15560   0.56155   0.00000  Uiso   1.00
C142   C     0.57461   0.15651   0.65624   0.00000  Uiso   1.00
C143   C     0.59358   0.16874   0.78919   0.00000  Uiso   1.00
C144   C     0.58539   0.07625   0.44708   0.00000  Uiso   1.00
C145   C     0.45869   0.05556   0.34972   0.00000  Uiso   1.00
C146   C     0.46767   0.01072   0.34755   0.00000  Uiso   1.00
C147   C     0.42480   0.93857   0.30183   0.00000  Uiso   1.00
C148   C     0.75517   0.13876   0.50929   0.00000  Uiso   1.00
C149   C     0.77123   0.17063   0.46422   0.00000  Uiso   1.00
C150   C     0.92315   0.17841   0.51441   0.00000  Uiso   1.00
C151   C     0.14389   0.20333   0.56528   0.00000  Uiso   1.00
C152   C     0.84141   0.08215   0.63677   0.00000  Uiso   1.00
C153   C     0.75629   0.10733   0.65408   0.00000  Uiso   1.00
C154   C     0.79898   0.10820   0.74881   0.00000  Uiso   1.00
C155   C     0.70588   0.13320   0.74835   0.00000  Uiso   1.00
C156   C     0.71642   0.05298   0.53901   0.00000  Uiso   1.00
C157   C     0.72559   0.00816   0.53698   0.00000  Uiso   1.00
C158   C     0.59894   0.98740   0.43965   0.00000  Uiso   1.00
C159   C     0.88621   0.11549   0.60122   0.00000  Uiso   1.00
C160   C     0.03813   0.12323   0.65149   0.00000  Uiso   1.00
C161   C     0.05442   0.15510   0.60651   0.00000  Uiso   1.00
H162   H     0.49816   0.14311   0.39593   0.00000  Uiso   1.00
H163   H     0.43067   0.17361   0.49038   0.00000  Uiso   1.00
H164   H     0.35732   0.07358   0.27859   0.00000  Uiso   1.00
H165   H     0.66980   0.18863   0.39308   0.00000  Uiso   1.00
H166   H     0.41361   0.19714   0.63562   0.00000  Uiso   1.00
H167   H     0.25895   0.98623   0.18903   0.00000  Uiso   1.00
H168   H     0.91789   0.22884   0.43045   0.00000  Uiso   1.00
H169   H     0.94343   0.06403   0.70834   0.00000  Uiso   1.00
H170   H     0.90038   0.09019   0.81994   0.00000  Uiso   1.00
H171   H     0.82702   0.99016   0.60814   0.00000  Uiso   1.00
H172   H     0.13950   0.10521   0.72263   0.00000  Uiso   1.00
H173   H     0.79484   0.12944   0.90310   0.00000  Uiso   1.00
H174   H     0.64017   0.91852   0.45651   0.00000  Uiso   1.00
H175   H     0.29912   0.16113   0.69793   0.00000  Uiso   1.00
O176   O     0.56784   0.18191   0.83712   0.00000  Uiso   1.00
O177   O     0.36494   0.90521   0.25121   0.00000  Uiso   1.00
O178   O     0.22946   0.22350   0.56795   0.00000  Uiso   1.00
N179   N     0.50926   0.17762   0.68327   0.00000  Uiso   1.00
N180   N     0.36465   0.98043   0.26573   0.00000  Uiso   1.00
N181   N     0.98069   0.20724   0.49142   0.00000  Uiso   1.00
N182   N     0.71439   0.14119   0.82720   0.00000  Uiso   1.00
N183   N     0.56978   0.94400   0.40966   0.00000  Uiso   1.00
N184   N     0.18583   0.17081   0.63535   0.00000  Uiso   1.00
C185   C     0.33420   0.12448   0.96365   0.00000  Uiso   1.00
C186   C     0.50783   0.13801   0.04591   0.00000  Uiso   1.00
C187   C     0.57944   0.15755   0.02205   0.00000  Uiso   1.00
C188   C     0.73957   0.16741   0.10873   0.00000  Uiso   1.00
C189   C     0.99621   0.18983   0.22022   0.00000  Uiso   1.00
C190   C     0.33490   0.07617   0.98234   0.00000  Uiso   1.00
C191   C     0.26110   0.04373   0.90503   0.00000  Uiso   1.00
C192   C     0.27564   0.00153   0.93821   0.00000  Uiso   1.00
C193   C     0.26371   0.92795   0.95099   0.00000  Uiso   1.00
C194   C     0.26748   0.14742   0.99728   0.00000  Uiso   1.00
C195   C     0.13696   0.17487   0.93252   0.00000  Uiso   1.00
C196   C     0.09471   0.19264   0.97827   0.00000  Uiso   1.00
C197   C     0.97811   0.22968   0.01425   0.00000  Uiso   1.00
C198   C     0.49123   0.10722   0.16002   0.00000  Uiso   1.00
C199   C     0.59312   0.12863   0.15257   0.00000  Uiso   1.00
C200   C     0.75318   0.13846   0.23931   0.00000  Uiso   1.00
C201   C     0.82501   0.15802   0.21559   0.00000  Uiso   1.00
C202   C     0.42019   0.06680   0.08900   0.00000  Uiso   1.00
C203   C     0.43483   0.02464   0.12229   0.00000  Uiso   1.00
C204   C     0.36108   0.99214   0.04506   0.00000  Uiso   1.00
C205   C     0.35277   0.13804   0.10394   0.00000  Uiso   1.00
C206   C     0.31071   0.15578   0.14979   0.00000  Uiso   1.00
C207   C     0.18016   0.18325   0.08512   0.00000  Uiso   1.00
H208   H     0.26779   0.13177   0.88061   0.00000  Uiso   1.00
H209   H     0.51340   0.16480   0.93949   0.00000  Uiso   1.00
H210   H     0.19509   0.05099   0.82249   0.00000  Uiso   1.00
H211   H     0.07099   0.18211   0.84999   0.00000  Uiso   1.00
H212   H     0.82332   0.19727   0.05181   0.00000  Uiso   1.00
H213   H     0.15211   0.95731   0.80510   0.00000  Uiso   1.00
H214   H     0.89040   0.23380   0.86307   0.00000  Uiso   1.00
H215   H     0.55763   0.09992   0.24307   0.00000  Uiso   1.00
H216   H     0.81915   0.13121   0.32184   0.00000  Uiso   1.00
H217   H     0.50084   0.01740   0.20484   0.00000  Uiso   1.00
H218   H     0.37674   0.14852   0.23233   0.00000  Uiso   1.00
H219   H     0.07148   0.17000   0.36214   0.00000  Uiso   1.00
H220   H     0.40026   0.93004   0.11543   0.00000  Uiso   1.00
H221   H     0.13856   0.20653   0.17340   0.00000  Uiso   1.00
O222   O     0.11422   0.20478   0.25225   0.00000  Uiso   1.00
O223   O     0.23359   0.88996   0.92857   0.00000  Uiso   1.00
O224   O     0.89024   0.25271   0.00463   0.00000  Uiso   1.00
N225   N     0.84583   0.18657   0.11404   0.00000  Uiso   1.00
N226   N     0.21831   0.96221   0.88338   0.00000  Uiso   1.00
N227   N     0.97361   0.22070   0.93757   0.00000  Uiso   1.00
N228   N     0.97936   0.17190   0.28102   0.00000  Uiso   1.00
N229   N     0.35184   0.94754   0.05037   0.00000  Uiso   1.00
N230   N     0.10714   0.20603   0.10456   0.00000  Uiso   1.00
C231   C     0.10017   0.37501   0.96751   0.00000  Uiso   1.00
C232   C     0.12526   0.36940   0.06215   0.00000  Uiso   1.00
C233   C     0.03208   0.34440   0.06155   0.00000  Uiso   1.00
C234   C     0.07461   0.34349   0.15624   0.00000  Uiso   1.00
C235   C     0.09358   0.33126   0.28919   0.00000  Uiso   1.00
C236   C     0.08539   0.42375   0.94708   0.00000  Uiso   1.00
C237   C     0.95869   0.44444   0.84972   0.00000  Uiso   1.00
C238   C     0.96767   0.48928   0.84755   0.00000  Uiso   1.00
C239   C     0.92480   0.56143   0.80183   0.00000  Uiso   1.00
C240   C     0.25517   0.36124   0.00929   0.00000  Uiso   1.00
C241   C     0.27123   0.32937   0.96422   0.00000  Uiso   1.00
C242   C     0.42315   0.32159   0.01441   0.00000  Uiso   1.00
C243   C     0.64389   0.29667   0.06528   0.00000  Uiso   1.00
C244   C     0.34141   0.41785   0.13677   0.00000  Uiso   1.00
C245   C     0.25629   0.39267   0.15408   0.00000  Uiso   1.00
C246   C     0.29898   0.39180   0.24881   0.00000  Uiso   1.00
C247   C     0.20588   0.36680   0.24835   0.00000  Uiso   1.00
C248   C     0.21642   0.44702   0.03901   0.00000  Uiso   1.00
C249   C     0.22559   0.49184   0.03698   0.00000  Uiso   1.00
C250   C     0.09894   0.51260   0.93965   0.00000  Uiso   1.00
C251   C     0.38621   0.38451   0.10122   0.00000  Uiso   1.00
C252   C     0.53813   0.37677   0.15149   0.00000  Uiso   1.00
C253   C     0.55442   0.34490   0.10651   0.00000  Uiso   1.00
H254   H     0.99816   0.35689   0.89593   0.00000  Uiso   1.00
H255   H     0.93067   0.32639   0.99038   0.00000  Uiso   1.00
H256   H     0.85732   0.42642   0.77859   0.00000  Uiso   1.00
H257   H     0.16980   0.31137   0.89308   0.00000  Uiso   1.00
H258   H     0.91361   0.30286   0.13562   0.00000  Uiso   1.00
H259   H     0.75895   0.51377   0.68903   0.00000  Uiso   1.00
H260   H     0.41789   0.27116   0.93045   0.00000  Uiso   1.00
H261   H     0.44343   0.43597   0.20834   0.00000  Uiso   1.00
H262   H     0.40038   0.40981   0.31994   0.00000  Uiso   1.00
H263   H     0.32702   0.50984   0.10814   0.00000  Uiso   1.00
H264   H     0.63950   0.39479   0.22263   0.00000  Uiso   1.00
H265   H     0.29484   0.37056   0.40310   0.00000  Uiso   1.00
H266   H     0.14017   0.58148   0.95651   0.00000  Uiso   1.00
H267   H     0.79912   0.33887   0.19793   0.00000  Uiso   1.00
O268   O     0.06784   0.31809   0.33712   0.00000  Uiso   1.00
O269   O     0.86494   0.59479   0.75121   0.00000  Uiso   1.00
O270   O     0.72946   0.27650   0.06795   0.00000  Uiso   1.00
N271   N     0.00926   0.32238   0.18327   0.00000  Uiso   1.00
N272   N     0.86465   0.51957   0.76573   0.00000  Uiso   1.00
N273   N     0.48069   0.29276   0.99142   0.00000  Uiso   1.00
N274   N     0.21439   0.35881   0.32720   0.00000  Uiso   1.00
N275   N     0.06978   0.55600   0.90966   0.00000  Uiso   1.00
N276   N     0.68583   0.32919   0.13535   0.00000  Uiso   1.00
C277   C     0.83420   0.62448   0.96365   0.00000  Uiso   1.00
C278   C     0.00783   0.63801   0.04591   0.00000  Uiso   1.00
C279   C     0.07944   0.65755   0.02205   0.00000  Uiso   1.00
C280   C     0.23957   0.66741   0.10873   0.00000  Uiso   1.00
C281   C     0.49621   0.68983   0.22022   0.00000  Uiso   1.00
C282   C     0.83490   0.57617   0.98234   0.00000  Uiso   1.00
C283   C     0.76110   0.54373   0.90503   0.00000  Uiso   1.00
C284   C     0.77564   0.50153   0.93821   0.00000  Uiso   1.00
C285   C     0.76371   0.42795   0.95099   0.00000  Uiso   1.00
C286   C     0.76748   0.64742   0.99728   0.00000  Uiso   1.00
C287   C     0.63696   0.67487   0.93252   0.00000  Uiso   1.00
C288   C     0.59471   0.69264   0.97827   0.00000  Uiso   1.00
C289   C     0.47811   0.72968   0.01425   0.00000  Uiso   1.00
C290   C     0.99123   0.60722   0.16002   0.00000  Uiso   1.00
C291   C     0.09312   0.62863   0.15257   0.00000  Uiso   1.00
C292   C     0.25318   0.63846   0.23931   0.00000  Uiso   1.00
C293   C     0.32501   0.65802   0.21559   0.00000  Uiso   1.00
C294   C     0.92019   0.56680   0.08900   0.00000  Uiso   1.00
C295   C     0.93483   0.52464   0.12229   0.00000  Uiso   1.00
C296   C     0.86108   0.49214   0.04506   0.00000  Uiso   1.00
C297   C     0.85277   0.63804   0.10394   0.00000  Uiso   1.00
C298   C     0.81071   0.65578   0.14979   0.00000  Uiso   1.00
C299   C     0.68016   0.68325   0.08512   0.00000  Uiso   1.00
H300   H     0.76779   0.63177   0.88061   0.00000  Uiso   1.00
H301   H     0.01340   0.66480   0.93949   0.00000  Uiso   1.00
H302   H     0.69509   0.55099   0.82249   0.00000  Uiso   1.00
H303   H     0.57099   0.68211   0.84999   0.00000  Uiso   1.00
H304   H     0.32332   0.69727   0.05181   0.00000  Uiso   1.00
H305   H     0.65211   0.45731   0.80510   0.00000  Uiso   1.00
H306   H     0.39040   0.73380   0.86307   0.00000  Uiso   1.00
H307   H     0.05763   0.59992   0.24307   0.00000  Uiso   1.00
H308   H     0.31915   0.63121   0.32184   0.00000  Uiso   1.00
H309   H     0.00084   0.51740   0.20484   0.00000  Uiso   1.00
H310   H     0.87674   0.64852   0.23233   0.00000  Uiso   1.00
H311   H     0.57148   0.67000   0.36214   0.00000  Uiso   1.00
H312   H     0.90026   0.43004   0.11543   0.00000  Uiso   1.00
H313   H     0.63856   0.70653   0.17340   0.00000  Uiso   1.00
O314   O     0.61422   0.70478   0.25225   0.00000  Uiso   1.00
O315   O     0.73359   0.38996   0.92857   0.00000  Uiso   1.00
O316   O     0.39024   0.75271   0.00463   0.00000  Uiso   1.00
N317   N     0.34583   0.68657   0.11404   0.00000  Uiso   1.00
N318   N     0.71831   0.46221   0.88338   0.00000  Uiso   1.00
N319   N     0.47361   0.72070   0.93757   0.00000  Uiso   1.00
N320   N     0.47936   0.67190   0.28102   0.00000  Uiso   1.00
N321   N     0.85184   0.44754   0.05037   0.00000  Uiso   1.00
N322   N     0.60714   0.70603   0.10456   0.00000  Uiso   1.00
C323   C     0.60017   0.87501   0.96751   0.00000  Uiso   1.00
C324   C     0.62526   0.86940   0.06215   0.00000  Uiso   1.00
C325   C     0.53208   0.84440   0.06155   0.00000  Uiso   1.00
C326   C     0.57461   0.84349   0.15624   0.00000  Uiso   1.00
C327   C     0.59358   0.83126   0.28919   0.00000  Uiso   1.00
C328   C     0.58539   0.92375   0.94708   0.00000  Uiso   1.00
C329   C     0.45869   0.94444   0.84972   0.00000  Uiso   1.00
C330   C     0.46767   0.98928   0.84755   0.00000  Uiso   1.00
C331   C     0.42480   0.06143   0.80183   0.00000  Uiso   1.00
C332   C     0.75517   0.86124   0.00929   0.00000  Uiso   1.00
C333   C     0.77123   0.82937   0.96422   0.00000  Uiso   1.00
C334   C     0.92315   0.82159   0.01441   0.00000  Uiso   1.00
C335   C     0.14389   0.79667   0.06528   0.00000  Uiso   1.00
C336   C     0.84141   0.91785   0.13677   0.00000  Uiso   1.00
C337   C     0.75629   0.89267   0.15408   0.00000  Uiso   1.00
C338   C     0.79898   0.89180   0.24881   0.00000  Uiso   1.00
C339   C     0.70588   0.86680   0.24835   0.00000  Uiso   1.00
C340   C     0.71642   0.94702   0.03901   0.00000  Uiso   1.00
C341   C     0.72559   0.99184   0.03698   0.00000  Uiso   1.00
C342   C     0.59894   0.01260   0.93965   0.00000  Uiso   1.00
C343   C     0.88621   0.88451   0.10122   0.00000  Uiso   1.00
C344   C     0.03813   0.87677   0.15149   0.00000  Uiso   1.00
C345   C     0.05442   0.84490   0.10651   0.00000  Uiso   1.00
H346   H     0.49816   0.85689   0.89593   0.00000  Uiso   1.00
H347   H     0.43067   0.82639   0.99038   0.00000  Uiso   1.00
H348   H     0.35732   0.92642   0.77859   0.00000  Uiso   1.00
H349   H     0.66980   0.81137   0.89308   0.00000  Uiso   1.00
H350   H     0.41361   0.80286   0.13562   0.00000  Uiso   1.00
H351   H     0.25895   0.01377   0.68903   0.00000  Uiso   1.00
H352   H     0.91789   0.77116   0.93045   0.00000  Uiso   1.00
H353   H     0.94343   0.93597   0.20834   0.00000  Uiso   1.00
H354   H     0.90038   0.90981   0.31994   0.00000  Uiso   1.00
H355   H     0.82702   0.00984   0.10814   0.00000  Uiso   1.00
H356   H     0.13950   0.89479   0.22263   0.00000  Uiso   1.00
H357   H     0.79484   0.87056   0.40310   0.00000  Uiso   1.00
H358   H     0.64017   0.08148   0.95651   0.00000  Uiso   1.00
H359   H     0.29912   0.83887   0.19793   0.00000  Uiso   1.00
O360   O     0.56784   0.81809   0.33712   0.00000  Uiso   1.00
O361   O     0.36494   0.09479   0.75121   0.00000  Uiso   1.00
O362   O     0.22946   0.77650   0.06795   0.00000  Uiso   1.00
N363   N     0.50926   0.82238   0.18327   0.00000  Uiso   1.00
N364   N     0.36465   0.01957   0.76573   0.00000  Uiso   1.00
N365   N     0.98069   0.79276   0.99142   0.00000  Uiso   1.00
N366   N     0.71439   0.85881   0.32720   0.00000  Uiso   1.00
N367   N     0.56978   0.05600   0.90966   0.00000  Uiso   1.00
N368   N     0.18583   0.82919   0.13535   0.00000  Uiso   1.00
