data_job_03395
_audit_creation_date              2018-12-19
_audit_creation_method            'Materials Studio'
_symmetry_space_group_name_H-M    'P1'
_symmetry_Int_Tables_number       1
_symmetry_cell_setting            triclinic
loop_
_symmetry_equiv_pos_as_xyz
  x,y,z
_cell_length_a                    21.0561
_cell_length_b                    13.5333
_cell_length_c                    12.4241
_cell_angle_alpha                 90.0000
_cell_angle_beta                  60.4239
_cell_angle_gamma                 90.0000
loop_
_atom_site_label
_atom_site_type_symbol
_atom_site_fract_x
_atom_site_fract_y
_atom_site_fract_z
_atom_site_U_iso_or_equiv
_atom_site_adp_type
_atom_site_occupancy
C1     C     0.78868   0.44772   0.86819   0.00000  Uiso   1.00
C2     C     0.74195   0.50303   0.98908   0.00000  Uiso   1.00
C3     C     0.71489   0.46426   0.10712   0.00000  Uiso   1.00
C4     C     0.67325   0.52680   0.20583   0.00000  Uiso   1.00
C5     C     0.60280   0.59780   0.39640   0.00000  Uiso   1.00
C6     C     0.74818   0.45498   0.79511   0.00000  Uiso   1.00
C7     C     0.72636   0.37581   0.75006   0.00000  Uiso   1.00
C8     C     0.68997   0.39792   0.68546   0.00000  Uiso   1.00
C9     C     0.62924   0.39433   0.57482   0.00000  Uiso   1.00
C10    C     0.85820   0.50850   0.79665   0.00000  Uiso   1.00
C11    C     0.92890   0.47433   0.75285   0.00000  Uiso   1.00
C12    C     0.98514   0.54150   0.68951   0.00000  Uiso   1.00
C13    C     0.09523   0.62100   0.58125   0.00000  Uiso   1.00
C14    C     0.76286   0.62774   0.83356   0.00000  Uiso   1.00
C15    C     0.72793   0.60081   0.97027   0.00000  Uiso   1.00
C16    C     0.68632   0.66344   0.06882   0.00000  Uiso   1.00
C17    C     0.65920   0.62477   0.18699   0.00000  Uiso   1.00
C18    C     0.73415   0.55276   0.77631   0.00000  Uiso   1.00
C19    C     0.69779   0.57499   0.71175   0.00000  Uiso   1.00
C20    C     0.67592   0.49588   0.66662   0.00000  Uiso   1.00
C21    C     0.84418   0.60629   0.77784   0.00000  Uiso   1.00
C22    C     0.90032   0.67352   0.71455   0.00000  Uiso   1.00
C23    C     0.97109   0.63946   0.67067   0.00000  Uiso   1.00
H24    H     0.79960   0.37158   0.88283   0.00000  Uiso   1.00
H25    H     0.72575   0.38857   0.12164   0.00000  Uiso   1.00
H26    H     0.73723   0.30015   0.76462   0.00000  Uiso   1.00
H27    H     0.93973   0.39866   0.76742   0.00000  Uiso   1.00
H28    H     0.63767   0.45052   0.37812   0.00000  Uiso   1.00
H29    H     0.66190   0.26408   0.62528   0.00000  Uiso   1.00
H30    H     0.08891   0.47179   0.63118   0.00000  Uiso   1.00
H31    H     0.75194   0.70388   0.81892   0.00000  Uiso   1.00
H32    H     0.67547   0.73911   0.05423   0.00000  Uiso   1.00
H33    H     0.68695   0.65067   0.69721   0.00000  Uiso   1.00
H34    H     0.88945   0.74918   0.70001   0.00000  Uiso   1.00
H35    H     0.59686   0.73503   0.32341   0.00000  Uiso   1.00
H36    H     0.62109   0.54857   0.57057   0.00000  Uiso   1.00
H37    H     0.04809   0.75629   0.57647   0.00000  Uiso   1.00
O38    O     0.56780   0.60994   0.50671   0.00000  Uiso   1.00
O39    O     0.59961   0.36533   0.51900   0.00000  Uiso   1.00
O40    O     0.15983   0.63785   0.52675   0.00000  Uiso   1.00
N41    N     0.63857   0.51265   0.33295   0.00000  Uiso   1.00
N42    N     0.66121   0.33833   0.62911   0.00000  Uiso   1.00
N43    N     0.06043   0.53252   0.63459   0.00000  Uiso   1.00
N44    N     0.61661   0.66574   0.30351   0.00000  Uiso   1.00
N45    N     0.63925   0.49142   0.59967   0.00000  Uiso   1.00
N46    N     0.03847   0.68561   0.60515   0.00000  Uiso   1.00
C47    C     0.28868   0.94772   0.86819   0.00000  Uiso   1.00
C48    C     0.24195   0.00303   0.98908   0.00000  Uiso   1.00
C49    C     0.21489   0.96426   0.10712   0.00000  Uiso   1.00
C50    C     0.17325   0.02680   0.20583   0.00000  Uiso   1.00
C51    C     0.10280   0.09780   0.39640   0.00000  Uiso   1.00
C52    C     0.24818   0.95498   0.79511   0.00000  Uiso   1.00
C53    C     0.22636   0.87581   0.75006   0.00000  Uiso   1.00
C54    C     0.18997   0.89792   0.68546   0.00000  Uiso   1.00
C55    C     0.12924   0.89433   0.57482   0.00000  Uiso   1.00
C56    C     0.35820   0.00850   0.79665   0.00000  Uiso   1.00
C57    C     0.42890   0.97433   0.75285   0.00000  Uiso   1.00
C58    C     0.48514   0.04150   0.68951   0.00000  Uiso   1.00
C59    C     0.59523   0.12100   0.58125   0.00000  Uiso   1.00
C60    C     0.26286   0.12774   0.83356   0.00000  Uiso   1.00
C61    C     0.22793   0.10081   0.97027   0.00000  Uiso   1.00
C62    C     0.18632   0.16344   0.06882   0.00000  Uiso   1.00
C63    C     0.15920   0.12477   0.18699   0.00000  Uiso   1.00
C64    C     0.23415   0.05276   0.77631   0.00000  Uiso   1.00
C65    C     0.19779   0.07499   0.71175   0.00000  Uiso   1.00
C66    C     0.17592   0.99588   0.66662   0.00000  Uiso   1.00
C67    C     0.34418   0.10629   0.77784   0.00000  Uiso   1.00
C68    C     0.40032   0.17352   0.71455   0.00000  Uiso   1.00
C69    C     0.47109   0.13946   0.67067   0.00000  Uiso   1.00
H70    H     0.29960   0.87158   0.88283   0.00000  Uiso   1.00
H71    H     0.22575   0.88857   0.12164   0.00000  Uiso   1.00
H72    H     0.23723   0.80015   0.76462   0.00000  Uiso   1.00
H73    H     0.43973   0.89866   0.76742   0.00000  Uiso   1.00
H74    H     0.13767   0.95052   0.37812   0.00000  Uiso   1.00
H75    H     0.16190   0.76408   0.62528   0.00000  Uiso   1.00
H76    H     0.58891   0.97179   0.63118   0.00000  Uiso   1.00
H77    H     0.25194   0.20388   0.81892   0.00000  Uiso   1.00
H78    H     0.17547   0.23911   0.05423   0.00000  Uiso   1.00
H79    H     0.18695   0.15067   0.69721   0.00000  Uiso   1.00
H80    H     0.38945   0.24918   0.70001   0.00000  Uiso   1.00
H81    H     0.09686   0.23503   0.32341   0.00000  Uiso   1.00
H82    H     0.12109   0.04857   0.57057   0.00000  Uiso   1.00
H83    H     0.54809   0.25629   0.57647   0.00000  Uiso   1.00
O84    O     0.06780   0.10994   0.50671   0.00000  Uiso   1.00
O85    O     0.09961   0.86533   0.51900   0.00000  Uiso   1.00
O86    O     0.65983   0.13785   0.52675   0.00000  Uiso   1.00
N87    N     0.13857   0.01265   0.33295   0.00000  Uiso   1.00
N88    N     0.16121   0.83833   0.62911   0.00000  Uiso   1.00
N89    N     0.56043   0.03252   0.63459   0.00000  Uiso   1.00
N90    N     0.11661   0.16574   0.30351   0.00000  Uiso   1.00
N91    N     0.13925   0.99142   0.59967   0.00000  Uiso   1.00
N92    N     0.53847   0.18561   0.60515   0.00000  Uiso   1.00
C93    C     0.21132   0.44772   0.13181   0.00000  Uiso   1.00
C94    C     0.25805   0.50303   0.01092   0.00000  Uiso   1.00
C95    C     0.28511   0.46426   0.89288   0.00000  Uiso   1.00
C96    C     0.32675   0.52680   0.79417   0.00000  Uiso   1.00
C97    C     0.39720   0.59780   0.60360   0.00000  Uiso   1.00
C98    C     0.25182   0.45498   0.20489   0.00000  Uiso   1.00
C99    C     0.27364   0.37581   0.24994   0.00000  Uiso   1.00
C100   C     0.31003   0.39792   0.31454   0.00000  Uiso   1.00
C101   C     0.37076   0.39433   0.42518   0.00000  Uiso   1.00
C102   C     0.14180   0.50850   0.20335   0.00000  Uiso   1.00
C103   C     0.07110   0.47433   0.24715   0.00000  Uiso   1.00
C104   C     0.01486   0.54150   0.31049   0.00000  Uiso   1.00
C105   C     0.90477   0.62100   0.41875   0.00000  Uiso   1.00
C106   C     0.23714   0.62774   0.16644   0.00000  Uiso   1.00
C107   C     0.27207   0.60081   0.02973   0.00000  Uiso   1.00
C108   C     0.31368   0.66344   0.93118   0.00000  Uiso   1.00
C109   C     0.34080   0.62477   0.81301   0.00000  Uiso   1.00
C110   C     0.26585   0.55276   0.22369   0.00000  Uiso   1.00
C111   C     0.30221   0.57499   0.28825   0.00000  Uiso   1.00
C112   C     0.32408   0.49588   0.33338   0.00000  Uiso   1.00
C113   C     0.15582   0.60629   0.22216   0.00000  Uiso   1.00
C114   C     0.09968   0.67352   0.28545   0.00000  Uiso   1.00
C115   C     0.02891   0.63946   0.32933   0.00000  Uiso   1.00
H116   H     0.20040   0.37158   0.11717   0.00000  Uiso   1.00
H117   H     0.27425   0.38857   0.87836   0.00000  Uiso   1.00
H118   H     0.26277   0.30015   0.23538   0.00000  Uiso   1.00
H119   H     0.06027   0.39866   0.23258   0.00000  Uiso   1.00
H120   H     0.36233   0.45052   0.62188   0.00000  Uiso   1.00
H121   H     0.33810   0.26408   0.37472   0.00000  Uiso   1.00
H122   H     0.91109   0.47179   0.36882   0.00000  Uiso   1.00
H123   H     0.24806   0.70388   0.18108   0.00000  Uiso   1.00
H124   H     0.32453   0.73911   0.94577   0.00000  Uiso   1.00
H125   H     0.31305   0.65067   0.30279   0.00000  Uiso   1.00
H126   H     0.11055   0.74918   0.29999   0.00000  Uiso   1.00
H127   H     0.40314   0.73503   0.67659   0.00000  Uiso   1.00
H128   H     0.37891   0.54857   0.42943   0.00000  Uiso   1.00
H129   H     0.95191   0.75629   0.42353   0.00000  Uiso   1.00
O130   O     0.43220   0.60994   0.49329   0.00000  Uiso   1.00
O131   O     0.40039   0.36533   0.48100   0.00000  Uiso   1.00
O132   O     0.84017   0.63785   0.47325   0.00000  Uiso   1.00
N133   N     0.36143   0.51265   0.66705   0.00000  Uiso   1.00
N134   N     0.33879   0.33833   0.37089   0.00000  Uiso   1.00
N135   N     0.93957   0.53252   0.36541   0.00000  Uiso   1.00
N136   N     0.38339   0.66574   0.69649   0.00000  Uiso   1.00
N137   N     0.36075   0.49142   0.40033   0.00000  Uiso   1.00
N138   N     0.96153   0.68561   0.39485   0.00000  Uiso   1.00
C139   C     0.71132   0.94772   0.13181   0.00000  Uiso   1.00
C140   C     0.75805   0.00303   0.01092   0.00000  Uiso   1.00
C141   C     0.78511   0.96426   0.89288   0.00000  Uiso   1.00
C142   C     0.82675   0.02680   0.79417   0.00000  Uiso   1.00
C143   C     0.89720   0.09780   0.60360   0.00000  Uiso   1.00
C144   C     0.75182   0.95498   0.20489   0.00000  Uiso   1.00
C145   C     0.77364   0.87581   0.24994   0.00000  Uiso   1.00
C146   C     0.81003   0.89792   0.31454   0.00000  Uiso   1.00
C147   C     0.87076   0.89433   0.42518   0.00000  Uiso   1.00
C148   C     0.64180   0.00850   0.20335   0.00000  Uiso   1.00
C149   C     0.57110   0.97433   0.24715   0.00000  Uiso   1.00
C150   C     0.51486   0.04150   0.31049   0.00000  Uiso   1.00
C151   C     0.40477   0.12100   0.41875   0.00000  Uiso   1.00
C152   C     0.73714   0.12774   0.16644   0.00000  Uiso   1.00
C153   C     0.77207   0.10081   0.02973   0.00000  Uiso   1.00
C154   C     0.81368   0.16344   0.93118   0.00000  Uiso   1.00
C155   C     0.84080   0.12477   0.81301   0.00000  Uiso   1.00
C156   C     0.76585   0.05276   0.22369   0.00000  Uiso   1.00
C157   C     0.80221   0.07499   0.28825   0.00000  Uiso   1.00
C158   C     0.82408   0.99588   0.33338   0.00000  Uiso   1.00
C159   C     0.65582   0.10629   0.22216   0.00000  Uiso   1.00
C160   C     0.59968   0.17352   0.28545   0.00000  Uiso   1.00
C161   C     0.52891   0.13946   0.32933   0.00000  Uiso   1.00
H162   H     0.70040   0.87158   0.11717   0.00000  Uiso   1.00
H163   H     0.77425   0.88857   0.87836   0.00000  Uiso   1.00
H164   H     0.76277   0.80015   0.23538   0.00000  Uiso   1.00
H165   H     0.56027   0.89866   0.23258   0.00000  Uiso   1.00
H166   H     0.86233   0.95052   0.62188   0.00000  Uiso   1.00
H167   H     0.83810   0.76408   0.37472   0.00000  Uiso   1.00
H168   H     0.41109   0.97179   0.36882   0.00000  Uiso   1.00
H169   H     0.74806   0.20388   0.18108   0.00000  Uiso   1.00
H170   H     0.82453   0.23911   0.94577   0.00000  Uiso   1.00
H171   H     0.81305   0.15067   0.30279   0.00000  Uiso   1.00
H172   H     0.61055   0.24918   0.29999   0.00000  Uiso   1.00
H173   H     0.90314   0.23503   0.67659   0.00000  Uiso   1.00
H174   H     0.87891   0.04857   0.42943   0.00000  Uiso   1.00
H175   H     0.45191   0.25629   0.42353   0.00000  Uiso   1.00
O176   O     0.93220   0.10994   0.49329   0.00000  Uiso   1.00
O177   O     0.90039   0.86533   0.48100   0.00000  Uiso   1.00
O178   O     0.34017   0.13785   0.47325   0.00000  Uiso   1.00
N179   N     0.86143   0.01265   0.66705   0.00000  Uiso   1.00
N180   N     0.83879   0.83833   0.37089   0.00000  Uiso   1.00
N181   N     0.43957   0.03252   0.36541   0.00000  Uiso   1.00
N182   N     0.88339   0.16574   0.69649   0.00000  Uiso   1.00
N183   N     0.86075   0.99142   0.40033   0.00000  Uiso   1.00
N184   N     0.46153   0.18561   0.39485   0.00000  Uiso   1.00
