data_job_06275
_audit_creation_date              2018-12-19
_audit_creation_method            'Materials Studio'
_symmetry_space_group_name_H-M    'P1'
_symmetry_Int_Tables_number       1
_symmetry_cell_setting            triclinic
loop_
_symmetry_equiv_pos_as_xyz
  x,y,z
_cell_length_a                    18.1189
_cell_length_b                    18.1841
_cell_length_c                    21.9881
_cell_angle_alpha                 66.3547
_cell_angle_beta                  65.7765
_cell_angle_gamma                 60.2722
loop_
_atom_site_label
_atom_site_type_symbol
_atom_site_fract_x
_atom_site_fract_y
_atom_site_fract_z
_atom_site_U_iso_or_equiv
_atom_site_adp_type
_atom_site_occupancy
C1     C     0.71714   0.08318   0.80517   0.00000  Uiso   1.00
C2     C     0.73270   0.13115   0.83890   0.00000  Uiso   1.00
C3     C     0.68958   0.21994   0.83579   0.00000  Uiso   1.00
C4     C     0.71323   0.25125   0.87008   0.00000  Uiso   1.00
C5     C     0.72762   0.33420   0.91694   0.00000  Uiso   1.00
C6     C     0.80664   0.03810   0.75917   0.00000  Uiso   1.00
C7     C     0.82569   0.04863   0.68903   0.00000  Uiso   1.00
C8     C     0.91158   0.00160   0.65621   0.00000  Uiso   1.00
C9     C     0.04075   0.94003   0.57931   0.00000  Uiso   1.00
C10    C     0.69341   0.01020   0.86294   0.00000  Uiso   1.00
C11    C     0.61725   0.99726   0.88004   0.00000  Uiso   1.00
C12    C     0.60781   0.92672   0.93457   0.00000  Uiso   1.00
C13    C     0.56117   0.82183   0.01878   0.00000  Uiso   1.00
C14    C     0.83581   0.98090   0.87159   0.00000  Uiso   1.00
C15    C     0.79716   0.07560   0.87498   0.00000  Uiso   1.00
C16    C     0.82088   0.10678   0.90929   0.00000  Uiso   1.00
C17    C     0.77780   0.19560   0.90623   0.00000  Uiso   1.00
C18    C     0.87110   0.98254   0.79525   0.00000  Uiso   1.00
C19    C     0.95698   0.93548   0.76253   0.00000  Uiso   1.00
C20    C     0.97616   0.94594   0.69235   0.00000  Uiso   1.00
C21    C     0.75786   0.95464   0.89902   0.00000  Uiso   1.00
C22    C     0.74855   0.88410   0.95353   0.00000  Uiso   1.00
C23    C     0.67239   0.87106   0.97071   0.00000  Uiso   1.00
H24    H     0.66696   0.12643   0.77707   0.00000  Uiso   1.00
H25    H     0.63971   0.26291   0.80786   0.00000  Uiso   1.00
H26    H     0.77579   0.09162   0.66113   0.00000  Uiso   1.00
H27    H     0.56739   0.04026   0.85210   0.00000  Uiso   1.00
H28    H     0.63795   0.38973   0.85788   0.00000  Uiso   1.00
H29    H     0.92487   0.02854   0.54849   0.00000  Uiso   1.00
H30    H     0.48541   0.92023   0.95120   0.00000  Uiso   1.00
H31    H     0.88600   0.93765   0.89968   0.00000  Uiso   1.00
H32    H     0.87076   0.06378   0.93720   0.00000  Uiso   1.00
H33    H     0.00685   0.89249   0.79046   0.00000  Uiso   1.00
H34    H     0.79844   0.84113   0.98144   0.00000  Uiso   1.00
H35    H     0.82548   0.22811   0.96286   0.00000  Uiso   1.00
H36    H     0.11241   0.86692   0.65347   0.00000  Uiso   1.00
H37    H     0.67294   0.75861   0.05618   0.00000  Uiso   1.00
O38    O     0.71776   0.39530   0.93282   0.00000  Uiso   1.00
O39    O     0.09419   0.92142   0.52691   0.00000  Uiso   1.00
O40    O     0.51762   0.77933   0.05526   0.00000  Uiso   1.00
N41    N     0.68416   0.33438   0.87745   0.00000  Uiso   1.00
N42    N     0.95243   0.99670   0.58819   0.00000  Uiso   1.00
N43    N     0.54157   0.89543   0.96468   0.00000  Uiso   1.00
N44    N     0.78507   0.24741   0.93394   0.00000  Uiso   1.00
N45    N     0.05334   0.90973   0.64467   0.00000  Uiso   1.00
N46    N     0.64248   0.80846   0.02116   0.00000  Uiso   1.00
C47    C     0.39377   0.72032   0.80444   0.00000  Uiso   1.00
C48    C     0.29672   0.73586   0.83791   0.00000  Uiso   1.00
C49    C     0.25411   0.69276   0.83402   0.00000  Uiso   1.00
C50    C     0.16510   0.71637   0.86820   0.00000  Uiso   1.00
C51    C     0.02120   0.73073   0.91456   0.00000  Uiso   1.00
C52    C     0.39549   0.80893   0.75919   0.00000  Uiso   1.00
C53    C     0.43592   0.82726   0.68911   0.00000  Uiso   1.00
C54    C     0.43006   0.91239   0.65701   0.00000  Uiso   1.00
C55    C     0.43955   0.04017   0.58116   0.00000  Uiso   1.00
C56    C     0.43269   0.69745   0.86254   0.00000  Uiso   1.00
C57    C     0.50443   0.62207   0.87936   0.00000  Uiso   1.00
C58    C     0.52991   0.61335   0.93428   0.00000  Uiso   1.00
C59    C     0.59717   0.56805   0.01891   0.00000  Uiso   1.00
C60    C     0.31147   0.83891   0.87206   0.00000  Uiso   1.00
C61    C     0.25203   0.80027   0.87464   0.00000  Uiso   1.00
C62    C     0.16306   0.82396   0.90883   0.00000  Uiso   1.00
C63    C     0.12032   0.78090   0.90499   0.00000  Uiso   1.00
C64    C     0.35079   0.87334   0.79591   0.00000  Uiso   1.00
C65    C     0.34487   0.95846   0.76392   0.00000  Uiso   1.00
C66    C     0.38528   0.97692   0.69381   0.00000  Uiso   1.00
C67    C     0.38799   0.76186   0.89927   0.00000  Uiso   1.00
C68    C     0.41337   0.75327   0.95417   0.00000  Uiso   1.00
C69    C     0.48513   0.67788   0.97107   0.00000  Uiso   1.00
H70    H     0.42857   0.67018   0.77584   0.00000  Uiso   1.00
H71    H     0.28872   0.64292   0.80559   0.00000  Uiso   1.00
H72    H     0.47051   0.77740   0.66070   0.00000  Uiso   1.00
H73    H     0.53901   0.57224   0.85093   0.00000  Uiso   1.00
H74    H     0.11396   0.64112   0.85475   0.00000  Uiso   1.00
H75    H     0.49730   0.92467   0.54924   0.00000  Uiso   1.00
H76    H     0.64173   0.49205   0.95037   0.00000  Uiso   1.00
H77    H     0.27667   0.88906   0.90065   0.00000  Uiso   1.00
H78    H     0.12848   0.87381   0.93725   0.00000  Uiso   1.00
H79    H     0.31027   0.00829   0.79236   0.00000  Uiso   1.00
H80    H     0.37876   0.80312   0.98259   0.00000  Uiso   1.00
H81    H     0.98390   0.82852   0.96160   0.00000  Uiso   1.00
H82    H     0.36724   0.11208   0.65610   0.00000  Uiso   1.00
H83    H     0.51167   0.67945   0.05723   0.00000  Uiso   1.00
O84    O     0.95418   0.72086   0.92998   0.00000  Uiso   1.00
O85    O     0.45712   0.09286   0.52917   0.00000  Uiso   1.00
O86    O     0.64661   0.52527   0.05545   0.00000  Uiso   1.00
N87    N     0.10369   0.68731   0.87488   0.00000  Uiso   1.00
N88    N     0.46208   0.95241   0.58925   0.00000  Uiso   1.00
N89    N     0.59713   0.54796   0.96427   0.00000  Uiso   1.00
N90    N     0.03370   0.78815   0.93238   0.00000  Uiso   1.00
N91    N     0.39209   0.05325   0.64675   0.00000  Uiso   1.00
N92    N     0.52714   0.64879   0.02177   0.00000  Uiso   1.00
C93    C     0.08230   0.39352   0.80739   0.00000  Uiso   1.00
C94    C     0.13008   0.29743   0.84029   0.00000  Uiso   1.00
C95    C     0.21945   0.25526   0.83648   0.00000  Uiso   1.00
C96    C     0.25045   0.16713   0.87007   0.00000  Uiso   1.00
C97    C     0.33323   0.02466   0.91563   0.00000  Uiso   1.00
C98    C     0.03721   0.39458   0.76159   0.00000  Uiso   1.00
C99    C     0.04850   0.43411   0.69162   0.00000  Uiso   1.00
C100   C     0.00132   0.42777   0.65896   0.00000  Uiso   1.00
C101   C     0.93988   0.43618   0.58236   0.00000  Uiso   1.00
C102   C     0.00843   0.43265   0.86580   0.00000  Uiso   1.00
C103   C     0.99549   0.50421   0.88344   0.00000  Uiso   1.00
C104   C     0.92406   0.52993   0.93850   0.00000  Uiso   1.00
C105   C     0.81793   0.59746   0.02370   0.00000  Uiso   1.00
C106   C     0.97844   0.31198   0.87381   0.00000  Uiso   1.00
C107   C     0.07366   0.25314   0.87636   0.00000  Uiso   1.00
C108   C     0.10454   0.16505   0.90996   0.00000  Uiso   1.00
C109   C     0.19394   0.12276   0.90621   0.00000  Uiso   1.00
C110   C     0.98080   0.35030   0.79766   0.00000  Uiso   1.00
C111   C     0.93359   0.34390   0.76510   0.00000  Uiso   1.00
C112   C     0.94480   0.38340   0.69510   0.00000  Uiso   1.00
C113   C     0.95201   0.38837   0.90188   0.00000  Uiso   1.00
C114   C     0.88059   0.41399   0.95692   0.00000  Uiso   1.00
C115   C     0.86755   0.48556   0.97464   0.00000  Uiso   1.00
H116   H     0.12621   0.42800   0.77930   0.00000  Uiso   1.00
H117   H     0.26309   0.28956   0.80855   0.00000  Uiso   1.00
H118   H     0.09215   0.46839   0.66372   0.00000  Uiso   1.00
H119   H     0.03916   0.53846   0.85551   0.00000  Uiso   1.00
H120   H     0.38996   0.11654   0.85687   0.00000  Uiso   1.00
H121   H     0.02952   0.49363   0.55148   0.00000  Uiso   1.00
H122   H     0.91777   0.64141   0.95591   0.00000  Uiso   1.00
H123   H     0.93451   0.27750   0.90189   0.00000  Uiso   1.00
H124   H     0.06087   0.13079   0.93788   0.00000  Uiso   1.00
H125   H     0.88993   0.30962   0.79304   0.00000  Uiso   1.00
H126   H     0.83694   0.37970   0.98483   0.00000  Uiso   1.00
H127   H     0.22583   0.98767   0.96183   0.00000  Uiso   1.00
H128   H     0.86539   0.36477   0.65644   0.00000  Uiso   1.00
H129   H     0.75364   0.51255   0.06087   0.00000  Uiso   1.00
O130   O     0.39448   0.95831   0.93079   0.00000  Uiso   1.00
O131   O     0.92158   0.45305   0.53014   0.00000  Uiso   1.00
O132   O     0.77498   0.64693   0.06073   0.00000  Uiso   1.00
N133   N     0.33399   0.10634   0.87665   0.00000  Uiso   1.00
N134   N     0.99701   0.45889   0.59113   0.00000  Uiso   1.00
N135   N     0.89252   0.59707   0.96922   0.00000  Uiso   1.00
N136   N     0.24567   0.03701   0.93313   0.00000  Uiso   1.00
N137   N     0.90869   0.38955   0.64760   0.00000  Uiso   1.00
N138   N     0.80420   0.52773   0.02570   0.00000  Uiso   1.00
C139   C     0.28286   0.91682   0.19483   0.00000  Uiso   1.00
C140   C     0.26730   0.86885   0.16110   0.00000  Uiso   1.00
C141   C     0.31042   0.78006   0.16421   0.00000  Uiso   1.00
C142   C     0.28677   0.74875   0.12992   0.00000  Uiso   1.00
C143   C     0.27238   0.66580   0.08306   0.00000  Uiso   1.00
C144   C     0.19336   0.96190   0.24083   0.00000  Uiso   1.00
C145   C     0.17431   0.95137   0.31097   0.00000  Uiso   1.00
C146   C     0.08842   0.99840   0.34379   0.00000  Uiso   1.00
C147   C     0.95925   0.05997   0.42069   0.00000  Uiso   1.00
C148   C     0.30659   0.98980   0.13706   0.00000  Uiso   1.00
C149   C     0.38275   0.00274   0.11996   0.00000  Uiso   1.00
C150   C     0.39219   0.07328   0.06543   0.00000  Uiso   1.00
C151   C     0.43883   0.17817   0.98122   0.00000  Uiso   1.00
C152   C     0.16419   0.01910   0.12841   0.00000  Uiso   1.00
C153   C     0.20284   0.92440   0.12502   0.00000  Uiso   1.00
C154   C     0.17912   0.89322   0.09071   0.00000  Uiso   1.00
C155   C     0.22220   0.80440   0.09377   0.00000  Uiso   1.00
C156   C     0.12890   0.01745   0.20475   0.00000  Uiso   1.00
C157   C     0.04302   0.06452   0.23747   0.00000  Uiso   1.00
C158   C     0.02384   0.05406   0.30765   0.00000  Uiso   1.00
C159   C     0.24214   0.04536   0.10098   0.00000  Uiso   1.00
C160   C     0.25145   0.11590   0.04647   0.00000  Uiso   1.00
C161   C     0.32761   0.12894   0.02929   0.00000  Uiso   1.00
H162   H     0.33304   0.87357   0.22293   0.00000  Uiso   1.00
H163   H     0.36029   0.73709   0.19214   0.00000  Uiso   1.00
H164   H     0.22421   0.90838   0.33887   0.00000  Uiso   1.00
H165   H     0.43261   0.95974   0.14790   0.00000  Uiso   1.00
H166   H     0.36205   0.61027   0.14212   0.00000  Uiso   1.00
H167   H     0.07513   0.97146   0.45151   0.00000  Uiso   1.00
H168   H     0.51459   0.07977   0.04880   0.00000  Uiso   1.00
H169   H     0.11400   0.06235   0.10032   0.00000  Uiso   1.00
H170   H     0.12924   0.93622   0.06280   0.00000  Uiso   1.00
H171   H     0.99315   0.10751   0.20954   0.00000  Uiso   1.00
H172   H     0.20156   0.15887   0.01856   0.00000  Uiso   1.00
H173   H     0.17452   0.77189   0.03714   0.00000  Uiso   1.00
H174   H     0.88759   0.13308   0.34653   0.00000  Uiso   1.00
H175   H     0.32706   0.24139   0.94382   0.00000  Uiso   1.00
O176   O     0.28224   0.60470   0.06718   0.00000  Uiso   1.00
O177   O     0.90581   0.07858   0.47309   0.00000  Uiso   1.00
O178   O     0.48238   0.22067   0.94474   0.00000  Uiso   1.00
N179   N     0.31584   0.66562   0.12255   0.00000  Uiso   1.00
N180   N     0.04757   0.00330   0.41181   0.00000  Uiso   1.00
N181   N     0.45843   0.10457   0.03532   0.00000  Uiso   1.00
N182   N     0.21493   0.75259   0.06606   0.00000  Uiso   1.00
N183   N     0.94666   0.09027   0.35533   0.00000  Uiso   1.00
N184   N     0.35752   0.19154   0.97884   0.00000  Uiso   1.00
C185   C     0.60623   0.27968   0.19556   0.00000  Uiso   1.00
C186   C     0.70328   0.26414   0.16209   0.00000  Uiso   1.00
C187   C     0.74589   0.30724   0.16598   0.00000  Uiso   1.00
C188   C     0.83490   0.28362   0.13180   0.00000  Uiso   1.00
C189   C     0.97880   0.26927   0.08544   0.00000  Uiso   1.00
C190   C     0.60451   0.19107   0.24081   0.00000  Uiso   1.00
C191   C     0.56408   0.17274   0.31089   0.00000  Uiso   1.00
C192   C     0.56994   0.08761   0.34299   0.00000  Uiso   1.00
C193   C     0.56045   0.95983   0.41884   0.00000  Uiso   1.00
C194   C     0.56731   0.30255   0.13746   0.00000  Uiso   1.00
C195   C     0.49557   0.37793   0.12064   0.00000  Uiso   1.00
C196   C     0.47009   0.38665   0.06572   0.00000  Uiso   1.00
C197   C     0.40283   0.43195   0.98109   0.00000  Uiso   1.00
C198   C     0.68853   0.16109   0.12794   0.00000  Uiso   1.00
C199   C     0.74797   0.19973   0.12536   0.00000  Uiso   1.00
C200   C     0.83694   0.17604   0.09117   0.00000  Uiso   1.00
C201   C     0.87968   0.21910   0.09501   0.00000  Uiso   1.00
C202   C     0.64921   0.12666   0.20409   0.00000  Uiso   1.00
C203   C     0.65513   0.04154   0.23608   0.00000  Uiso   1.00
C204   C     0.61472   0.02308   0.30619   0.00000  Uiso   1.00
C205   C     0.61201   0.23814   0.10073   0.00000  Uiso   1.00
C206   C     0.58663   0.24673   0.04583   0.00000  Uiso   1.00
C207   C     0.51487   0.32212   0.02893   0.00000  Uiso   1.00
H208   H     0.57143   0.32982   0.22416   0.00000  Uiso   1.00
H209   H     0.71128   0.35708   0.19441   0.00000  Uiso   1.00
H210   H     0.52948   0.22260   0.33930   0.00000  Uiso   1.00
H211   H     0.46099   0.42776   0.14907   0.00000  Uiso   1.00
H212   H     0.88604   0.35888   0.14525   0.00000  Uiso   1.00
H213   H     0.50270   0.07533   0.45076   0.00000  Uiso   1.00
H214   H     0.35827   0.50795   0.04963   0.00000  Uiso   1.00
H215   H     0.72333   0.11094   0.09935   0.00000  Uiso   1.00
H216   H     0.87152   0.12619   0.06275   0.00000  Uiso   1.00
H217   H     0.68973   0.99171   0.20764   0.00000  Uiso   1.00
H218   H     0.62123   0.19687   0.01741   0.00000  Uiso   1.00
H219   H     0.01610   0.17147   0.03840   0.00000  Uiso   1.00
H220   H     0.63276   0.88792   0.34390   0.00000  Uiso   1.00
H221   H     0.48833   0.32055   0.94277   0.00000  Uiso   1.00
O222   O     0.04582   0.27914   0.07002   0.00000  Uiso   1.00
O223   O     0.54288   0.90714   0.47083   0.00000  Uiso   1.00
O224   O     0.35339   0.47473   0.94455   0.00000  Uiso   1.00
N225   N     0.89631   0.31269   0.12512   0.00000  Uiso   1.00
N226   N     0.53792   0.04759   0.41075   0.00000  Uiso   1.00
N227   N     0.40287   0.45204   0.03573   0.00000  Uiso   1.00
N228   N     0.96630   0.21185   0.06762   0.00000  Uiso   1.00
N229   N     0.60791   0.94675   0.35325   0.00000  Uiso   1.00
N230   N     0.47286   0.35121   0.97823   0.00000  Uiso   1.00
C231   C     0.91770   0.60648   0.19261   0.00000  Uiso   1.00
C232   C     0.86992   0.70257   0.15971   0.00000  Uiso   1.00
C233   C     0.78055   0.74474   0.16352   0.00000  Uiso   1.00
C234   C     0.74955   0.83287   0.12993   0.00000  Uiso   1.00
C235   C     0.66677   0.97534   0.08437   0.00000  Uiso   1.00
C236   C     0.96279   0.60542   0.23841   0.00000  Uiso   1.00
C237   C     0.95150   0.56589   0.30838   0.00000  Uiso   1.00
C238   C     0.99868   0.57223   0.34104   0.00000  Uiso   1.00
C239   C     0.06012   0.56382   0.41764   0.00000  Uiso   1.00
C240   C     0.99157   0.56735   0.13420   0.00000  Uiso   1.00
C241   C     0.00451   0.49579   0.11656   0.00000  Uiso   1.00
C242   C     0.07594   0.47007   0.06150   0.00000  Uiso   1.00
C243   C     0.18207   0.40254   0.97630   0.00000  Uiso   1.00
C244   C     0.02156   0.68802   0.12619   0.00000  Uiso   1.00
C245   C     0.92634   0.74686   0.12364   0.00000  Uiso   1.00
C246   C     0.89546   0.83495   0.09004   0.00000  Uiso   1.00
C247   C     0.80606   0.87724   0.09379   0.00000  Uiso   1.00
C248   C     0.01920   0.64970   0.20234   0.00000  Uiso   1.00
C249   C     0.06641   0.65610   0.23490   0.00000  Uiso   1.00
C250   C     0.05520   0.61660   0.30490   0.00000  Uiso   1.00
C251   C     0.04799   0.61163   0.09812   0.00000  Uiso   1.00
C252   C     0.11941   0.58601   0.04308   0.00000  Uiso   1.00
C253   C     0.13245   0.51444   0.02536   0.00000  Uiso   1.00
H254   H     0.87378   0.57200   0.22070   0.00000  Uiso   1.00
H255   H     0.73691   0.71044   0.19145   0.00000  Uiso   1.00
H256   H     0.90785   0.53161   0.33628   0.00000  Uiso   1.00
H257   H     0.96084   0.46154   0.14449   0.00000  Uiso   1.00
H258   H     0.61004   0.88346   0.14313   0.00000  Uiso   1.00
H259   H     0.97048   0.50637   0.44852   0.00000  Uiso   1.00
H260   H     0.08223   0.35859   0.04409   0.00000  Uiso   1.00
H261   H     0.06549   0.72250   0.09811   0.00000  Uiso   1.00
H262   H     0.93913   0.86921   0.06212   0.00000  Uiso   1.00
H263   H     0.11007   0.69038   0.20696   0.00000  Uiso   1.00
H264   H     0.16306   0.62030   0.01517   0.00000  Uiso   1.00
H265   H     0.77417   0.01233   0.03817   0.00000  Uiso   1.00
H266   H     0.13461   0.63523   0.34356   0.00000  Uiso   1.00
H267   H     0.24636   0.48745   0.93913   0.00000  Uiso   1.00
O268   O     0.60552   0.04169   0.06921   0.00000  Uiso   1.00
O269   O     0.07842   0.54694   0.46986   0.00000  Uiso   1.00
O270   O     0.22502   0.35307   0.93927   0.00000  Uiso   1.00
N271   N     0.66601   0.89365   0.12335   0.00000  Uiso   1.00
N272   N     0.00299   0.54111   0.40887   0.00000  Uiso   1.00
N273   N     0.10748   0.40293   0.03078   0.00000  Uiso   1.00
N274   N     0.75433   0.96299   0.06687   0.00000  Uiso   1.00
N275   N     0.09131   0.61045   0.35240   0.00000  Uiso   1.00
N276   N     0.19580   0.47227   0.97430   0.00000  Uiso   1.00
