data_job_03672
_audit_creation_date              2018-12-19
_audit_creation_method            'Materials Studio'
_symmetry_space_group_name_H-M    'P1'
_symmetry_Int_Tables_number       1
_symmetry_cell_setting            triclinic
loop_
_symmetry_equiv_pos_as_xyz
  x,y,z
_cell_length_a                    20.6311
_cell_length_b                    30.7590
_cell_length_c                    10.9717
_cell_angle_alpha                 90.0000
_cell_angle_beta                  90.0000
_cell_angle_gamma                 90.0000
loop_
_atom_site_label
_atom_site_type_symbol
_atom_site_fract_x
_atom_site_fract_y
_atom_site_fract_z
_atom_site_U_iso_or_equiv
_atom_site_adp_type
_atom_site_occupancy
C1     C     0.49807   0.16405   0.57488   0.00000  Uiso   1.00
C2     C     0.54681   0.16131   0.47068   0.00000  Uiso   1.00
C3     C     0.60574   0.18298   0.46513   0.00000  Uiso   1.00
C4     C     0.64340   0.17619   0.36201   0.00000  Uiso   1.00
C5     C     0.72220   0.17614   0.21449   0.00000  Uiso   1.00
C6     C     0.43435   0.17872   0.51768   0.00000  Uiso   1.00
C7     C     0.39873   0.21502   0.55167   0.00000  Uiso   1.00
C8     C     0.34172   0.22288   0.48813   0.00000  Uiso   1.00
C9     C     0.24590   0.24984   0.41365   0.00000  Uiso   1.00
C10    C     0.48707   0.11745   0.61753   0.00000  Uiso   1.00
C11    C     0.49575   0.10223   0.73549   0.00000  Uiso   1.00
C12    C     0.48311   0.05850   0.75602   0.00000  Uiso   1.00
C13    C     0.46915   0.99032   0.83658   0.00000  Uiso   1.00
C14    C     0.46017   0.11346   0.40160   0.00000  Uiso   1.00
C15    C     0.52622   0.13383   0.37656   0.00000  Uiso   1.00
C16    C     0.56381   0.12701   0.27342   0.00000  Uiso   1.00
C17    C     0.62278   0.14866   0.26772   0.00000  Uiso   1.00
C18    C     0.41377   0.15124   0.42357   0.00000  Uiso   1.00
C19    C     0.35680   0.15905   0.35996   0.00000  Uiso   1.00
C20    C     0.32110   0.19535   0.39384   0.00000  Uiso   1.00
C21    C     0.46649   0.08997   0.52342   0.00000  Uiso   1.00
C22    C     0.45383   0.04625   0.54377   0.00000  Uiso   1.00
C23    C     0.46249   0.03097   0.66173   0.00000  Uiso   1.00
H24    H     0.51409   0.18545   0.64815   0.00000  Uiso   1.00
H25    H     0.62165   0.20425   0.53798   0.00000  Uiso   1.00
H26    H     0.41466   0.23628   0.62452   0.00000  Uiso   1.00
H27    H     0.51168   0.12351   0.80830   0.00000  Uiso   1.00
H28    H     0.73180   0.21299   0.37430   0.00000  Uiso   1.00
H29    H     0.29536   0.28052   0.55680   0.00000  Uiso   1.00
H30    H     0.49993   0.04272   0.94435   0.00000  Uiso   1.00
H31    H     0.44414   0.09206   0.32833   0.00000  Uiso   1.00
H32    H     0.54787   0.10574   0.20060   0.00000  Uiso   1.00
H33    H     0.34088   0.13777   0.28714   0.00000  Uiso   1.00
H34    H     0.43790   0.02500   0.47092   0.00000  Uiso   1.00
H35    H     0.67192   0.13304   0.10047   0.00000  Uiso   1.00
H36    H     0.23547   0.20057   0.28298   0.00000  Uiso   1.00
H37    H     0.44005   0.96276   0.67051   0.00000  Uiso   1.00
O38    O     0.77134   0.18371   0.15912   0.00000  Uiso   1.00
O39    O     0.19874   0.27230   0.39857   0.00000  Uiso   1.00
O40    O     0.46714   0.96031   0.90701   0.00000  Uiso   1.00
N41    N     0.70348   0.19229   0.32740   0.00000  Uiso   1.00
N42    N     0.29544   0.25543   0.49801   0.00000  Uiso   1.00
N43    N     0.48668   0.03311   0.86034   0.00000  Uiso   1.00
N44    N     0.67126   0.14927   0.18005   0.00000  Uiso   1.00
N45    N     0.26322   0.21241   0.35066   0.00000  Uiso   1.00
N46    N     0.45445   0.99008   0.71299   0.00000  Uiso   1.00
C47    C     0.00193   0.83595   0.57488   0.00000  Uiso   1.00
C48    C     0.95319   0.83869   0.47068   0.00000  Uiso   1.00
C49    C     0.89426   0.81702   0.46513   0.00000  Uiso   1.00
C50    C     0.85660   0.82381   0.36201   0.00000  Uiso   1.00
C51    C     0.77780   0.82386   0.21449   0.00000  Uiso   1.00
C52    C     0.06565   0.82128   0.51768   0.00000  Uiso   1.00
C53    C     0.10127   0.78498   0.55167   0.00000  Uiso   1.00
C54    C     0.15828   0.77712   0.48813   0.00000  Uiso   1.00
C55    C     0.25410   0.75016   0.41365   0.00000  Uiso   1.00
C56    C     0.01293   0.88255   0.61753   0.00000  Uiso   1.00
C57    C     0.00425   0.89777   0.73549   0.00000  Uiso   1.00
C58    C     0.01689   0.94150   0.75602   0.00000  Uiso   1.00
C59    C     0.03085   0.00968   0.83658   0.00000  Uiso   1.00
C60    C     0.03983   0.88654   0.40160   0.00000  Uiso   1.00
C61    C     0.97378   0.86617   0.37656   0.00000  Uiso   1.00
C62    C     0.93619   0.87299   0.27342   0.00000  Uiso   1.00
C63    C     0.87722   0.85134   0.26772   0.00000  Uiso   1.00
C64    C     0.08623   0.84876   0.42357   0.00000  Uiso   1.00
C65    C     0.14320   0.84095   0.35996   0.00000  Uiso   1.00
C66    C     0.17890   0.80465   0.39384   0.00000  Uiso   1.00
C67    C     0.03351   0.91003   0.52342   0.00000  Uiso   1.00
C68    C     0.04617   0.95375   0.54377   0.00000  Uiso   1.00
C69    C     0.03751   0.96903   0.66173   0.00000  Uiso   1.00
H70    H     0.98591   0.81455   0.64815   0.00000  Uiso   1.00
H71    H     0.87835   0.79575   0.53798   0.00000  Uiso   1.00
H72    H     0.08534   0.76372   0.62452   0.00000  Uiso   1.00
H73    H     0.98832   0.87649   0.80830   0.00000  Uiso   1.00
H74    H     0.76820   0.78701   0.37430   0.00000  Uiso   1.00
H75    H     0.20464   0.71948   0.55680   0.00000  Uiso   1.00
H76    H     0.00007   0.95728   0.94435   0.00000  Uiso   1.00
H77    H     0.05586   0.90794   0.32833   0.00000  Uiso   1.00
H78    H     0.95213   0.89426   0.20060   0.00000  Uiso   1.00
H79    H     0.15912   0.86223   0.28714   0.00000  Uiso   1.00
H80    H     0.06210   0.97500   0.47092   0.00000  Uiso   1.00
H81    H     0.82808   0.86696   0.10047   0.00000  Uiso   1.00
H82    H     0.26453   0.79943   0.28298   0.00000  Uiso   1.00
H83    H     0.05995   0.03724   0.67051   0.00000  Uiso   1.00
O84    O     0.72866   0.81629   0.15912   0.00000  Uiso   1.00
O85    O     0.30126   0.72770   0.39857   0.00000  Uiso   1.00
O86    O     0.03286   0.03969   0.90701   0.00000  Uiso   1.00
N87    N     0.79652   0.80771   0.32740   0.00000  Uiso   1.00
N88    N     0.20456   0.74457   0.49801   0.00000  Uiso   1.00
N89    N     0.01332   0.96689   0.86034   0.00000  Uiso   1.00
N90    N     0.82874   0.85073   0.18005   0.00000  Uiso   1.00
N91    N     0.23678   0.78759   0.35066   0.00000  Uiso   1.00
N92    N     0.04555   0.00992   0.71299   0.00000  Uiso   1.00
C93    C     0.00193   0.66405   0.92512   0.00000  Uiso   1.00
C94    C     0.95319   0.66131   0.02932   0.00000  Uiso   1.00
C95    C     0.89426   0.68298   0.03487   0.00000  Uiso   1.00
C96    C     0.85660   0.67619   0.13799   0.00000  Uiso   1.00
C97    C     0.77780   0.67614   0.28551   0.00000  Uiso   1.00
C98    C     0.06565   0.67872   0.98232   0.00000  Uiso   1.00
C99    C     0.10127   0.71502   0.94833   0.00000  Uiso   1.00
C100   C     0.15828   0.72288   0.01187   0.00000  Uiso   1.00
C101   C     0.25410   0.74984   0.08635   0.00000  Uiso   1.00
C102   C     0.01293   0.61745   0.88247   0.00000  Uiso   1.00
C103   C     0.00425   0.60223   0.76451   0.00000  Uiso   1.00
C104   C     0.01689   0.55850   0.74398   0.00000  Uiso   1.00
C105   C     0.03085   0.49032   0.66342   0.00000  Uiso   1.00
C106   C     0.03983   0.61346   0.09840   0.00000  Uiso   1.00
C107   C     0.97378   0.63383   0.12344   0.00000  Uiso   1.00
C108   C     0.93619   0.62701   0.22658   0.00000  Uiso   1.00
C109   C     0.87722   0.64866   0.23228   0.00000  Uiso   1.00
C110   C     0.08623   0.65124   0.07643   0.00000  Uiso   1.00
C111   C     0.14320   0.65905   0.14004   0.00000  Uiso   1.00
C112   C     0.17890   0.69535   0.10616   0.00000  Uiso   1.00
C113   C     0.03351   0.58997   0.97658   0.00000  Uiso   1.00
C114   C     0.04617   0.54625   0.95623   0.00000  Uiso   1.00
C115   C     0.03751   0.53097   0.83827   0.00000  Uiso   1.00
H116   H     0.98591   0.68545   0.85185   0.00000  Uiso   1.00
H117   H     0.87835   0.70425   0.96202   0.00000  Uiso   1.00
H118   H     0.08534   0.73628   0.87548   0.00000  Uiso   1.00
H119   H     0.98832   0.62351   0.69170   0.00000  Uiso   1.00
H120   H     0.76820   0.71299   0.12570   0.00000  Uiso   1.00
H121   H     0.20464   0.78052   0.94320   0.00000  Uiso   1.00
H122   H     0.00007   0.54272   0.55565   0.00000  Uiso   1.00
H123   H     0.05586   0.59206   0.17167   0.00000  Uiso   1.00
H124   H     0.95213   0.60574   0.29940   0.00000  Uiso   1.00
H125   H     0.15912   0.63777   0.21286   0.00000  Uiso   1.00
H126   H     0.06210   0.52500   0.02908   0.00000  Uiso   1.00
H127   H     0.82808   0.63304   0.39953   0.00000  Uiso   1.00
H128   H     0.26453   0.70057   0.21702   0.00000  Uiso   1.00
H129   H     0.05995   0.46276   0.82949   0.00000  Uiso   1.00
O130   O     0.72866   0.68371   0.34088   0.00000  Uiso   1.00
O131   O     0.30126   0.77230   0.10143   0.00000  Uiso   1.00
O132   O     0.03286   0.46031   0.59299   0.00000  Uiso   1.00
N133   N     0.79652   0.69229   0.17260   0.00000  Uiso   1.00
N134   N     0.20456   0.75543   0.00199   0.00000  Uiso   1.00
N135   N     0.01332   0.53311   0.63966   0.00000  Uiso   1.00
N136   N     0.82874   0.64927   0.31995   0.00000  Uiso   1.00
N137   N     0.23678   0.71241   0.14934   0.00000  Uiso   1.00
N138   N     0.04555   0.49008   0.78701   0.00000  Uiso   1.00
C139   C     0.49807   0.33595   0.92512   0.00000  Uiso   1.00
C140   C     0.54681   0.33869   0.02932   0.00000  Uiso   1.00
C141   C     0.60574   0.31702   0.03487   0.00000  Uiso   1.00
C142   C     0.64340   0.32381   0.13799   0.00000  Uiso   1.00
C143   C     0.72220   0.32386   0.28551   0.00000  Uiso   1.00
C144   C     0.43435   0.32128   0.98232   0.00000  Uiso   1.00
C145   C     0.39873   0.28498   0.94833   0.00000  Uiso   1.00
C146   C     0.34172   0.27712   0.01187   0.00000  Uiso   1.00
C147   C     0.24590   0.25016   0.08635   0.00000  Uiso   1.00
C148   C     0.48707   0.38255   0.88247   0.00000  Uiso   1.00
C149   C     0.49575   0.39777   0.76451   0.00000  Uiso   1.00
C150   C     0.48311   0.44150   0.74398   0.00000  Uiso   1.00
C151   C     0.46915   0.50968   0.66342   0.00000  Uiso   1.00
C152   C     0.46017   0.38654   0.09840   0.00000  Uiso   1.00
C153   C     0.52622   0.36617   0.12344   0.00000  Uiso   1.00
C154   C     0.56381   0.37299   0.22658   0.00000  Uiso   1.00
C155   C     0.62278   0.35134   0.23228   0.00000  Uiso   1.00
C156   C     0.41377   0.34876   0.07643   0.00000  Uiso   1.00
C157   C     0.35680   0.34095   0.14004   0.00000  Uiso   1.00
C158   C     0.32110   0.30465   0.10616   0.00000  Uiso   1.00
C159   C     0.46649   0.41003   0.97658   0.00000  Uiso   1.00
C160   C     0.45383   0.45375   0.95623   0.00000  Uiso   1.00
C161   C     0.46249   0.46903   0.83827   0.00000  Uiso   1.00
H162   H     0.51409   0.31455   0.85185   0.00000  Uiso   1.00
H163   H     0.62165   0.29575   0.96202   0.00000  Uiso   1.00
H164   H     0.41466   0.26372   0.87548   0.00000  Uiso   1.00
H165   H     0.51168   0.37649   0.69170   0.00000  Uiso   1.00
H166   H     0.73180   0.28701   0.12570   0.00000  Uiso   1.00
H167   H     0.29536   0.21948   0.94320   0.00000  Uiso   1.00
H168   H     0.49993   0.45728   0.55565   0.00000  Uiso   1.00
H169   H     0.44414   0.40794   0.17167   0.00000  Uiso   1.00
H170   H     0.54787   0.39426   0.29940   0.00000  Uiso   1.00
H171   H     0.34088   0.36223   0.21286   0.00000  Uiso   1.00
H172   H     0.43790   0.47500   0.02908   0.00000  Uiso   1.00
H173   H     0.67192   0.36696   0.39953   0.00000  Uiso   1.00
H174   H     0.23547   0.29943   0.21702   0.00000  Uiso   1.00
H175   H     0.44005   0.53724   0.82949   0.00000  Uiso   1.00
O176   O     0.77134   0.31629   0.34088   0.00000  Uiso   1.00
O177   O     0.19874   0.22770   0.10143   0.00000  Uiso   1.00
O178   O     0.46714   0.53969   0.59299   0.00000  Uiso   1.00
N179   N     0.70348   0.30771   0.17260   0.00000  Uiso   1.00
N180   N     0.29544   0.24457   0.00199   0.00000  Uiso   1.00
N181   N     0.48668   0.46689   0.63966   0.00000  Uiso   1.00
N182   N     0.67126   0.35073   0.31995   0.00000  Uiso   1.00
N183   N     0.26322   0.28759   0.14934   0.00000  Uiso   1.00
N184   N     0.45445   0.50992   0.78701   0.00000  Uiso   1.00
C185   C     0.50193   0.83595   0.42512   0.00000  Uiso   1.00
C186   C     0.45319   0.83869   0.52932   0.00000  Uiso   1.00
C187   C     0.39426   0.81702   0.53487   0.00000  Uiso   1.00
C188   C     0.35660   0.82381   0.63799   0.00000  Uiso   1.00
C189   C     0.27780   0.82386   0.78551   0.00000  Uiso   1.00
C190   C     0.56565   0.82128   0.48232   0.00000  Uiso   1.00
C191   C     0.60127   0.78498   0.44833   0.00000  Uiso   1.00
C192   C     0.65828   0.77712   0.51187   0.00000  Uiso   1.00
C193   C     0.75410   0.75016   0.58635   0.00000  Uiso   1.00
C194   C     0.51293   0.88255   0.38247   0.00000  Uiso   1.00
C195   C     0.50425   0.89777   0.26451   0.00000  Uiso   1.00
C196   C     0.51689   0.94150   0.24398   0.00000  Uiso   1.00
C197   C     0.53085   0.00968   0.16342   0.00000  Uiso   1.00
C198   C     0.53983   0.88654   0.59840   0.00000  Uiso   1.00
C199   C     0.47378   0.86617   0.62344   0.00000  Uiso   1.00
C200   C     0.43619   0.87299   0.72658   0.00000  Uiso   1.00
C201   C     0.37722   0.85134   0.73228   0.00000  Uiso   1.00
C202   C     0.58623   0.84876   0.57643   0.00000  Uiso   1.00
C203   C     0.64320   0.84095   0.64004   0.00000  Uiso   1.00
C204   C     0.67890   0.80465   0.60616   0.00000  Uiso   1.00
C205   C     0.53351   0.91003   0.47658   0.00000  Uiso   1.00
C206   C     0.54617   0.95375   0.45623   0.00000  Uiso   1.00
C207   C     0.53751   0.96903   0.33827   0.00000  Uiso   1.00
H208   H     0.48591   0.81455   0.35185   0.00000  Uiso   1.00
H209   H     0.37835   0.79575   0.46202   0.00000  Uiso   1.00
H210   H     0.58534   0.76372   0.37548   0.00000  Uiso   1.00
H211   H     0.48832   0.87649   0.19170   0.00000  Uiso   1.00
H212   H     0.26820   0.78701   0.62570   0.00000  Uiso   1.00
H213   H     0.70464   0.71948   0.44320   0.00000  Uiso   1.00
H214   H     0.50007   0.95728   0.05565   0.00000  Uiso   1.00
H215   H     0.55586   0.90794   0.67167   0.00000  Uiso   1.00
H216   H     0.45213   0.89426   0.79940   0.00000  Uiso   1.00
H217   H     0.65912   0.86223   0.71286   0.00000  Uiso   1.00
H218   H     0.56210   0.97500   0.52908   0.00000  Uiso   1.00
H219   H     0.32808   0.86696   0.89953   0.00000  Uiso   1.00
H220   H     0.76453   0.79943   0.71702   0.00000  Uiso   1.00
H221   H     0.55995   0.03724   0.32949   0.00000  Uiso   1.00
O222   O     0.22866   0.81629   0.84088   0.00000  Uiso   1.00
O223   O     0.80126   0.72770   0.60143   0.00000  Uiso   1.00
O224   O     0.53286   0.03969   0.09299   0.00000  Uiso   1.00
N225   N     0.29652   0.80771   0.67260   0.00000  Uiso   1.00
N226   N     0.70456   0.74457   0.50199   0.00000  Uiso   1.00
N227   N     0.51332   0.96689   0.13966   0.00000  Uiso   1.00
N228   N     0.32874   0.85073   0.81995   0.00000  Uiso   1.00
N229   N     0.73678   0.78759   0.64934   0.00000  Uiso   1.00
N230   N     0.54555   0.00992   0.28701   0.00000  Uiso   1.00
C231   C     0.99807   0.16405   0.42512   0.00000  Uiso   1.00
C232   C     0.04681   0.16131   0.52932   0.00000  Uiso   1.00
C233   C     0.10574   0.18298   0.53487   0.00000  Uiso   1.00
C234   C     0.14340   0.17619   0.63799   0.00000  Uiso   1.00
C235   C     0.22220   0.17614   0.78551   0.00000  Uiso   1.00
C236   C     0.93435   0.17872   0.48232   0.00000  Uiso   1.00
C237   C     0.89873   0.21502   0.44833   0.00000  Uiso   1.00
C238   C     0.84172   0.22288   0.51187   0.00000  Uiso   1.00
C239   C     0.74590   0.24984   0.58635   0.00000  Uiso   1.00
C240   C     0.98707   0.11745   0.38247   0.00000  Uiso   1.00
C241   C     0.99575   0.10223   0.26451   0.00000  Uiso   1.00
C242   C     0.98311   0.05850   0.24398   0.00000  Uiso   1.00
C243   C     0.96915   0.99032   0.16342   0.00000  Uiso   1.00
C244   C     0.96017   0.11346   0.59840   0.00000  Uiso   1.00
C245   C     0.02622   0.13383   0.62344   0.00000  Uiso   1.00
C246   C     0.06381   0.12701   0.72658   0.00000  Uiso   1.00
C247   C     0.12278   0.14866   0.73228   0.00000  Uiso   1.00
C248   C     0.91377   0.15124   0.57643   0.00000  Uiso   1.00
C249   C     0.85680   0.15905   0.64004   0.00000  Uiso   1.00
C250   C     0.82110   0.19535   0.60616   0.00000  Uiso   1.00
C251   C     0.96649   0.08997   0.47658   0.00000  Uiso   1.00
C252   C     0.95383   0.04625   0.45623   0.00000  Uiso   1.00
C253   C     0.96249   0.03097   0.33827   0.00000  Uiso   1.00
H254   H     0.01409   0.18545   0.35185   0.00000  Uiso   1.00
H255   H     0.12165   0.20425   0.46202   0.00000  Uiso   1.00
H256   H     0.91466   0.23628   0.37548   0.00000  Uiso   1.00
H257   H     0.01168   0.12351   0.19170   0.00000  Uiso   1.00
H258   H     0.23180   0.21299   0.62570   0.00000  Uiso   1.00
H259   H     0.79536   0.28052   0.44320   0.00000  Uiso   1.00
H260   H     0.99993   0.04272   0.05565   0.00000  Uiso   1.00
H261   H     0.94414   0.09206   0.67167   0.00000  Uiso   1.00
H262   H     0.04787   0.10574   0.79940   0.00000  Uiso   1.00
H263   H     0.84088   0.13777   0.71286   0.00000  Uiso   1.00
H264   H     0.93790   0.02500   0.52908   0.00000  Uiso   1.00
H265   H     0.17192   0.13304   0.89953   0.00000  Uiso   1.00
H266   H     0.73547   0.20057   0.71702   0.00000  Uiso   1.00
H267   H     0.94005   0.96276   0.32949   0.00000  Uiso   1.00
O268   O     0.27134   0.18371   0.84088   0.00000  Uiso   1.00
O269   O     0.69874   0.27230   0.60143   0.00000  Uiso   1.00
O270   O     0.96714   0.96031   0.09299   0.00000  Uiso   1.00
N271   N     0.20348   0.19229   0.67260   0.00000  Uiso   1.00
N272   N     0.79544   0.25543   0.50199   0.00000  Uiso   1.00
N273   N     0.98668   0.03311   0.13966   0.00000  Uiso   1.00
N274   N     0.17126   0.14927   0.81995   0.00000  Uiso   1.00
N275   N     0.76322   0.21241   0.64934   0.00000  Uiso   1.00
N276   N     0.95445   0.99008   0.28701   0.00000  Uiso   1.00
C277   C     0.99807   0.33595   0.07488   0.00000  Uiso   1.00
C278   C     0.04681   0.33869   0.97068   0.00000  Uiso   1.00
C279   C     0.10574   0.31702   0.96513   0.00000  Uiso   1.00
C280   C     0.14340   0.32381   0.86201   0.00000  Uiso   1.00
C281   C     0.22220   0.32386   0.71449   0.00000  Uiso   1.00
C282   C     0.93435   0.32128   0.01768   0.00000  Uiso   1.00
C283   C     0.89873   0.28498   0.05167   0.00000  Uiso   1.00
C284   C     0.84172   0.27712   0.98813   0.00000  Uiso   1.00
C285   C     0.74590   0.25016   0.91365   0.00000  Uiso   1.00
C286   C     0.98707   0.38255   0.11753   0.00000  Uiso   1.00
C287   C     0.99575   0.39777   0.23549   0.00000  Uiso   1.00
C288   C     0.98311   0.44150   0.25602   0.00000  Uiso   1.00
C289   C     0.96915   0.50968   0.33658   0.00000  Uiso   1.00
C290   C     0.96017   0.38654   0.90160   0.00000  Uiso   1.00
C291   C     0.02622   0.36617   0.87656   0.00000  Uiso   1.00
C292   C     0.06381   0.37299   0.77342   0.00000  Uiso   1.00
C293   C     0.12278   0.35134   0.76772   0.00000  Uiso   1.00
C294   C     0.91377   0.34876   0.92357   0.00000  Uiso   1.00
C295   C     0.85680   0.34095   0.85996   0.00000  Uiso   1.00
C296   C     0.82110   0.30465   0.89384   0.00000  Uiso   1.00
C297   C     0.96649   0.41003   0.02342   0.00000  Uiso   1.00
C298   C     0.95383   0.45375   0.04377   0.00000  Uiso   1.00
C299   C     0.96249   0.46903   0.16173   0.00000  Uiso   1.00
H300   H     0.01409   0.31455   0.14815   0.00000  Uiso   1.00
H301   H     0.12165   0.29575   0.03798   0.00000  Uiso   1.00
H302   H     0.91466   0.26372   0.12452   0.00000  Uiso   1.00
H303   H     0.01168   0.37649   0.30830   0.00000  Uiso   1.00
H304   H     0.23180   0.28701   0.87430   0.00000  Uiso   1.00
H305   H     0.79536   0.21948   0.05680   0.00000  Uiso   1.00
H306   H     0.99993   0.45728   0.44435   0.00000  Uiso   1.00
H307   H     0.94414   0.40794   0.82833   0.00000  Uiso   1.00
H308   H     0.04787   0.39426   0.70060   0.00000  Uiso   1.00
H309   H     0.84088   0.36223   0.78714   0.00000  Uiso   1.00
H310   H     0.93790   0.47500   0.97092   0.00000  Uiso   1.00
H311   H     0.17192   0.36696   0.60047   0.00000  Uiso   1.00
H312   H     0.73547   0.29943   0.78298   0.00000  Uiso   1.00
H313   H     0.94005   0.53724   0.17051   0.00000  Uiso   1.00
O314   O     0.27134   0.31629   0.65912   0.00000  Uiso   1.00
O315   O     0.69874   0.22770   0.89857   0.00000  Uiso   1.00
O316   O     0.96714   0.53969   0.40701   0.00000  Uiso   1.00
N317   N     0.20348   0.30771   0.82740   0.00000  Uiso   1.00
N318   N     0.79544   0.24457   0.99801   0.00000  Uiso   1.00
N319   N     0.98668   0.46689   0.36034   0.00000  Uiso   1.00
N320   N     0.17126   0.35073   0.68005   0.00000  Uiso   1.00
N321   N     0.76322   0.28759   0.85066   0.00000  Uiso   1.00
N322   N     0.95445   0.50992   0.21299   0.00000  Uiso   1.00
C323   C     0.50193   0.66405   0.07488   0.00000  Uiso   1.00
C324   C     0.45319   0.66131   0.97068   0.00000  Uiso   1.00
C325   C     0.39426   0.68298   0.96513   0.00000  Uiso   1.00
C326   C     0.35660   0.67619   0.86201   0.00000  Uiso   1.00
C327   C     0.27780   0.67614   0.71449   0.00000  Uiso   1.00
C328   C     0.56565   0.67872   0.01768   0.00000  Uiso   1.00
C329   C     0.60127   0.71502   0.05167   0.00000  Uiso   1.00
C330   C     0.65828   0.72288   0.98813   0.00000  Uiso   1.00
C331   C     0.75410   0.74984   0.91365   0.00000  Uiso   1.00
C332   C     0.51293   0.61745   0.11753   0.00000  Uiso   1.00
C333   C     0.50425   0.60223   0.23549   0.00000  Uiso   1.00
C334   C     0.51689   0.55850   0.25602   0.00000  Uiso   1.00
C335   C     0.53085   0.49032   0.33658   0.00000  Uiso   1.00
C336   C     0.53983   0.61346   0.90160   0.00000  Uiso   1.00
C337   C     0.47378   0.63383   0.87656   0.00000  Uiso   1.00
C338   C     0.43619   0.62701   0.77342   0.00000  Uiso   1.00
C339   C     0.37722   0.64866   0.76772   0.00000  Uiso   1.00
C340   C     0.58623   0.65124   0.92357   0.00000  Uiso   1.00
C341   C     0.64320   0.65905   0.85996   0.00000  Uiso   1.00
C342   C     0.67890   0.69535   0.89384   0.00000  Uiso   1.00
C343   C     0.53351   0.58997   0.02342   0.00000  Uiso   1.00
C344   C     0.54617   0.54625   0.04377   0.00000  Uiso   1.00
C345   C     0.53751   0.53097   0.16173   0.00000  Uiso   1.00
H346   H     0.48591   0.68545   0.14815   0.00000  Uiso   1.00
H347   H     0.37835   0.70425   0.03798   0.00000  Uiso   1.00
H348   H     0.58534   0.73628   0.12452   0.00000  Uiso   1.00
H349   H     0.48832   0.62351   0.30830   0.00000  Uiso   1.00
H350   H     0.26820   0.71299   0.87430   0.00000  Uiso   1.00
H351   H     0.70464   0.78052   0.05680   0.00000  Uiso   1.00
H352   H     0.50007   0.54272   0.44435   0.00000  Uiso   1.00
H353   H     0.55586   0.59206   0.82833   0.00000  Uiso   1.00
H354   H     0.45213   0.60574   0.70060   0.00000  Uiso   1.00
H355   H     0.65912   0.63777   0.78714   0.00000  Uiso   1.00
H356   H     0.56210   0.52500   0.97092   0.00000  Uiso   1.00
H357   H     0.32808   0.63304   0.60047   0.00000  Uiso   1.00
H358   H     0.76453   0.70057   0.78298   0.00000  Uiso   1.00
H359   H     0.55995   0.46276   0.17051   0.00000  Uiso   1.00
O360   O     0.22866   0.68371   0.65912   0.00000  Uiso   1.00
O361   O     0.80126   0.77230   0.89857   0.00000  Uiso   1.00
O362   O     0.53286   0.46031   0.40701   0.00000  Uiso   1.00
N363   N     0.29652   0.69229   0.82740   0.00000  Uiso   1.00
N364   N     0.70456   0.75543   0.99801   0.00000  Uiso   1.00
N365   N     0.51332   0.53311   0.36034   0.00000  Uiso   1.00
N366   N     0.32874   0.64927   0.68005   0.00000  Uiso   1.00
N367   N     0.73678   0.71241   0.85066   0.00000  Uiso   1.00
N368   N     0.54555   0.49008   0.21299   0.00000  Uiso   1.00
