data_job_05286
_audit_creation_date              2018-12-19
_audit_creation_method            'Materials Studio'
_symmetry_space_group_name_H-M    'P1'
_symmetry_Int_Tables_number       1
_symmetry_cell_setting            triclinic
loop_
_symmetry_equiv_pos_as_xyz
  x,y,z
_cell_length_a                    17.3502
_cell_length_b                    17.7189
_cell_length_c                    17.0456
_cell_angle_alpha                 90.0000
_cell_angle_beta                  90.0000
_cell_angle_gamma                 90.0000
loop_
_atom_site_label
_atom_site_type_symbol
_atom_site_fract_x
_atom_site_fract_y
_atom_site_fract_z
_atom_site_U_iso_or_equiv
_atom_site_adp_type
_atom_site_occupancy
C1     C     0.92779   0.97540   0.27761   0.00000  Uiso   1.00
C2     C     0.86439   0.94003   0.22773   0.00000  Uiso   1.00
C3     C     0.78608   0.95465   0.23438   0.00000  Uiso   1.00
C4     C     0.73739   0.91656   0.18329   0.00000  Uiso   1.00
C5     C     0.63458   0.86936   0.11435   0.00000  Uiso   1.00
C6     C     0.97147   0.90977   0.31468   0.00000  Uiso   1.00
C7     C     0.98319   0.89896   0.39443   0.00000  Uiso   1.00
C8     C     0.02465   0.83540   0.41653   0.00000  Uiso   1.00
C9     C     0.08813   0.74125   0.48257   0.00000  Uiso   1.00
C10    C     0.98368   0.01220   0.22014   0.00000  Uiso   1.00
C11    C     0.00571   0.08750   0.22042   0.00000  Uiso   1.00
C12    C     0.05747   0.11016   0.16294   0.00000  Uiso   1.00
C13    C     0.13991   0.17504   0.08219   0.00000  Uiso   1.00
C14    C     0.98057   0.88175   0.17505   0.00000  Uiso   1.00
C15    C     0.89306   0.88917   0.17203   0.00000  Uiso   1.00
C16    C     0.84448   0.85105   0.12091   0.00000  Uiso   1.00
C17    C     0.76611   0.86560   0.12749   0.00000  Uiso   1.00
C18    C     0.00014   0.85891   0.25898   0.00000  Uiso   1.00
C19    C     0.04159   0.79535   0.28096   0.00000  Uiso   1.00
C20    C     0.05338   0.78444   0.36073   0.00000  Uiso   1.00
C21    C     0.01235   0.96134   0.16444   0.00000  Uiso   1.00
C22    C     0.06410   0.98389   0.10695   0.00000  Uiso   1.00
C23    C     0.08619   0.05921   0.10713   0.00000  Uiso   1.00
H24    H     0.90547   0.01499   0.32098   0.00000  Uiso   1.00
H25    H     0.76391   0.99401   0.27750   0.00000  Uiso   1.00
H26    H     0.96101   0.93833   0.43752   0.00000  Uiso   1.00
H27    H     0.98351   0.12684   0.26353   0.00000  Uiso   1.00
H28    H     0.61961   0.94830   0.20475   0.00000  Uiso   1.00
H29    H     0.03521   0.83091   0.54216   0.00000  Uiso   1.00
H30    H     0.08267   0.22842   0.17528   0.00000  Uiso   1.00
H31    H     0.00290   0.84215   0.13169   0.00000  Uiso   1.00
H32    H     0.86668   0.81169   0.07781   0.00000  Uiso   1.00
H33    H     0.06377   0.75601   0.23784   0.00000  Uiso   1.00
H34    H     0.08627   0.94451   0.06385   0.00000  Uiso   1.00
H35    H     0.70302   0.80032   0.04268   0.00000  Uiso   1.00
H36    H     0.11863   0.68293   0.38010   0.00000  Uiso   1.00
H37    H     0.16607   0.08043   0.01321   0.00000  Uiso   1.00
O38    O     0.56995   0.85737   0.09171   0.00000  Uiso   1.00
O39    O     0.11522   0.70337   0.53438   0.00000  Uiso   1.00
O40    O     0.17746   0.22488   0.05304   0.00000  Uiso   1.00
N41    N     0.65794   0.91766   0.17399   0.00000  Uiso   1.00
N42    N     0.04649   0.80791   0.48945   0.00000  Uiso   1.00
N43    N     0.09087   0.17953   0.14646   0.00000  Uiso   1.00
N44    N     0.70282   0.83804   0.08678   0.00000  Uiso   1.00
N45    N     0.09137   0.72828   0.40224   0.00000  Uiso   1.00
N46    N     0.13575   0.09991   0.05925   0.00000  Uiso   1.00
C47    C     0.57221   0.52460   0.27761   0.00000  Uiso   1.00
C48    C     0.63561   0.55997   0.22773   0.00000  Uiso   1.00
C49    C     0.71392   0.54535   0.23438   0.00000  Uiso   1.00
C50    C     0.76261   0.58344   0.18329   0.00000  Uiso   1.00
C51    C     0.86542   0.63064   0.11435   0.00000  Uiso   1.00
C52    C     0.52853   0.59023   0.31468   0.00000  Uiso   1.00
C53    C     0.51681   0.60104   0.39443   0.00000  Uiso   1.00
C54    C     0.47535   0.66460   0.41653   0.00000  Uiso   1.00
C55    C     0.41187   0.75875   0.48257   0.00000  Uiso   1.00
C56    C     0.51632   0.48780   0.22014   0.00000  Uiso   1.00
C57    C     0.49429   0.41250   0.22042   0.00000  Uiso   1.00
C58    C     0.44253   0.38984   0.16294   0.00000  Uiso   1.00
C59    C     0.36009   0.32496   0.08219   0.00000  Uiso   1.00
C60    C     0.51943   0.61825   0.17505   0.00000  Uiso   1.00
C61    C     0.60694   0.61083   0.17203   0.00000  Uiso   1.00
C62    C     0.65552   0.64895   0.12091   0.00000  Uiso   1.00
C63    C     0.73389   0.63440   0.12749   0.00000  Uiso   1.00
C64    C     0.49986   0.64109   0.25898   0.00000  Uiso   1.00
C65    C     0.45841   0.70465   0.28096   0.00000  Uiso   1.00
C66    C     0.44662   0.71556   0.36073   0.00000  Uiso   1.00
C67    C     0.48765   0.53866   0.16444   0.00000  Uiso   1.00
C68    C     0.43590   0.51611   0.10695   0.00000  Uiso   1.00
C69    C     0.41381   0.44079   0.10713   0.00000  Uiso   1.00
H70    H     0.59453   0.48501   0.32098   0.00000  Uiso   1.00
H71    H     0.73609   0.50599   0.27750   0.00000  Uiso   1.00
H72    H     0.53899   0.56167   0.43752   0.00000  Uiso   1.00
H73    H     0.51649   0.37316   0.26353   0.00000  Uiso   1.00
H74    H     0.88039   0.55170   0.20475   0.00000  Uiso   1.00
H75    H     0.46479   0.66909   0.54216   0.00000  Uiso   1.00
H76    H     0.41733   0.27158   0.17528   0.00000  Uiso   1.00
H77    H     0.49710   0.65785   0.13169   0.00000  Uiso   1.00
H78    H     0.63332   0.68831   0.07781   0.00000  Uiso   1.00
H79    H     0.43623   0.74399   0.23784   0.00000  Uiso   1.00
H80    H     0.41373   0.55549   0.06385   0.00000  Uiso   1.00
H81    H     0.79698   0.69968   0.04268   0.00000  Uiso   1.00
H82    H     0.38137   0.81707   0.38010   0.00000  Uiso   1.00
H83    H     0.33393   0.41957   0.01321   0.00000  Uiso   1.00
O84    O     0.93005   0.64263   0.09171   0.00000  Uiso   1.00
O85    O     0.38478   0.79663   0.53438   0.00000  Uiso   1.00
O86    O     0.32254   0.27512   0.05304   0.00000  Uiso   1.00
N87    N     0.84206   0.58234   0.17399   0.00000  Uiso   1.00
N88    N     0.45351   0.69209   0.48945   0.00000  Uiso   1.00
N89    N     0.40913   0.32047   0.14646   0.00000  Uiso   1.00
N90    N     0.79718   0.66196   0.08678   0.00000  Uiso   1.00
N91    N     0.40863   0.77172   0.40224   0.00000  Uiso   1.00
N92    N     0.36425   0.40009   0.05925   0.00000  Uiso   1.00
C93    C     0.07221   0.47540   0.22239   0.00000  Uiso   1.00
C94    C     0.13561   0.44003   0.27227   0.00000  Uiso   1.00
C95    C     0.21392   0.45465   0.26562   0.00000  Uiso   1.00
C96    C     0.26261   0.41656   0.31671   0.00000  Uiso   1.00
C97    C     0.36542   0.36936   0.38565   0.00000  Uiso   1.00
C98    C     0.02853   0.40977   0.18532   0.00000  Uiso   1.00
C99    C     0.01681   0.39896   0.10557   0.00000  Uiso   1.00
C100   C     0.97535   0.33540   0.08347   0.00000  Uiso   1.00
C101   C     0.91187   0.24125   0.01743   0.00000  Uiso   1.00
C102   C     0.01632   0.51220   0.27986   0.00000  Uiso   1.00
C103   C     0.99429   0.58750   0.27958   0.00000  Uiso   1.00
C104   C     0.94253   0.61016   0.33706   0.00000  Uiso   1.00
C105   C     0.86009   0.67504   0.41781   0.00000  Uiso   1.00
C106   C     0.01943   0.38175   0.32495   0.00000  Uiso   1.00
C107   C     0.10694   0.38917   0.32797   0.00000  Uiso   1.00
C108   C     0.15552   0.35105   0.37909   0.00000  Uiso   1.00
C109   C     0.23389   0.36560   0.37251   0.00000  Uiso   1.00
C110   C     0.99986   0.35891   0.24102   0.00000  Uiso   1.00
C111   C     0.95841   0.29535   0.21904   0.00000  Uiso   1.00
C112   C     0.94662   0.28444   0.13927   0.00000  Uiso   1.00
C113   C     0.98765   0.46134   0.33556   0.00000  Uiso   1.00
C114   C     0.93590   0.48389   0.39305   0.00000  Uiso   1.00
C115   C     0.91381   0.55921   0.39287   0.00000  Uiso   1.00
H116   H     0.09453   0.51499   0.17902   0.00000  Uiso   1.00
H117   H     0.23609   0.49401   0.22250   0.00000  Uiso   1.00
H118   H     0.03899   0.43833   0.06248   0.00000  Uiso   1.00
H119   H     0.01649   0.62684   0.23647   0.00000  Uiso   1.00
H120   H     0.38039   0.44830   0.29525   0.00000  Uiso   1.00
H121   H     0.96479   0.33091   0.95784   0.00000  Uiso   1.00
H122   H     0.91733   0.72842   0.32472   0.00000  Uiso   1.00
H123   H     0.99710   0.34215   0.36831   0.00000  Uiso   1.00
H124   H     0.13332   0.31169   0.42219   0.00000  Uiso   1.00
H125   H     0.93623   0.25601   0.26216   0.00000  Uiso   1.00
H126   H     0.91373   0.44451   0.43615   0.00000  Uiso   1.00
H127   H     0.29698   0.30032   0.45732   0.00000  Uiso   1.00
H128   H     0.88137   0.18293   0.11990   0.00000  Uiso   1.00
H129   H     0.83393   0.58043   0.48679   0.00000  Uiso   1.00
O130   O     0.43005   0.35737   0.40829   0.00000  Uiso   1.00
O131   O     0.88478   0.20337   0.96562   0.00000  Uiso   1.00
O132   O     0.82254   0.72488   0.44696   0.00000  Uiso   1.00
N133   N     0.34206   0.41766   0.32601   0.00000  Uiso   1.00
N134   N     0.95351   0.30791   0.01055   0.00000  Uiso   1.00
N135   N     0.90913   0.67953   0.35354   0.00000  Uiso   1.00
N136   N     0.29718   0.33804   0.41322   0.00000  Uiso   1.00
N137   N     0.90863   0.22828   0.09776   0.00000  Uiso   1.00
N138   N     0.86425   0.59991   0.44075   0.00000  Uiso   1.00
C139   C     0.42779   0.02460   0.22239   0.00000  Uiso   1.00
C140   C     0.36439   0.05997   0.27227   0.00000  Uiso   1.00
C141   C     0.28608   0.04535   0.26562   0.00000  Uiso   1.00
C142   C     0.23739   0.08344   0.31671   0.00000  Uiso   1.00
C143   C     0.13458   0.13064   0.38565   0.00000  Uiso   1.00
C144   C     0.47147   0.09023   0.18532   0.00000  Uiso   1.00
C145   C     0.48319   0.10104   0.10557   0.00000  Uiso   1.00
C146   C     0.52465   0.16460   0.08347   0.00000  Uiso   1.00
C147   C     0.58813   0.25875   0.01743   0.00000  Uiso   1.00
C148   C     0.48368   0.98780   0.27986   0.00000  Uiso   1.00
C149   C     0.50571   0.91250   0.27958   0.00000  Uiso   1.00
C150   C     0.55747   0.88984   0.33706   0.00000  Uiso   1.00
C151   C     0.63991   0.82496   0.41781   0.00000  Uiso   1.00
C152   C     0.48057   0.11825   0.32495   0.00000  Uiso   1.00
C153   C     0.39306   0.11083   0.32797   0.00000  Uiso   1.00
C154   C     0.34448   0.14895   0.37909   0.00000  Uiso   1.00
C155   C     0.26611   0.13440   0.37251   0.00000  Uiso   1.00
C156   C     0.50014   0.14109   0.24102   0.00000  Uiso   1.00
C157   C     0.54159   0.20465   0.21904   0.00000  Uiso   1.00
C158   C     0.55338   0.21556   0.13927   0.00000  Uiso   1.00
C159   C     0.51235   0.03866   0.33556   0.00000  Uiso   1.00
C160   C     0.56410   0.01611   0.39305   0.00000  Uiso   1.00
C161   C     0.58619   0.94079   0.39287   0.00000  Uiso   1.00
H162   H     0.40547   0.98501   0.17902   0.00000  Uiso   1.00
H163   H     0.26391   0.00599   0.22250   0.00000  Uiso   1.00
H164   H     0.46101   0.06167   0.06248   0.00000  Uiso   1.00
H165   H     0.48351   0.87316   0.23647   0.00000  Uiso   1.00
H166   H     0.11961   0.05170   0.29525   0.00000  Uiso   1.00
H167   H     0.53521   0.16909   0.95784   0.00000  Uiso   1.00
H168   H     0.58267   0.77158   0.32472   0.00000  Uiso   1.00
H169   H     0.50290   0.15785   0.36831   0.00000  Uiso   1.00
H170   H     0.36668   0.18831   0.42219   0.00000  Uiso   1.00
H171   H     0.56377   0.24399   0.26216   0.00000  Uiso   1.00
H172   H     0.58627   0.05549   0.43615   0.00000  Uiso   1.00
H173   H     0.20302   0.19968   0.45732   0.00000  Uiso   1.00
H174   H     0.61863   0.31707   0.11990   0.00000  Uiso   1.00
H175   H     0.66607   0.91957   0.48679   0.00000  Uiso   1.00
O176   O     0.06995   0.14263   0.40829   0.00000  Uiso   1.00
O177   O     0.61522   0.29663   0.96562   0.00000  Uiso   1.00
O178   O     0.67746   0.77512   0.44696   0.00000  Uiso   1.00
N179   N     0.15794   0.08234   0.32601   0.00000  Uiso   1.00
N180   N     0.54649   0.19209   0.01055   0.00000  Uiso   1.00
N181   N     0.59087   0.82047   0.35354   0.00000  Uiso   1.00
N182   N     0.20282   0.16196   0.41322   0.00000  Uiso   1.00
N183   N     0.59137   0.27172   0.09776   0.00000  Uiso   1.00
N184   N     0.63575   0.90009   0.44075   0.00000  Uiso   1.00
C185   C     0.07221   0.02460   0.72239   0.00000  Uiso   1.00
C186   C     0.13561   0.05997   0.77227   0.00000  Uiso   1.00
C187   C     0.21392   0.04535   0.76562   0.00000  Uiso   1.00
C188   C     0.26261   0.08344   0.81671   0.00000  Uiso   1.00
C189   C     0.36542   0.13064   0.88565   0.00000  Uiso   1.00
C190   C     0.02853   0.09023   0.68532   0.00000  Uiso   1.00
C191   C     0.01681   0.10104   0.60557   0.00000  Uiso   1.00
C192   C     0.97535   0.16460   0.58347   0.00000  Uiso   1.00
C193   C     0.91187   0.25875   0.51743   0.00000  Uiso   1.00
C194   C     0.01632   0.98780   0.77986   0.00000  Uiso   1.00
C195   C     0.99429   0.91250   0.77958   0.00000  Uiso   1.00
C196   C     0.94253   0.88984   0.83706   0.00000  Uiso   1.00
C197   C     0.86009   0.82496   0.91781   0.00000  Uiso   1.00
C198   C     0.01943   0.11825   0.82495   0.00000  Uiso   1.00
C199   C     0.10694   0.11083   0.82797   0.00000  Uiso   1.00
C200   C     0.15552   0.14895   0.87909   0.00000  Uiso   1.00
C201   C     0.23389   0.13440   0.87251   0.00000  Uiso   1.00
C202   C     0.99986   0.14109   0.74102   0.00000  Uiso   1.00
C203   C     0.95841   0.20465   0.71904   0.00000  Uiso   1.00
C204   C     0.94662   0.21556   0.63927   0.00000  Uiso   1.00
C205   C     0.98765   0.03866   0.83556   0.00000  Uiso   1.00
C206   C     0.93590   0.01611   0.89305   0.00000  Uiso   1.00
C207   C     0.91381   0.94079   0.89287   0.00000  Uiso   1.00
H208   H     0.09453   0.98501   0.67902   0.00000  Uiso   1.00
H209   H     0.23609   0.00599   0.72250   0.00000  Uiso   1.00
H210   H     0.03899   0.06167   0.56248   0.00000  Uiso   1.00
H211   H     0.01649   0.87316   0.73647   0.00000  Uiso   1.00
H212   H     0.38039   0.05170   0.79525   0.00000  Uiso   1.00
H213   H     0.96479   0.16909   0.45784   0.00000  Uiso   1.00
H214   H     0.91733   0.77158   0.82472   0.00000  Uiso   1.00
H215   H     0.99710   0.15785   0.86831   0.00000  Uiso   1.00
H216   H     0.13332   0.18831   0.92219   0.00000  Uiso   1.00
H217   H     0.93623   0.24399   0.76216   0.00000  Uiso   1.00
H218   H     0.91373   0.05549   0.93615   0.00000  Uiso   1.00
H219   H     0.29698   0.19968   0.95732   0.00000  Uiso   1.00
H220   H     0.88137   0.31707   0.61990   0.00000  Uiso   1.00
H221   H     0.83393   0.91957   0.98679   0.00000  Uiso   1.00
O222   O     0.43005   0.14263   0.90829   0.00000  Uiso   1.00
O223   O     0.88478   0.29663   0.46562   0.00000  Uiso   1.00
O224   O     0.82254   0.77512   0.94696   0.00000  Uiso   1.00
N225   N     0.34206   0.08234   0.82601   0.00000  Uiso   1.00
N226   N     0.95351   0.19209   0.51055   0.00000  Uiso   1.00
N227   N     0.90913   0.82047   0.85354   0.00000  Uiso   1.00
N228   N     0.29718   0.16196   0.91322   0.00000  Uiso   1.00
N229   N     0.90863   0.27172   0.59776   0.00000  Uiso   1.00
N230   N     0.86425   0.90009   0.94075   0.00000  Uiso   1.00
C231   C     0.42779   0.47540   0.72239   0.00000  Uiso   1.00
C232   C     0.36439   0.44003   0.77227   0.00000  Uiso   1.00
C233   C     0.28608   0.45465   0.76562   0.00000  Uiso   1.00
C234   C     0.23739   0.41656   0.81671   0.00000  Uiso   1.00
C235   C     0.13458   0.36936   0.88565   0.00000  Uiso   1.00
C236   C     0.47147   0.40977   0.68532   0.00000  Uiso   1.00
C237   C     0.48319   0.39896   0.60557   0.00000  Uiso   1.00
C238   C     0.52465   0.33540   0.58347   0.00000  Uiso   1.00
C239   C     0.58813   0.24125   0.51743   0.00000  Uiso   1.00
C240   C     0.48368   0.51220   0.77986   0.00000  Uiso   1.00
C241   C     0.50571   0.58750   0.77958   0.00000  Uiso   1.00
C242   C     0.55747   0.61016   0.83706   0.00000  Uiso   1.00
C243   C     0.63991   0.67504   0.91781   0.00000  Uiso   1.00
C244   C     0.48057   0.38175   0.82495   0.00000  Uiso   1.00
C245   C     0.39306   0.38917   0.82797   0.00000  Uiso   1.00
C246   C     0.34448   0.35105   0.87909   0.00000  Uiso   1.00
C247   C     0.26611   0.36560   0.87251   0.00000  Uiso   1.00
C248   C     0.50014   0.35891   0.74102   0.00000  Uiso   1.00
C249   C     0.54159   0.29535   0.71904   0.00000  Uiso   1.00
C250   C     0.55338   0.28444   0.63927   0.00000  Uiso   1.00
C251   C     0.51235   0.46134   0.83556   0.00000  Uiso   1.00
C252   C     0.56410   0.48389   0.89305   0.00000  Uiso   1.00
C253   C     0.58619   0.55921   0.89287   0.00000  Uiso   1.00
H254   H     0.40547   0.51499   0.67902   0.00000  Uiso   1.00
H255   H     0.26391   0.49401   0.72250   0.00000  Uiso   1.00
H256   H     0.46101   0.43833   0.56248   0.00000  Uiso   1.00
H257   H     0.48351   0.62684   0.73647   0.00000  Uiso   1.00
H258   H     0.11961   0.44830   0.79525   0.00000  Uiso   1.00
H259   H     0.53521   0.33091   0.45784   0.00000  Uiso   1.00
H260   H     0.58267   0.72842   0.82472   0.00000  Uiso   1.00
H261   H     0.50290   0.34215   0.86831   0.00000  Uiso   1.00
H262   H     0.36668   0.31169   0.92219   0.00000  Uiso   1.00
H263   H     0.56377   0.25601   0.76216   0.00000  Uiso   1.00
H264   H     0.58627   0.44451   0.93615   0.00000  Uiso   1.00
H265   H     0.20302   0.30032   0.95732   0.00000  Uiso   1.00
H266   H     0.61863   0.18293   0.61990   0.00000  Uiso   1.00
H267   H     0.66607   0.58043   0.98679   0.00000  Uiso   1.00
O268   O     0.06995   0.35737   0.90829   0.00000  Uiso   1.00
O269   O     0.61522   0.20337   0.46562   0.00000  Uiso   1.00
O270   O     0.67746   0.72488   0.94696   0.00000  Uiso   1.00
N271   N     0.15794   0.41766   0.82601   0.00000  Uiso   1.00
N272   N     0.54649   0.30791   0.51055   0.00000  Uiso   1.00
N273   N     0.59087   0.67953   0.85354   0.00000  Uiso   1.00
N274   N     0.20282   0.33804   0.91322   0.00000  Uiso   1.00
N275   N     0.59137   0.22828   0.59776   0.00000  Uiso   1.00
N276   N     0.63575   0.59991   0.94075   0.00000  Uiso   1.00
C277   C     0.92779   0.52460   0.77761   0.00000  Uiso   1.00
C278   C     0.86439   0.55997   0.72773   0.00000  Uiso   1.00
C279   C     0.78608   0.54535   0.73438   0.00000  Uiso   1.00
C280   C     0.73739   0.58344   0.68329   0.00000  Uiso   1.00
C281   C     0.63458   0.63064   0.61435   0.00000  Uiso   1.00
C282   C     0.97147   0.59023   0.81468   0.00000  Uiso   1.00
C283   C     0.98319   0.60104   0.89443   0.00000  Uiso   1.00
C284   C     0.02465   0.66460   0.91653   0.00000  Uiso   1.00
C285   C     0.08813   0.75875   0.98257   0.00000  Uiso   1.00
C286   C     0.98368   0.48780   0.72014   0.00000  Uiso   1.00
C287   C     0.00571   0.41250   0.72042   0.00000  Uiso   1.00
C288   C     0.05747   0.38984   0.66294   0.00000  Uiso   1.00
C289   C     0.13991   0.32496   0.58219   0.00000  Uiso   1.00
C290   C     0.98057   0.61825   0.67505   0.00000  Uiso   1.00
C291   C     0.89306   0.61083   0.67203   0.00000  Uiso   1.00
C292   C     0.84448   0.64895   0.62091   0.00000  Uiso   1.00
C293   C     0.76611   0.63440   0.62749   0.00000  Uiso   1.00
C294   C     0.00014   0.64109   0.75898   0.00000  Uiso   1.00
C295   C     0.04159   0.70465   0.78096   0.00000  Uiso   1.00
C296   C     0.05338   0.71556   0.86073   0.00000  Uiso   1.00
C297   C     0.01235   0.53866   0.66444   0.00000  Uiso   1.00
C298   C     0.06410   0.51611   0.60695   0.00000  Uiso   1.00
C299   C     0.08619   0.44079   0.60713   0.00000  Uiso   1.00
H300   H     0.90547   0.48501   0.82098   0.00000  Uiso   1.00
H301   H     0.76391   0.50599   0.77750   0.00000  Uiso   1.00
H302   H     0.96101   0.56167   0.93752   0.00000  Uiso   1.00
H303   H     0.98351   0.37316   0.76353   0.00000  Uiso   1.00
H304   H     0.61961   0.55170   0.70475   0.00000  Uiso   1.00
H305   H     0.03521   0.66909   0.04216   0.00000  Uiso   1.00
H306   H     0.08267   0.27158   0.67528   0.00000  Uiso   1.00
H307   H     0.00290   0.65785   0.63169   0.00000  Uiso   1.00
H308   H     0.86668   0.68831   0.57781   0.00000  Uiso   1.00
H309   H     0.06377   0.74399   0.73784   0.00000  Uiso   1.00
H310   H     0.08627   0.55549   0.56385   0.00000  Uiso   1.00
H311   H     0.70302   0.69968   0.54268   0.00000  Uiso   1.00
H312   H     0.11863   0.81707   0.88010   0.00000  Uiso   1.00
H313   H     0.16607   0.41957   0.51321   0.00000  Uiso   1.00
O314   O     0.56995   0.64263   0.59171   0.00000  Uiso   1.00
O315   O     0.11522   0.79663   0.03438   0.00000  Uiso   1.00
O316   O     0.17746   0.27512   0.55304   0.00000  Uiso   1.00
N317   N     0.65794   0.58234   0.67399   0.00000  Uiso   1.00
N318   N     0.04649   0.69209   0.98945   0.00000  Uiso   1.00
N319   N     0.09087   0.32047   0.64646   0.00000  Uiso   1.00
N320   N     0.70282   0.66196   0.58678   0.00000  Uiso   1.00
N321   N     0.09137   0.77172   0.90224   0.00000  Uiso   1.00
N322   N     0.13575   0.40009   0.55925   0.00000  Uiso   1.00
C323   C     0.57221   0.97540   0.77761   0.00000  Uiso   1.00
C324   C     0.63561   0.94003   0.72773   0.00000  Uiso   1.00
C325   C     0.71392   0.95465   0.73438   0.00000  Uiso   1.00
C326   C     0.76261   0.91656   0.68329   0.00000  Uiso   1.00
C327   C     0.86542   0.86936   0.61435   0.00000  Uiso   1.00
C328   C     0.52853   0.90977   0.81468   0.00000  Uiso   1.00
C329   C     0.51681   0.89896   0.89443   0.00000  Uiso   1.00
C330   C     0.47535   0.83540   0.91653   0.00000  Uiso   1.00
C331   C     0.41187   0.74125   0.98257   0.00000  Uiso   1.00
C332   C     0.51632   0.01220   0.72014   0.00000  Uiso   1.00
C333   C     0.49429   0.08750   0.72042   0.00000  Uiso   1.00
C334   C     0.44253   0.11016   0.66294   0.00000  Uiso   1.00
C335   C     0.36009   0.17504   0.58219   0.00000  Uiso   1.00
C336   C     0.51943   0.88175   0.67505   0.00000  Uiso   1.00
C337   C     0.60694   0.88917   0.67203   0.00000  Uiso   1.00
C338   C     0.65552   0.85105   0.62091   0.00000  Uiso   1.00
C339   C     0.73389   0.86560   0.62749   0.00000  Uiso   1.00
C340   C     0.49986   0.85891   0.75898   0.00000  Uiso   1.00
C341   C     0.45841   0.79535   0.78096   0.00000  Uiso   1.00
C342   C     0.44662   0.78444   0.86073   0.00000  Uiso   1.00
C343   C     0.48765   0.96134   0.66444   0.00000  Uiso   1.00
C344   C     0.43590   0.98389   0.60695   0.00000  Uiso   1.00
C345   C     0.41381   0.05921   0.60713   0.00000  Uiso   1.00
H346   H     0.59453   0.01499   0.82098   0.00000  Uiso   1.00
H347   H     0.73609   0.99401   0.77750   0.00000  Uiso   1.00
H348   H     0.53899   0.93833   0.93752   0.00000  Uiso   1.00
H349   H     0.51649   0.12684   0.76353   0.00000  Uiso   1.00
H350   H     0.88039   0.94830   0.70475   0.00000  Uiso   1.00
H351   H     0.46479   0.83091   0.04216   0.00000  Uiso   1.00
H352   H     0.41733   0.22842   0.67528   0.00000  Uiso   1.00
H353   H     0.49710   0.84215   0.63169   0.00000  Uiso   1.00
H354   H     0.63332   0.81169   0.57781   0.00000  Uiso   1.00
H355   H     0.43623   0.75601   0.73784   0.00000  Uiso   1.00
H356   H     0.41373   0.94451   0.56385   0.00000  Uiso   1.00
H357   H     0.79698   0.80032   0.54268   0.00000  Uiso   1.00
H358   H     0.38137   0.68293   0.88010   0.00000  Uiso   1.00
H359   H     0.33393   0.08043   0.51321   0.00000  Uiso   1.00
O360   O     0.93005   0.85737   0.59171   0.00000  Uiso   1.00
O361   O     0.38478   0.70337   0.03438   0.00000  Uiso   1.00
O362   O     0.32254   0.22488   0.55304   0.00000  Uiso   1.00
N363   N     0.84206   0.91766   0.67399   0.00000  Uiso   1.00
N364   N     0.45351   0.80791   0.98945   0.00000  Uiso   1.00
N365   N     0.40913   0.17953   0.64646   0.00000  Uiso   1.00
N366   N     0.79718   0.83804   0.58678   0.00000  Uiso   1.00
N367   N     0.40863   0.72828   0.90224   0.00000  Uiso   1.00
N368   N     0.36425   0.09991   0.55925   0.00000  Uiso   1.00
