data_job_03944
_audit_creation_date              2018-12-19
_audit_creation_method            'Materials Studio'
_symmetry_space_group_name_H-M    'P1'
_symmetry_Int_Tables_number       1
_symmetry_cell_setting            triclinic
loop_
_symmetry_equiv_pos_as_xyz
  x,y,z
_cell_length_a                    47.0383
_cell_length_b                    7.1575
_cell_length_c                    18.2983
_cell_angle_alpha                 90.0000
_cell_angle_beta                  90.0000
_cell_angle_gamma                 90.0000
loop_
_atom_site_label
_atom_site_type_symbol
_atom_site_fract_x
_atom_site_fract_y
_atom_site_fract_z
_atom_site_U_iso_or_equiv
_atom_site_adp_type
_atom_site_occupancy
C1     C     0.62137   0.53736   0.05763   0.00000  Uiso   1.00
C2     C     0.59413   0.62171   0.08849   0.00000  Uiso   1.00
C3     C     0.57560   0.53426   0.13659   0.00000  Uiso   1.00
C4     C     0.55184   0.63494   0.15842   0.00000  Uiso   1.00
C5     C     0.51030   0.73825   0.21018   0.00000  Uiso   1.00
C6     C     0.61848   0.54676   0.97470   0.00000  Uiso   1.00
C7     C     0.62043   0.39629   0.92713   0.00000  Uiso   1.00
C8     C     0.61718   0.43389   0.85316   0.00000  Uiso   1.00
C9     C     0.61346   0.42085   0.72826   0.00000  Uiso   1.00
C10    C     0.64516   0.67273   0.07762   0.00000  Uiso   1.00
C11    C     0.66955   0.62817   0.11657   0.00000  Uiso   1.00
C12    C     0.68877   0.77182   0.12924   0.00000  Uiso   1.00
C13    C     0.72648   0.95437   0.16414   0.00000  Uiso   1.00
C14    C     0.61212   0.87169   0.01086   0.00000  Uiso   1.00
C15    C     0.58910   0.80330   0.06309   0.00000  Uiso   1.00
C16    C     0.56537   0.90415   0.08485   0.00000  Uiso   1.00
C17    C     0.54681   0.81686   0.13297   0.00000  Uiso   1.00
C18    C     0.61346   0.72834   0.94930   0.00000  Uiso   1.00
C19    C     0.61020   0.76618   0.87538   0.00000  Uiso   1.00
C20    C     0.61214   0.61581   0.82771   0.00000  Uiso   1.00
C21    C     0.64014   0.85432   0.05222   0.00000  Uiso   1.00
C22    C     0.65932   0.99807   0.06483   0.00000  Uiso   1.00
C23    C     0.68374   0.95374   0.10379   0.00000  Uiso   1.00
H24    H     0.62528   0.39598   0.07740   0.00000  Uiso   1.00
H25    H     0.57949   0.39371   0.15623   0.00000  Uiso   1.00
H26    H     0.62432   0.25578   0.94680   0.00000  Uiso   1.00
H27    H     0.67343   0.48763   0.13622   0.00000  Uiso   1.00
H28    H     0.52651   0.47125   0.23241   0.00000  Uiso   1.00
H29    H     0.62104   0.18042   0.79081   0.00000  Uiso   1.00
H30    H     0.72461   0.66931   0.19024   0.00000  Uiso   1.00
H31    H     0.60821   0.01307   0.99107   0.00000  Uiso   1.00
H32    H     0.56149   0.04467   0.06518   0.00000  Uiso   1.00
H33    H     0.60632   0.90673   0.85574   0.00000  Uiso   1.00
H34    H     0.65543   0.13858   0.04516   0.00000  Uiso   1.00
H35    H     0.51190   0.99959   0.15851   0.00000  Uiso   1.00
H36    H     0.60643   0.70875   0.71690   0.00000  Uiso   1.00
H37    H     0.70999   0.19765   0.11633   0.00000  Uiso   1.00
O38    O     0.48877   0.74505   0.24574   0.00000  Uiso   1.00
O39    O     0.61280   0.36348   0.66638   0.00000  Uiso   1.00
O40    O     0.74867   0.00491   0.19042   0.00000  Uiso   1.00
N41    N     0.52949   0.59128   0.20486   0.00000  Uiso   1.00
N42    N     0.61786   0.31935   0.79199   0.00000  Uiso   1.00
N43    N     0.71469   0.77642   0.16540   0.00000  Uiso   1.00
N44    N     0.52162   0.87557   0.16509   0.00000  Uiso   1.00
N45    N     0.61000   0.60365   0.75222   0.00000  Uiso   1.00
N46    N     0.70683   0.06072   0.12564   0.00000  Uiso   1.00
C47    C     0.87863   0.96264   0.05763   0.00000  Uiso   1.00
C48    C     0.90587   0.87829   0.08849   0.00000  Uiso   1.00
C49    C     0.92440   0.96574   0.13659   0.00000  Uiso   1.00
C50    C     0.94816   0.86506   0.15842   0.00000  Uiso   1.00
C51    C     0.98970   0.76175   0.21018   0.00000  Uiso   1.00
C52    C     0.88152   0.95324   0.97470   0.00000  Uiso   1.00
C53    C     0.87957   0.10371   0.92713   0.00000  Uiso   1.00
C54    C     0.88282   0.06611   0.85316   0.00000  Uiso   1.00
C55    C     0.88654   0.07915   0.72826   0.00000  Uiso   1.00
C56    C     0.85484   0.82727   0.07762   0.00000  Uiso   1.00
C57    C     0.83045   0.87183   0.11657   0.00000  Uiso   1.00
C58    C     0.81123   0.72818   0.12924   0.00000  Uiso   1.00
C59    C     0.77352   0.54563   0.16414   0.00000  Uiso   1.00
C60    C     0.88788   0.62831   0.01086   0.00000  Uiso   1.00
C61    C     0.91090   0.69670   0.06309   0.00000  Uiso   1.00
C62    C     0.93463   0.59585   0.08485   0.00000  Uiso   1.00
C63    C     0.95319   0.68314   0.13297   0.00000  Uiso   1.00
C64    C     0.88654   0.77166   0.94930   0.00000  Uiso   1.00
C65    C     0.88980   0.73382   0.87538   0.00000  Uiso   1.00
C66    C     0.88786   0.88419   0.82771   0.00000  Uiso   1.00
C67    C     0.85986   0.64568   0.05222   0.00000  Uiso   1.00
C68    C     0.84068   0.50193   0.06483   0.00000  Uiso   1.00
C69    C     0.81626   0.54626   0.10379   0.00000  Uiso   1.00
H70    H     0.87472   0.10402   0.07740   0.00000  Uiso   1.00
H71    H     0.92051   0.10629   0.15623   0.00000  Uiso   1.00
H72    H     0.87568   0.24422   0.94680   0.00000  Uiso   1.00
H73    H     0.82657   0.01237   0.13622   0.00000  Uiso   1.00
H74    H     0.97349   0.02875   0.23241   0.00000  Uiso   1.00
H75    H     0.87896   0.31958   0.79081   0.00000  Uiso   1.00
H76    H     0.77539   0.83069   0.19024   0.00000  Uiso   1.00
H77    H     0.89179   0.48693   0.99107   0.00000  Uiso   1.00
H78    H     0.93851   0.45533   0.06518   0.00000  Uiso   1.00
H79    H     0.89368   0.59327   0.85574   0.00000  Uiso   1.00
H80    H     0.84457   0.36142   0.04516   0.00000  Uiso   1.00
H81    H     0.98810   0.50041   0.15851   0.00000  Uiso   1.00
H82    H     0.89357   0.79125   0.71690   0.00000  Uiso   1.00
H83    H     0.79001   0.30235   0.11633   0.00000  Uiso   1.00
O84    O     0.01123   0.75495   0.24574   0.00000  Uiso   1.00
O85    O     0.88720   0.13652   0.66638   0.00000  Uiso   1.00
O86    O     0.75133   0.49509   0.19042   0.00000  Uiso   1.00
N87    N     0.97051   0.90872   0.20486   0.00000  Uiso   1.00
N88    N     0.88214   0.18065   0.79199   0.00000  Uiso   1.00
N89    N     0.78531   0.72358   0.16540   0.00000  Uiso   1.00
N90    N     0.97838   0.62443   0.16509   0.00000  Uiso   1.00
N91    N     0.89000   0.89635   0.75222   0.00000  Uiso   1.00
N92    N     0.79317   0.43928   0.12564   0.00000  Uiso   1.00
C93    C     0.37863   0.03736   0.44237   0.00000  Uiso   1.00
C94    C     0.40587   0.12171   0.41151   0.00000  Uiso   1.00
C95    C     0.42440   0.03426   0.36341   0.00000  Uiso   1.00
C96    C     0.44816   0.13494   0.34158   0.00000  Uiso   1.00
C97    C     0.48970   0.23825   0.28982   0.00000  Uiso   1.00
C98    C     0.38152   0.04676   0.52530   0.00000  Uiso   1.00
C99    C     0.37957   0.89629   0.57287   0.00000  Uiso   1.00
C100   C     0.38282   0.93389   0.64684   0.00000  Uiso   1.00
C101   C     0.38654   0.92085   0.77174   0.00000  Uiso   1.00
C102   C     0.35484   0.17273   0.42238   0.00000  Uiso   1.00
C103   C     0.33045   0.12817   0.38343   0.00000  Uiso   1.00
C104   C     0.31123   0.27182   0.37076   0.00000  Uiso   1.00
C105   C     0.27352   0.45437   0.33586   0.00000  Uiso   1.00
C106   C     0.38788   0.37169   0.48914   0.00000  Uiso   1.00
C107   C     0.41090   0.30330   0.43691   0.00000  Uiso   1.00
C108   C     0.43463   0.40415   0.41515   0.00000  Uiso   1.00
C109   C     0.45319   0.31686   0.36703   0.00000  Uiso   1.00
C110   C     0.38654   0.22834   0.55070   0.00000  Uiso   1.00
C111   C     0.38980   0.26618   0.62462   0.00000  Uiso   1.00
C112   C     0.38786   0.11581   0.67229   0.00000  Uiso   1.00
C113   C     0.35986   0.35432   0.44778   0.00000  Uiso   1.00
C114   C     0.34068   0.49807   0.43517   0.00000  Uiso   1.00
C115   C     0.31626   0.45374   0.39621   0.00000  Uiso   1.00
H116   H     0.37472   0.89598   0.42260   0.00000  Uiso   1.00
H117   H     0.42051   0.89371   0.34377   0.00000  Uiso   1.00
H118   H     0.37568   0.75578   0.55320   0.00000  Uiso   1.00
H119   H     0.32657   0.98763   0.36378   0.00000  Uiso   1.00
H120   H     0.47349   0.97125   0.26759   0.00000  Uiso   1.00
H121   H     0.37896   0.68042   0.70919   0.00000  Uiso   1.00
H122   H     0.27539   0.16931   0.30976   0.00000  Uiso   1.00
H123   H     0.39179   0.51307   0.50893   0.00000  Uiso   1.00
H124   H     0.43851   0.54467   0.43482   0.00000  Uiso   1.00
H125   H     0.39368   0.40673   0.64426   0.00000  Uiso   1.00
H126   H     0.34457   0.63858   0.45484   0.00000  Uiso   1.00
H127   H     0.48810   0.49959   0.34149   0.00000  Uiso   1.00
H128   H     0.39357   0.20875   0.78310   0.00000  Uiso   1.00
H129   H     0.29001   0.69765   0.38367   0.00000  Uiso   1.00
O130   O     0.51123   0.24505   0.25426   0.00000  Uiso   1.00
O131   O     0.38720   0.86348   0.83362   0.00000  Uiso   1.00
O132   O     0.25133   0.50491   0.30958   0.00000  Uiso   1.00
N133   N     0.47051   0.09128   0.29514   0.00000  Uiso   1.00
N134   N     0.38214   0.81935   0.70801   0.00000  Uiso   1.00
N135   N     0.28531   0.27642   0.33460   0.00000  Uiso   1.00
N136   N     0.47838   0.37557   0.33491   0.00000  Uiso   1.00
N137   N     0.39000   0.10365   0.74778   0.00000  Uiso   1.00
N138   N     0.29317   0.56072   0.37436   0.00000  Uiso   1.00
C139   C     0.12137   0.46264   0.44237   0.00000  Uiso   1.00
C140   C     0.09413   0.37829   0.41151   0.00000  Uiso   1.00
C141   C     0.07560   0.46574   0.36341   0.00000  Uiso   1.00
C142   C     0.05184   0.36506   0.34158   0.00000  Uiso   1.00
C143   C     0.01030   0.26175   0.28982   0.00000  Uiso   1.00
C144   C     0.11848   0.45324   0.52530   0.00000  Uiso   1.00
C145   C     0.12043   0.60371   0.57287   0.00000  Uiso   1.00
C146   C     0.11718   0.56611   0.64684   0.00000  Uiso   1.00
C147   C     0.11346   0.57915   0.77174   0.00000  Uiso   1.00
C148   C     0.14516   0.32727   0.42238   0.00000  Uiso   1.00
C149   C     0.16955   0.37183   0.38343   0.00000  Uiso   1.00
C150   C     0.18877   0.22818   0.37076   0.00000  Uiso   1.00
C151   C     0.22648   0.04563   0.33586   0.00000  Uiso   1.00
C152   C     0.11212   0.12831   0.48914   0.00000  Uiso   1.00
C153   C     0.08910   0.19670   0.43691   0.00000  Uiso   1.00
C154   C     0.06537   0.09585   0.41515   0.00000  Uiso   1.00
C155   C     0.04681   0.18314   0.36703   0.00000  Uiso   1.00
C156   C     0.11346   0.27166   0.55070   0.00000  Uiso   1.00
C157   C     0.11020   0.23382   0.62462   0.00000  Uiso   1.00
C158   C     0.11214   0.38419   0.67229   0.00000  Uiso   1.00
C159   C     0.14014   0.14568   0.44778   0.00000  Uiso   1.00
C160   C     0.15932   0.00193   0.43517   0.00000  Uiso   1.00
C161   C     0.18374   0.04626   0.39621   0.00000  Uiso   1.00
H162   H     0.12528   0.60402   0.42260   0.00000  Uiso   1.00
H163   H     0.07949   0.60629   0.34377   0.00000  Uiso   1.00
H164   H     0.12432   0.74422   0.55320   0.00000  Uiso   1.00
H165   H     0.17343   0.51237   0.36378   0.00000  Uiso   1.00
H166   H     0.02651   0.52875   0.26759   0.00000  Uiso   1.00
H167   H     0.12104   0.81958   0.70919   0.00000  Uiso   1.00
H168   H     0.22461   0.33069   0.30976   0.00000  Uiso   1.00
H169   H     0.10821   0.98693   0.50893   0.00000  Uiso   1.00
H170   H     0.06149   0.95533   0.43482   0.00000  Uiso   1.00
H171   H     0.10632   0.09327   0.64426   0.00000  Uiso   1.00
H172   H     0.15543   0.86142   0.45484   0.00000  Uiso   1.00
H173   H     0.01190   0.00041   0.34149   0.00000  Uiso   1.00
H174   H     0.10643   0.29125   0.78310   0.00000  Uiso   1.00
H175   H     0.20999   0.80235   0.38367   0.00000  Uiso   1.00
O176   O     0.98877   0.25495   0.25426   0.00000  Uiso   1.00
O177   O     0.11280   0.63652   0.83362   0.00000  Uiso   1.00
O178   O     0.24867   0.99509   0.30958   0.00000  Uiso   1.00
N179   N     0.02949   0.40872   0.29514   0.00000  Uiso   1.00
N180   N     0.11786   0.68065   0.70801   0.00000  Uiso   1.00
N181   N     0.21469   0.22358   0.33460   0.00000  Uiso   1.00
N182   N     0.02162   0.12443   0.33491   0.00000  Uiso   1.00
N183   N     0.11000   0.39635   0.74778   0.00000  Uiso   1.00
N184   N     0.20683   0.93928   0.37436   0.00000  Uiso   1.00
C185   C     0.37863   0.46264   0.94237   0.00000  Uiso   1.00
C186   C     0.40587   0.37829   0.91151   0.00000  Uiso   1.00
C187   C     0.42440   0.46574   0.86341   0.00000  Uiso   1.00
C188   C     0.44816   0.36506   0.84158   0.00000  Uiso   1.00
C189   C     0.48970   0.26175   0.78982   0.00000  Uiso   1.00
C190   C     0.38152   0.45324   0.02530   0.00000  Uiso   1.00
C191   C     0.37957   0.60371   0.07287   0.00000  Uiso   1.00
C192   C     0.38282   0.56611   0.14684   0.00000  Uiso   1.00
C193   C     0.38654   0.57915   0.27174   0.00000  Uiso   1.00
C194   C     0.35484   0.32727   0.92238   0.00000  Uiso   1.00
C195   C     0.33045   0.37183   0.88343   0.00000  Uiso   1.00
C196   C     0.31123   0.22818   0.87076   0.00000  Uiso   1.00
C197   C     0.27352   0.04563   0.83586   0.00000  Uiso   1.00
C198   C     0.38788   0.12831   0.98914   0.00000  Uiso   1.00
C199   C     0.41090   0.19670   0.93691   0.00000  Uiso   1.00
C200   C     0.43463   0.09585   0.91515   0.00000  Uiso   1.00
C201   C     0.45319   0.18314   0.86703   0.00000  Uiso   1.00
C202   C     0.38654   0.27166   0.05070   0.00000  Uiso   1.00
C203   C     0.38980   0.23382   0.12462   0.00000  Uiso   1.00
C204   C     0.38786   0.38419   0.17229   0.00000  Uiso   1.00
C205   C     0.35986   0.14568   0.94778   0.00000  Uiso   1.00
C206   C     0.34068   0.00193   0.93517   0.00000  Uiso   1.00
C207   C     0.31626   0.04626   0.89621   0.00000  Uiso   1.00
H208   H     0.37472   0.60402   0.92260   0.00000  Uiso   1.00
H209   H     0.42051   0.60629   0.84377   0.00000  Uiso   1.00
H210   H     0.37568   0.74422   0.05320   0.00000  Uiso   1.00
H211   H     0.32657   0.51237   0.86378   0.00000  Uiso   1.00
H212   H     0.47349   0.52875   0.76759   0.00000  Uiso   1.00
H213   H     0.37896   0.81958   0.20919   0.00000  Uiso   1.00
H214   H     0.27539   0.33069   0.80976   0.00000  Uiso   1.00
H215   H     0.39179   0.98693   0.00893   0.00000  Uiso   1.00
H216   H     0.43851   0.95533   0.93482   0.00000  Uiso   1.00
H217   H     0.39368   0.09327   0.14426   0.00000  Uiso   1.00
H218   H     0.34457   0.86142   0.95484   0.00000  Uiso   1.00
H219   H     0.48810   0.00041   0.84149   0.00000  Uiso   1.00
H220   H     0.39357   0.29125   0.28310   0.00000  Uiso   1.00
H221   H     0.29001   0.80235   0.88367   0.00000  Uiso   1.00
O222   O     0.51123   0.25495   0.75426   0.00000  Uiso   1.00
O223   O     0.38720   0.63652   0.33362   0.00000  Uiso   1.00
O224   O     0.25133   0.99509   0.80958   0.00000  Uiso   1.00
N225   N     0.47051   0.40872   0.79514   0.00000  Uiso   1.00
N226   N     0.38214   0.68065   0.20801   0.00000  Uiso   1.00
N227   N     0.28531   0.22358   0.83460   0.00000  Uiso   1.00
N228   N     0.47838   0.12443   0.83491   0.00000  Uiso   1.00
N229   N     0.39000   0.39635   0.24778   0.00000  Uiso   1.00
N230   N     0.29317   0.93928   0.87436   0.00000  Uiso   1.00
C231   C     0.12137   0.03736   0.94237   0.00000  Uiso   1.00
C232   C     0.09413   0.12171   0.91151   0.00000  Uiso   1.00
C233   C     0.07560   0.03426   0.86341   0.00000  Uiso   1.00
C234   C     0.05184   0.13494   0.84158   0.00000  Uiso   1.00
C235   C     0.01030   0.23825   0.78982   0.00000  Uiso   1.00
C236   C     0.11848   0.04676   0.02530   0.00000  Uiso   1.00
C237   C     0.12043   0.89629   0.07287   0.00000  Uiso   1.00
C238   C     0.11718   0.93389   0.14684   0.00000  Uiso   1.00
C239   C     0.11346   0.92085   0.27174   0.00000  Uiso   1.00
C240   C     0.14516   0.17273   0.92238   0.00000  Uiso   1.00
C241   C     0.16955   0.12817   0.88343   0.00000  Uiso   1.00
C242   C     0.18877   0.27182   0.87076   0.00000  Uiso   1.00
C243   C     0.22648   0.45437   0.83586   0.00000  Uiso   1.00
C244   C     0.11212   0.37169   0.98914   0.00000  Uiso   1.00
C245   C     0.08910   0.30330   0.93691   0.00000  Uiso   1.00
C246   C     0.06537   0.40415   0.91515   0.00000  Uiso   1.00
C247   C     0.04681   0.31686   0.86703   0.00000  Uiso   1.00
C248   C     0.11346   0.22834   0.05070   0.00000  Uiso   1.00
C249   C     0.11020   0.26618   0.12462   0.00000  Uiso   1.00
C250   C     0.11214   0.11581   0.17229   0.00000  Uiso   1.00
C251   C     0.14014   0.35432   0.94778   0.00000  Uiso   1.00
C252   C     0.15932   0.49807   0.93517   0.00000  Uiso   1.00
C253   C     0.18374   0.45374   0.89621   0.00000  Uiso   1.00
H254   H     0.12528   0.89598   0.92260   0.00000  Uiso   1.00
H255   H     0.07949   0.89371   0.84377   0.00000  Uiso   1.00
H256   H     0.12432   0.75578   0.05320   0.00000  Uiso   1.00
H257   H     0.17343   0.98763   0.86378   0.00000  Uiso   1.00
H258   H     0.02651   0.97125   0.76759   0.00000  Uiso   1.00
H259   H     0.12104   0.68042   0.20919   0.00000  Uiso   1.00
H260   H     0.22461   0.16931   0.80976   0.00000  Uiso   1.00
H261   H     0.10821   0.51307   0.00893   0.00000  Uiso   1.00
H262   H     0.06149   0.54467   0.93482   0.00000  Uiso   1.00
H263   H     0.10632   0.40673   0.14426   0.00000  Uiso   1.00
H264   H     0.15543   0.63858   0.95484   0.00000  Uiso   1.00
H265   H     0.01190   0.49959   0.84149   0.00000  Uiso   1.00
H266   H     0.10643   0.20875   0.28310   0.00000  Uiso   1.00
H267   H     0.20999   0.69765   0.88367   0.00000  Uiso   1.00
O268   O     0.98877   0.24505   0.75426   0.00000  Uiso   1.00
O269   O     0.11280   0.86348   0.33362   0.00000  Uiso   1.00
O270   O     0.24867   0.50491   0.80958   0.00000  Uiso   1.00
N271   N     0.02949   0.09128   0.79514   0.00000  Uiso   1.00
N272   N     0.11786   0.81935   0.20801   0.00000  Uiso   1.00
N273   N     0.21469   0.27642   0.83460   0.00000  Uiso   1.00
N274   N     0.02162   0.37557   0.83491   0.00000  Uiso   1.00
N275   N     0.11000   0.10365   0.24778   0.00000  Uiso   1.00
N276   N     0.20683   0.56072   0.87436   0.00000  Uiso   1.00
C277   C     0.62137   0.96264   0.55763   0.00000  Uiso   1.00
C278   C     0.59413   0.87829   0.58849   0.00000  Uiso   1.00
C279   C     0.57560   0.96574   0.63659   0.00000  Uiso   1.00
C280   C     0.55184   0.86506   0.65842   0.00000  Uiso   1.00
C281   C     0.51030   0.76175   0.71018   0.00000  Uiso   1.00
C282   C     0.61848   0.95324   0.47470   0.00000  Uiso   1.00
C283   C     0.62043   0.10371   0.42713   0.00000  Uiso   1.00
C284   C     0.61718   0.06611   0.35316   0.00000  Uiso   1.00
C285   C     0.61346   0.07915   0.22826   0.00000  Uiso   1.00
C286   C     0.64516   0.82727   0.57762   0.00000  Uiso   1.00
C287   C     0.66955   0.87183   0.61657   0.00000  Uiso   1.00
C288   C     0.68877   0.72818   0.62924   0.00000  Uiso   1.00
C289   C     0.72648   0.54563   0.66414   0.00000  Uiso   1.00
C290   C     0.61212   0.62831   0.51086   0.00000  Uiso   1.00
C291   C     0.58910   0.69670   0.56309   0.00000  Uiso   1.00
C292   C     0.56537   0.59585   0.58485   0.00000  Uiso   1.00
C293   C     0.54681   0.68314   0.63297   0.00000  Uiso   1.00
C294   C     0.61346   0.77166   0.44930   0.00000  Uiso   1.00
C295   C     0.61020   0.73382   0.37538   0.00000  Uiso   1.00
C296   C     0.61214   0.88419   0.32771   0.00000  Uiso   1.00
C297   C     0.64014   0.64568   0.55222   0.00000  Uiso   1.00
C298   C     0.65932   0.50193   0.56483   0.00000  Uiso   1.00
C299   C     0.68374   0.54626   0.60379   0.00000  Uiso   1.00
H300   H     0.62528   0.10402   0.57740   0.00000  Uiso   1.00
H301   H     0.57949   0.10629   0.65623   0.00000  Uiso   1.00
H302   H     0.62432   0.24422   0.44680   0.00000  Uiso   1.00
H303   H     0.67343   0.01237   0.63622   0.00000  Uiso   1.00
H304   H     0.52651   0.02875   0.73241   0.00000  Uiso   1.00
H305   H     0.62104   0.31958   0.29081   0.00000  Uiso   1.00
H306   H     0.72461   0.83069   0.69024   0.00000  Uiso   1.00
H307   H     0.60821   0.48693   0.49107   0.00000  Uiso   1.00
H308   H     0.56149   0.45533   0.56518   0.00000  Uiso   1.00
H309   H     0.60632   0.59327   0.35574   0.00000  Uiso   1.00
H310   H     0.65543   0.36142   0.54516   0.00000  Uiso   1.00
H311   H     0.51190   0.50041   0.65851   0.00000  Uiso   1.00
H312   H     0.60643   0.79125   0.21690   0.00000  Uiso   1.00
H313   H     0.70999   0.30235   0.61633   0.00000  Uiso   1.00
O314   O     0.48877   0.75495   0.74574   0.00000  Uiso   1.00
O315   O     0.61280   0.13652   0.16638   0.00000  Uiso   1.00
O316   O     0.74867   0.49509   0.69042   0.00000  Uiso   1.00
N317   N     0.52949   0.90872   0.70486   0.00000  Uiso   1.00
N318   N     0.61786   0.18065   0.29199   0.00000  Uiso   1.00
N319   N     0.71469   0.72358   0.66540   0.00000  Uiso   1.00
N320   N     0.52162   0.62443   0.66509   0.00000  Uiso   1.00
N321   N     0.61000   0.89635   0.25222   0.00000  Uiso   1.00
N322   N     0.70683   0.43928   0.62564   0.00000  Uiso   1.00
C323   C     0.87863   0.53736   0.55763   0.00000  Uiso   1.00
C324   C     0.90587   0.62171   0.58849   0.00000  Uiso   1.00
C325   C     0.92440   0.53426   0.63659   0.00000  Uiso   1.00
C326   C     0.94816   0.63494   0.65842   0.00000  Uiso   1.00
C327   C     0.98970   0.73825   0.71018   0.00000  Uiso   1.00
C328   C     0.88152   0.54676   0.47470   0.00000  Uiso   1.00
C329   C     0.87957   0.39629   0.42713   0.00000  Uiso   1.00
C330   C     0.88282   0.43389   0.35316   0.00000  Uiso   1.00
C331   C     0.88654   0.42085   0.22826   0.00000  Uiso   1.00
C332   C     0.85484   0.67273   0.57762   0.00000  Uiso   1.00
C333   C     0.83045   0.62817   0.61657   0.00000  Uiso   1.00
C334   C     0.81123   0.77182   0.62924   0.00000  Uiso   1.00
C335   C     0.77352   0.95437   0.66414   0.00000  Uiso   1.00
C336   C     0.88788   0.87169   0.51086   0.00000  Uiso   1.00
C337   C     0.91090   0.80330   0.56309   0.00000  Uiso   1.00
C338   C     0.93463   0.90415   0.58485   0.00000  Uiso   1.00
C339   C     0.95319   0.81686   0.63297   0.00000  Uiso   1.00
C340   C     0.88654   0.72834   0.44930   0.00000  Uiso   1.00
C341   C     0.88980   0.76618   0.37538   0.00000  Uiso   1.00
C342   C     0.88786   0.61581   0.32771   0.00000  Uiso   1.00
C343   C     0.85986   0.85432   0.55222   0.00000  Uiso   1.00
C344   C     0.84068   0.99807   0.56483   0.00000  Uiso   1.00
C345   C     0.81626   0.95374   0.60379   0.00000  Uiso   1.00
H346   H     0.87472   0.39598   0.57740   0.00000  Uiso   1.00
H347   H     0.92051   0.39371   0.65623   0.00000  Uiso   1.00
H348   H     0.87568   0.25578   0.44680   0.00000  Uiso   1.00
H349   H     0.82657   0.48763   0.63622   0.00000  Uiso   1.00
H350   H     0.97349   0.47125   0.73241   0.00000  Uiso   1.00
H351   H     0.87896   0.18042   0.29081   0.00000  Uiso   1.00
H352   H     0.77539   0.66931   0.69024   0.00000  Uiso   1.00
H353   H     0.89179   0.01307   0.49107   0.00000  Uiso   1.00
H354   H     0.93851   0.04467   0.56518   0.00000  Uiso   1.00
H355   H     0.89368   0.90673   0.35574   0.00000  Uiso   1.00
H356   H     0.84457   0.13858   0.54516   0.00000  Uiso   1.00
H357   H     0.98810   0.99959   0.65851   0.00000  Uiso   1.00
H358   H     0.89357   0.70875   0.21690   0.00000  Uiso   1.00
H359   H     0.79001   0.19765   0.61633   0.00000  Uiso   1.00
O360   O     0.01123   0.74505   0.74574   0.00000  Uiso   1.00
O361   O     0.88720   0.36348   0.16638   0.00000  Uiso   1.00
O362   O     0.75133   0.00491   0.69042   0.00000  Uiso   1.00
N363   N     0.97051   0.59128   0.70486   0.00000  Uiso   1.00
N364   N     0.88214   0.31935   0.29199   0.00000  Uiso   1.00
N365   N     0.78531   0.77642   0.66540   0.00000  Uiso   1.00
N366   N     0.97838   0.87557   0.66509   0.00000  Uiso   1.00
N367   N     0.89000   0.60365   0.25222   0.00000  Uiso   1.00
N368   N     0.79317   0.06072   0.62564   0.00000  Uiso   1.00
