data_job_03515
_audit_creation_date              2018-12-19
_audit_creation_method            'Materials Studio'
_symmetry_space_group_name_H-M    'P1'
_symmetry_Int_Tables_number       1
_symmetry_cell_setting            triclinic
loop_
_symmetry_equiv_pos_as_xyz
  x,y,z
_cell_length_a                    43.1470
_cell_length_b                    8.7331
_cell_length_c                    21.2864
_cell_angle_alpha                 90.0000
_cell_angle_beta                  90.0000
_cell_angle_gamma                 90.0000
loop_
_atom_site_label
_atom_site_type_symbol
_atom_site_fract_x
_atom_site_fract_y
_atom_site_fract_z
_atom_site_U_iso_or_equiv
_atom_site_adp_type
_atom_site_occupancy
C1     C     0.83294   0.55914   0.92752   0.00000  Uiso   1.00
C2     C     0.86729   0.54281   0.94299   0.00000  Uiso   1.00
C3     C     0.88137   0.41341   0.96783   0.00000  Uiso   1.00
C4     C     0.91306   0.42136   0.97864   0.00000  Uiso   1.00
C5     C     0.96382   0.37585   0.00475   0.00000  Uiso   1.00
C6     C     0.82159   0.69834   0.96415   0.00000  Uiso   1.00
C7     C     0.79725   0.69970   0.00677   0.00000  Uiso   1.00
C8     C     0.79047   0.83858   0.03539   0.00000  Uiso   1.00
C9     C     0.77026   0.03455   0.09432   0.00000  Uiso   1.00
C10    C     0.83134   0.60364   0.85833   0.00000  Uiso   1.00
C11    C     0.81519   0.52541   0.81197   0.00000  Uiso   1.00
C12    C     0.81661   0.58459   0.75149   0.00000  Uiso   1.00
C13    C     0.81154   0.63353   0.64612   0.00000  Uiso   1.00
C14    C     0.86417   0.80336   0.90256   0.00000  Uiso   1.00
C15    C     0.88425   0.67547   0.92944   0.00000  Uiso   1.00
C16    C     0.91593   0.68361   0.94021   0.00000  Uiso   1.00
C17    C     0.93006   0.55424   0.96506   0.00000  Uiso   1.00
C18    C     0.83855   0.83099   0.95060   0.00000  Uiso   1.00
C19    C     0.83181   0.96990   0.97916   0.00000  Uiso   1.00
C20    C     0.80746   0.97147   0.02181   0.00000  Uiso   1.00
C21    C     0.84830   0.73630   0.84477   0.00000  Uiso   1.00
C22    C     0.84975   0.79561   0.78436   0.00000  Uiso   1.00
C23    C     0.83361   0.71748   0.73792   0.00000  Uiso   1.00
H24    H     0.81972   0.45587   0.93808   0.00000  Uiso   1.00
H25    H     0.86823   0.31078   0.97832   0.00000  Uiso   1.00
H26    H     0.78412   0.59703   0.01725   0.00000  Uiso   1.00
H27    H     0.80206   0.42277   0.82248   0.00000  Uiso   1.00
H28    H     0.92949   0.20844   0.01697   0.00000  Uiso   1.00
H29    H     0.75213   0.81202   0.09904   0.00000  Uiso   1.00
H30    H     0.78996   0.44455   0.68833   0.00000  Uiso   1.00
H31    H     0.87738   0.90665   0.89201   0.00000  Uiso   1.00
H32    H     0.92905   0.78628   0.92972   0.00000  Uiso   1.00
H33    H     0.84494   0.07253   0.96865   0.00000  Uiso   1.00
H34    H     0.86288   0.89827   0.77388   0.00000  Uiso   1.00
H35    H     0.97886   0.59437   0.97753   0.00000  Uiso   1.00
H36    H     0.80149   0.19796   0.05960   0.00000  Uiso   1.00
H37    H     0.83933   0.83049   0.64889   0.00000  Uiso   1.00
O38    O     0.98712   0.31411   0.02291   0.00000  Uiso   1.00
O39    O     0.75443   0.10599   0.13057   0.00000  Uiso   1.00
O40    O     0.80407   0.62387   0.59173   0.00000  Uiso   1.00
N41    N     0.93402   0.31577   0.00250   0.00000  Uiso   1.00
N42    N     0.76820   0.88008   0.07924   0.00000  Uiso   1.00
N43    N     0.80356   0.53655   0.69526   0.00000  Uiso   1.00
N44    N     0.96058   0.52344   0.98128   0.00000  Uiso   1.00
N45    N     0.79476   0.08775   0.05802   0.00000  Uiso   1.00
N46    N     0.83013   0.74422   0.67404   0.00000  Uiso   1.00
C47    C     0.66706   0.94086   0.42752   0.00000  Uiso   1.00
C48    C     0.63271   0.95719   0.44299   0.00000  Uiso   1.00
C49    C     0.61863   0.08659   0.46783   0.00000  Uiso   1.00
C50    C     0.58694   0.07864   0.47864   0.00000  Uiso   1.00
C51    C     0.53618   0.12415   0.50475   0.00000  Uiso   1.00
C52    C     0.67841   0.80166   0.46415   0.00000  Uiso   1.00
C53    C     0.70275   0.80030   0.50677   0.00000  Uiso   1.00
C54    C     0.70953   0.66142   0.53539   0.00000  Uiso   1.00
C55    C     0.72974   0.46545   0.59432   0.00000  Uiso   1.00
C56    C     0.66866   0.89636   0.35833   0.00000  Uiso   1.00
C57    C     0.68481   0.97459   0.31197   0.00000  Uiso   1.00
C58    C     0.68339   0.91541   0.25149   0.00000  Uiso   1.00
C59    C     0.68846   0.86647   0.14612   0.00000  Uiso   1.00
C60    C     0.63583   0.69664   0.40256   0.00000  Uiso   1.00
C61    C     0.61575   0.82453   0.42944   0.00000  Uiso   1.00
C62    C     0.58407   0.81639   0.44021   0.00000  Uiso   1.00
C63    C     0.56994   0.94576   0.46506   0.00000  Uiso   1.00
C64    C     0.66145   0.66901   0.45060   0.00000  Uiso   1.00
C65    C     0.66819   0.53010   0.47916   0.00000  Uiso   1.00
C66    C     0.69254   0.52853   0.52181   0.00000  Uiso   1.00
C67    C     0.65170   0.76370   0.34477   0.00000  Uiso   1.00
C68    C     0.65025   0.70439   0.28436   0.00000  Uiso   1.00
C69    C     0.66639   0.78252   0.23792   0.00000  Uiso   1.00
H70    H     0.68028   0.04413   0.43808   0.00000  Uiso   1.00
H71    H     0.63177   0.18922   0.47832   0.00000  Uiso   1.00
H72    H     0.71588   0.90297   0.51725   0.00000  Uiso   1.00
H73    H     0.69794   0.07723   0.32248   0.00000  Uiso   1.00
H74    H     0.57051   0.29156   0.51697   0.00000  Uiso   1.00
H75    H     0.74787   0.68798   0.59904   0.00000  Uiso   1.00
H76    H     0.71004   0.05545   0.18833   0.00000  Uiso   1.00
H77    H     0.62262   0.59335   0.39201   0.00000  Uiso   1.00
H78    H     0.57095   0.71372   0.42972   0.00000  Uiso   1.00
H79    H     0.65506   0.42747   0.46865   0.00000  Uiso   1.00
H80    H     0.63712   0.60173   0.27388   0.00000  Uiso   1.00
H81    H     0.52114   0.90563   0.47753   0.00000  Uiso   1.00
H82    H     0.69851   0.30204   0.55960   0.00000  Uiso   1.00
H83    H     0.66067   0.66951   0.14889   0.00000  Uiso   1.00
O84    O     0.51288   0.18589   0.52291   0.00000  Uiso   1.00
O85    O     0.74557   0.39401   0.63057   0.00000  Uiso   1.00
O86    O     0.69593   0.87613   0.09173   0.00000  Uiso   1.00
N87    N     0.56598   0.18423   0.50250   0.00000  Uiso   1.00
N88    N     0.73180   0.61992   0.57924   0.00000  Uiso   1.00
N89    N     0.69644   0.96345   0.19526   0.00000  Uiso   1.00
N90    N     0.53942   0.97656   0.48128   0.00000  Uiso   1.00
N91    N     0.70524   0.41225   0.55802   0.00000  Uiso   1.00
N92    N     0.66987   0.75578   0.17404   0.00000  Uiso   1.00
C93    C     0.16706   0.55914   0.57248   0.00000  Uiso   1.00
C94    C     0.13271   0.54281   0.55701   0.00000  Uiso   1.00
C95    C     0.11863   0.41341   0.53217   0.00000  Uiso   1.00
C96    C     0.08694   0.42136   0.52136   0.00000  Uiso   1.00
C97    C     0.03618   0.37585   0.49525   0.00000  Uiso   1.00
C98    C     0.17841   0.69834   0.53585   0.00000  Uiso   1.00
C99    C     0.20275   0.69970   0.49323   0.00000  Uiso   1.00
C100   C     0.20953   0.83858   0.46461   0.00000  Uiso   1.00
C101   C     0.22974   0.03455   0.40568   0.00000  Uiso   1.00
C102   C     0.16866   0.60364   0.64167   0.00000  Uiso   1.00
C103   C     0.18481   0.52541   0.68803   0.00000  Uiso   1.00
C104   C     0.18339   0.58459   0.74851   0.00000  Uiso   1.00
C105   C     0.18846   0.63353   0.85388   0.00000  Uiso   1.00
C106   C     0.13583   0.80336   0.59744   0.00000  Uiso   1.00
C107   C     0.11575   0.67547   0.57056   0.00000  Uiso   1.00
C108   C     0.08407   0.68361   0.55979   0.00000  Uiso   1.00
C109   C     0.06994   0.55424   0.53494   0.00000  Uiso   1.00
C110   C     0.16145   0.83099   0.54940   0.00000  Uiso   1.00
C111   C     0.16819   0.96990   0.52084   0.00000  Uiso   1.00
C112   C     0.19254   0.97147   0.47819   0.00000  Uiso   1.00
C113   C     0.15170   0.73630   0.65523   0.00000  Uiso   1.00
C114   C     0.15025   0.79561   0.71564   0.00000  Uiso   1.00
C115   C     0.16639   0.71748   0.76208   0.00000  Uiso   1.00
H116   H     0.18028   0.45587   0.56192   0.00000  Uiso   1.00
H117   H     0.13177   0.31078   0.52168   0.00000  Uiso   1.00
H118   H     0.21588   0.59703   0.48275   0.00000  Uiso   1.00
H119   H     0.19794   0.42277   0.67752   0.00000  Uiso   1.00
H120   H     0.07051   0.20844   0.48303   0.00000  Uiso   1.00
H121   H     0.24787   0.81202   0.40096   0.00000  Uiso   1.00
H122   H     0.21004   0.44455   0.81167   0.00000  Uiso   1.00
H123   H     0.12262   0.90665   0.60799   0.00000  Uiso   1.00
H124   H     0.07095   0.78628   0.57028   0.00000  Uiso   1.00
H125   H     0.15506   0.07253   0.53135   0.00000  Uiso   1.00
H126   H     0.13712   0.89827   0.72612   0.00000  Uiso   1.00
H127   H     0.02114   0.59437   0.52247   0.00000  Uiso   1.00
H128   H     0.19851   0.19796   0.44040   0.00000  Uiso   1.00
H129   H     0.16067   0.83049   0.85111   0.00000  Uiso   1.00
O130   O     0.01288   0.31411   0.47709   0.00000  Uiso   1.00
O131   O     0.24557   0.10599   0.36943   0.00000  Uiso   1.00
O132   O     0.19593   0.62387   0.90827   0.00000  Uiso   1.00
N133   N     0.06598   0.31577   0.49750   0.00000  Uiso   1.00
N134   N     0.23180   0.88008   0.42076   0.00000  Uiso   1.00
N135   N     0.19644   0.53655   0.80474   0.00000  Uiso   1.00
N136   N     0.03942   0.52344   0.51872   0.00000  Uiso   1.00
N137   N     0.20524   0.08775   0.44198   0.00000  Uiso   1.00
N138   N     0.16987   0.74422   0.82596   0.00000  Uiso   1.00
C139   C     0.33294   0.94086   0.07248   0.00000  Uiso   1.00
C140   C     0.36729   0.95719   0.05701   0.00000  Uiso   1.00
C141   C     0.38137   0.08659   0.03217   0.00000  Uiso   1.00
C142   C     0.41306   0.07864   0.02136   0.00000  Uiso   1.00
C143   C     0.46382   0.12415   0.99525   0.00000  Uiso   1.00
C144   C     0.32159   0.80166   0.03585   0.00000  Uiso   1.00
C145   C     0.29725   0.80030   0.99323   0.00000  Uiso   1.00
C146   C     0.29047   0.66142   0.96461   0.00000  Uiso   1.00
C147   C     0.27026   0.46545   0.90568   0.00000  Uiso   1.00
C148   C     0.33134   0.89636   0.14167   0.00000  Uiso   1.00
C149   C     0.31519   0.97459   0.18803   0.00000  Uiso   1.00
C150   C     0.31661   0.91541   0.24851   0.00000  Uiso   1.00
C151   C     0.31154   0.86647   0.35388   0.00000  Uiso   1.00
C152   C     0.36417   0.69664   0.09744   0.00000  Uiso   1.00
C153   C     0.38425   0.82453   0.07056   0.00000  Uiso   1.00
C154   C     0.41593   0.81639   0.05979   0.00000  Uiso   1.00
C155   C     0.43006   0.94576   0.03494   0.00000  Uiso   1.00
C156   C     0.33855   0.66901   0.04940   0.00000  Uiso   1.00
C157   C     0.33181   0.53010   0.02084   0.00000  Uiso   1.00
C158   C     0.30746   0.52853   0.97819   0.00000  Uiso   1.00
C159   C     0.34830   0.76370   0.15523   0.00000  Uiso   1.00
C160   C     0.34975   0.70439   0.21564   0.00000  Uiso   1.00
C161   C     0.33361   0.78252   0.26208   0.00000  Uiso   1.00
H162   H     0.31972   0.04413   0.06192   0.00000  Uiso   1.00
H163   H     0.36823   0.18922   0.02168   0.00000  Uiso   1.00
H164   H     0.28412   0.90297   0.98275   0.00000  Uiso   1.00
H165   H     0.30206   0.07723   0.17752   0.00000  Uiso   1.00
H166   H     0.42949   0.29156   0.98303   0.00000  Uiso   1.00
H167   H     0.25213   0.68798   0.90096   0.00000  Uiso   1.00
H168   H     0.28996   0.05545   0.31167   0.00000  Uiso   1.00
H169   H     0.37738   0.59335   0.10799   0.00000  Uiso   1.00
H170   H     0.42905   0.71372   0.07028   0.00000  Uiso   1.00
H171   H     0.34494   0.42747   0.03135   0.00000  Uiso   1.00
H172   H     0.36288   0.60173   0.22612   0.00000  Uiso   1.00
H173   H     0.47886   0.90563   0.02247   0.00000  Uiso   1.00
H174   H     0.30149   0.30204   0.94040   0.00000  Uiso   1.00
H175   H     0.33933   0.66951   0.35111   0.00000  Uiso   1.00
O176   O     0.48712   0.18589   0.97709   0.00000  Uiso   1.00
O177   O     0.25443   0.39401   0.86943   0.00000  Uiso   1.00
O178   O     0.30407   0.87613   0.40827   0.00000  Uiso   1.00
N179   N     0.43402   0.18423   0.99750   0.00000  Uiso   1.00
N180   N     0.26820   0.61992   0.92076   0.00000  Uiso   1.00
N181   N     0.30356   0.96345   0.30474   0.00000  Uiso   1.00
N182   N     0.46058   0.97656   0.01872   0.00000  Uiso   1.00
N183   N     0.29476   0.41225   0.94198   0.00000  Uiso   1.00
N184   N     0.33013   0.75578   0.32596   0.00000  Uiso   1.00
C185   C     0.16706   0.44086   0.07248   0.00000  Uiso   1.00
C186   C     0.13271   0.45719   0.05701   0.00000  Uiso   1.00
C187   C     0.11863   0.58659   0.03217   0.00000  Uiso   1.00
C188   C     0.08694   0.57864   0.02136   0.00000  Uiso   1.00
C189   C     0.03618   0.62415   0.99525   0.00000  Uiso   1.00
C190   C     0.17841   0.30166   0.03585   0.00000  Uiso   1.00
C191   C     0.20275   0.30030   0.99323   0.00000  Uiso   1.00
C192   C     0.20953   0.16142   0.96461   0.00000  Uiso   1.00
C193   C     0.22974   0.96545   0.90568   0.00000  Uiso   1.00
C194   C     0.16866   0.39636   0.14167   0.00000  Uiso   1.00
C195   C     0.18481   0.47459   0.18803   0.00000  Uiso   1.00
C196   C     0.18339   0.41541   0.24851   0.00000  Uiso   1.00
C197   C     0.18846   0.36647   0.35388   0.00000  Uiso   1.00
C198   C     0.13583   0.19664   0.09744   0.00000  Uiso   1.00
C199   C     0.11575   0.32453   0.07056   0.00000  Uiso   1.00
C200   C     0.08407   0.31639   0.05979   0.00000  Uiso   1.00
C201   C     0.06994   0.44576   0.03494   0.00000  Uiso   1.00
C202   C     0.16145   0.16901   0.04940   0.00000  Uiso   1.00
C203   C     0.16819   0.03010   0.02084   0.00000  Uiso   1.00
C204   C     0.19254   0.02853   0.97819   0.00000  Uiso   1.00
C205   C     0.15170   0.26370   0.15523   0.00000  Uiso   1.00
C206   C     0.15025   0.20439   0.21564   0.00000  Uiso   1.00
C207   C     0.16639   0.28252   0.26208   0.00000  Uiso   1.00
H208   H     0.18028   0.54413   0.06192   0.00000  Uiso   1.00
H209   H     0.13177   0.68922   0.02168   0.00000  Uiso   1.00
H210   H     0.21588   0.40297   0.98275   0.00000  Uiso   1.00
H211   H     0.19794   0.57723   0.17752   0.00000  Uiso   1.00
H212   H     0.07051   0.79156   0.98303   0.00000  Uiso   1.00
H213   H     0.24787   0.18798   0.90096   0.00000  Uiso   1.00
H214   H     0.21004   0.55545   0.31167   0.00000  Uiso   1.00
H215   H     0.12262   0.09335   0.10799   0.00000  Uiso   1.00
H216   H     0.07095   0.21372   0.07028   0.00000  Uiso   1.00
H217   H     0.15506   0.92747   0.03135   0.00000  Uiso   1.00
H218   H     0.13712   0.10173   0.22612   0.00000  Uiso   1.00
H219   H     0.02114   0.40563   0.02247   0.00000  Uiso   1.00
H220   H     0.19851   0.80204   0.94040   0.00000  Uiso   1.00
H221   H     0.16067   0.16951   0.35111   0.00000  Uiso   1.00
O222   O     0.01288   0.68589   0.97709   0.00000  Uiso   1.00
O223   O     0.24557   0.89401   0.86943   0.00000  Uiso   1.00
O224   O     0.19593   0.37613   0.40827   0.00000  Uiso   1.00
N225   N     0.06598   0.68423   0.99750   0.00000  Uiso   1.00
N226   N     0.23180   0.11992   0.92076   0.00000  Uiso   1.00
N227   N     0.19644   0.46345   0.30474   0.00000  Uiso   1.00
N228   N     0.03942   0.47656   0.01872   0.00000  Uiso   1.00
N229   N     0.20524   0.91225   0.94198   0.00000  Uiso   1.00
N230   N     0.16987   0.25578   0.32596   0.00000  Uiso   1.00
C231   C     0.33294   0.05914   0.57248   0.00000  Uiso   1.00
C232   C     0.36729   0.04281   0.55701   0.00000  Uiso   1.00
C233   C     0.38137   0.91341   0.53217   0.00000  Uiso   1.00
C234   C     0.41306   0.92136   0.52136   0.00000  Uiso   1.00
C235   C     0.46382   0.87585   0.49525   0.00000  Uiso   1.00
C236   C     0.32159   0.19834   0.53585   0.00000  Uiso   1.00
C237   C     0.29725   0.19970   0.49323   0.00000  Uiso   1.00
C238   C     0.29047   0.33858   0.46461   0.00000  Uiso   1.00
C239   C     0.27026   0.53455   0.40568   0.00000  Uiso   1.00
C240   C     0.33134   0.10364   0.64167   0.00000  Uiso   1.00
C241   C     0.31519   0.02541   0.68803   0.00000  Uiso   1.00
C242   C     0.31661   0.08459   0.74851   0.00000  Uiso   1.00
C243   C     0.31154   0.13353   0.85388   0.00000  Uiso   1.00
C244   C     0.36417   0.30336   0.59744   0.00000  Uiso   1.00
C245   C     0.38425   0.17547   0.57056   0.00000  Uiso   1.00
C246   C     0.41593   0.18361   0.55979   0.00000  Uiso   1.00
C247   C     0.43006   0.05424   0.53494   0.00000  Uiso   1.00
C248   C     0.33855   0.33099   0.54940   0.00000  Uiso   1.00
C249   C     0.33181   0.46990   0.52084   0.00000  Uiso   1.00
C250   C     0.30746   0.47147   0.47819   0.00000  Uiso   1.00
C251   C     0.34830   0.23630   0.65523   0.00000  Uiso   1.00
C252   C     0.34975   0.29561   0.71564   0.00000  Uiso   1.00
C253   C     0.33361   0.21748   0.76208   0.00000  Uiso   1.00
H254   H     0.31972   0.95587   0.56192   0.00000  Uiso   1.00
H255   H     0.36823   0.81078   0.52168   0.00000  Uiso   1.00
H256   H     0.28412   0.09703   0.48275   0.00000  Uiso   1.00
H257   H     0.30206   0.92277   0.67752   0.00000  Uiso   1.00
H258   H     0.42949   0.70844   0.48303   0.00000  Uiso   1.00
H259   H     0.25213   0.31202   0.40096   0.00000  Uiso   1.00
H260   H     0.28996   0.94455   0.81167   0.00000  Uiso   1.00
H261   H     0.37738   0.40665   0.60799   0.00000  Uiso   1.00
H262   H     0.42905   0.28628   0.57028   0.00000  Uiso   1.00
H263   H     0.34494   0.57253   0.53135   0.00000  Uiso   1.00
H264   H     0.36288   0.39827   0.72612   0.00000  Uiso   1.00
H265   H     0.47886   0.09437   0.52247   0.00000  Uiso   1.00
H266   H     0.30149   0.69796   0.44040   0.00000  Uiso   1.00
H267   H     0.33933   0.33049   0.85111   0.00000  Uiso   1.00
O268   O     0.48712   0.81411   0.47709   0.00000  Uiso   1.00
O269   O     0.25443   0.60599   0.36943   0.00000  Uiso   1.00
O270   O     0.30407   0.12387   0.90827   0.00000  Uiso   1.00
N271   N     0.43402   0.81577   0.49750   0.00000  Uiso   1.00
N272   N     0.26820   0.38008   0.42076   0.00000  Uiso   1.00
N273   N     0.30356   0.03655   0.80474   0.00000  Uiso   1.00
N274   N     0.46058   0.02344   0.51872   0.00000  Uiso   1.00
N275   N     0.29476   0.58775   0.44198   0.00000  Uiso   1.00
N276   N     0.33013   0.24422   0.82596   0.00000  Uiso   1.00
C277   C     0.83294   0.44086   0.42752   0.00000  Uiso   1.00
C278   C     0.86729   0.45719   0.44299   0.00000  Uiso   1.00
C279   C     0.88137   0.58659   0.46783   0.00000  Uiso   1.00
C280   C     0.91306   0.57864   0.47864   0.00000  Uiso   1.00
C281   C     0.96382   0.62415   0.50475   0.00000  Uiso   1.00
C282   C     0.82159   0.30166   0.46415   0.00000  Uiso   1.00
C283   C     0.79725   0.30030   0.50677   0.00000  Uiso   1.00
C284   C     0.79047   0.16142   0.53539   0.00000  Uiso   1.00
C285   C     0.77026   0.96545   0.59432   0.00000  Uiso   1.00
C286   C     0.83134   0.39636   0.35833   0.00000  Uiso   1.00
C287   C     0.81519   0.47459   0.31197   0.00000  Uiso   1.00
C288   C     0.81661   0.41541   0.25149   0.00000  Uiso   1.00
C289   C     0.81154   0.36647   0.14612   0.00000  Uiso   1.00
C290   C     0.86417   0.19664   0.40256   0.00000  Uiso   1.00
C291   C     0.88425   0.32453   0.42944   0.00000  Uiso   1.00
C292   C     0.91593   0.31639   0.44021   0.00000  Uiso   1.00
C293   C     0.93006   0.44576   0.46506   0.00000  Uiso   1.00
C294   C     0.83855   0.16901   0.45060   0.00000  Uiso   1.00
C295   C     0.83181   0.03010   0.47916   0.00000  Uiso   1.00
C296   C     0.80746   0.02853   0.52181   0.00000  Uiso   1.00
C297   C     0.84830   0.26370   0.34477   0.00000  Uiso   1.00
C298   C     0.84975   0.20439   0.28436   0.00000  Uiso   1.00
C299   C     0.83361   0.28252   0.23792   0.00000  Uiso   1.00
H300   H     0.81972   0.54413   0.43808   0.00000  Uiso   1.00
H301   H     0.86823   0.68922   0.47832   0.00000  Uiso   1.00
H302   H     0.78412   0.40297   0.51725   0.00000  Uiso   1.00
H303   H     0.80206   0.57723   0.32248   0.00000  Uiso   1.00
H304   H     0.92949   0.79156   0.51697   0.00000  Uiso   1.00
H305   H     0.75213   0.18798   0.59904   0.00000  Uiso   1.00
H306   H     0.78996   0.55545   0.18833   0.00000  Uiso   1.00
H307   H     0.87738   0.09335   0.39201   0.00000  Uiso   1.00
H308   H     0.92905   0.21372   0.42972   0.00000  Uiso   1.00
H309   H     0.84494   0.92747   0.46865   0.00000  Uiso   1.00
H310   H     0.86288   0.10173   0.27388   0.00000  Uiso   1.00
H311   H     0.97886   0.40563   0.47753   0.00000  Uiso   1.00
H312   H     0.80149   0.80204   0.55960   0.00000  Uiso   1.00
H313   H     0.83933   0.16951   0.14889   0.00000  Uiso   1.00
O314   O     0.98712   0.68589   0.52291   0.00000  Uiso   1.00
O315   O     0.75443   0.89401   0.63057   0.00000  Uiso   1.00
O316   O     0.80407   0.37613   0.09173   0.00000  Uiso   1.00
N317   N     0.93402   0.68423   0.50250   0.00000  Uiso   1.00
N318   N     0.76820   0.11992   0.57924   0.00000  Uiso   1.00
N319   N     0.80356   0.46345   0.19526   0.00000  Uiso   1.00
N320   N     0.96058   0.47656   0.48128   0.00000  Uiso   1.00
N321   N     0.79476   0.91225   0.55802   0.00000  Uiso   1.00
N322   N     0.83013   0.25578   0.17404   0.00000  Uiso   1.00
C323   C     0.66706   0.05914   0.92752   0.00000  Uiso   1.00
C324   C     0.63271   0.04281   0.94299   0.00000  Uiso   1.00
C325   C     0.61863   0.91341   0.96783   0.00000  Uiso   1.00
C326   C     0.58694   0.92136   0.97864   0.00000  Uiso   1.00
C327   C     0.53618   0.87585   0.00475   0.00000  Uiso   1.00
C328   C     0.67841   0.19834   0.96415   0.00000  Uiso   1.00
C329   C     0.70275   0.19970   0.00677   0.00000  Uiso   1.00
C330   C     0.70953   0.33858   0.03539   0.00000  Uiso   1.00
C331   C     0.72974   0.53455   0.09432   0.00000  Uiso   1.00
C332   C     0.66866   0.10364   0.85833   0.00000  Uiso   1.00
C333   C     0.68481   0.02541   0.81197   0.00000  Uiso   1.00
C334   C     0.68339   0.08459   0.75149   0.00000  Uiso   1.00
C335   C     0.68846   0.13353   0.64612   0.00000  Uiso   1.00
C336   C     0.63583   0.30336   0.90256   0.00000  Uiso   1.00
C337   C     0.61575   0.17547   0.92944   0.00000  Uiso   1.00
C338   C     0.58407   0.18361   0.94021   0.00000  Uiso   1.00
C339   C     0.56994   0.05424   0.96506   0.00000  Uiso   1.00
C340   C     0.66145   0.33099   0.95060   0.00000  Uiso   1.00
C341   C     0.66819   0.46990   0.97916   0.00000  Uiso   1.00
C342   C     0.69254   0.47147   0.02181   0.00000  Uiso   1.00
C343   C     0.65170   0.23630   0.84477   0.00000  Uiso   1.00
C344   C     0.65025   0.29561   0.78436   0.00000  Uiso   1.00
C345   C     0.66639   0.21748   0.73792   0.00000  Uiso   1.00
H346   H     0.68028   0.95587   0.93808   0.00000  Uiso   1.00
H347   H     0.63177   0.81078   0.97832   0.00000  Uiso   1.00
H348   H     0.71588   0.09703   0.01725   0.00000  Uiso   1.00
H349   H     0.69794   0.92277   0.82248   0.00000  Uiso   1.00
H350   H     0.57051   0.70844   0.01697   0.00000  Uiso   1.00
H351   H     0.74787   0.31202   0.09904   0.00000  Uiso   1.00
H352   H     0.71004   0.94455   0.68833   0.00000  Uiso   1.00
H353   H     0.62262   0.40665   0.89201   0.00000  Uiso   1.00
H354   H     0.57095   0.28628   0.92972   0.00000  Uiso   1.00
H355   H     0.65506   0.57253   0.96865   0.00000  Uiso   1.00
H356   H     0.63712   0.39827   0.77388   0.00000  Uiso   1.00
H357   H     0.52114   0.09437   0.97753   0.00000  Uiso   1.00
H358   H     0.69851   0.69796   0.05960   0.00000  Uiso   1.00
H359   H     0.66067   0.33049   0.64889   0.00000  Uiso   1.00
O360   O     0.51288   0.81411   0.02291   0.00000  Uiso   1.00
O361   O     0.74557   0.60599   0.13057   0.00000  Uiso   1.00
O362   O     0.69593   0.12387   0.59173   0.00000  Uiso   1.00
N363   N     0.56598   0.81577   0.00250   0.00000  Uiso   1.00
N364   N     0.73180   0.38008   0.07924   0.00000  Uiso   1.00
N365   N     0.69644   0.03655   0.69526   0.00000  Uiso   1.00
N366   N     0.53942   0.02344   0.98128   0.00000  Uiso   1.00
N367   N     0.70524   0.58775   0.05802   0.00000  Uiso   1.00
N368   N     0.66987   0.24422   0.67404   0.00000  Uiso   1.00
