data_job_01356
_audit_creation_date              2018-12-19
_audit_creation_method            'Materials Studio'
_symmetry_space_group_name_H-M    'P1'
_symmetry_Int_Tables_number       1
_symmetry_cell_setting            triclinic
loop_
_symmetry_equiv_pos_as_xyz
  x,y,z
_cell_length_a                    19.1898
_cell_length_b                    19.1898
_cell_length_c                    12.8118
_cell_angle_alpha                 90.0000
_cell_angle_beta                  90.0000
_cell_angle_gamma                 90.0000
loop_
_atom_site_label
_atom_site_type_symbol
_atom_site_fract_x
_atom_site_fract_y
_atom_site_fract_z
_atom_site_U_iso_or_equiv
_atom_site_adp_type
_atom_site_occupancy
C1     C     0.25600   0.93864   0.97502   0.00000  Uiso   1.00
C2     C     0.26907   0.01439   0.00518   0.00000  Uiso   1.00
C3     C     0.25559   0.04384   0.10203   0.00000  Uiso   1.00
C4     C     0.27117   0.11404   0.11401   0.00000  Uiso   1.00
C5     C     0.28716   0.22570   0.17329   0.00000  Uiso   1.00
C6     C     0.20857   0.94073   0.87957   0.00000  Uiso   1.00
C7     C     0.14423   0.90824   0.87082   0.00000  Uiso   1.00
C8     C     0.10888   0.91643   0.77705   0.00000  Uiso   1.00
C9     C     0.03097   0.91369   0.64130   0.00000  Uiso   1.00
C10    C     0.32575   0.91034   0.93687   0.00000  Uiso   1.00
C11    C     0.35992   0.85228   0.97626   0.00000  Uiso   1.00
C12    C     0.42322   0.83486   0.93071   0.00000  Uiso   1.00
C13    C     0.52725   0.78494   0.88392   0.00000  Uiso   1.00
C14    C     0.30765   0.01094   0.82407   0.00000  Uiso   1.00
C15    C     0.29713   0.05366   0.92318   0.00000  Uiso   1.00
C16    C     0.31273   0.12383   0.93502   0.00000  Uiso   1.00
C17    C     0.29928   0.15338   0.03187   0.00000  Uiso   1.00
C18    C     0.23662   0.98000   0.79759   0.00000  Uiso   1.00
C19    C     0.20137   0.98824   0.70381   0.00000  Uiso   1.00
C20    C     0.13698   0.95577   0.69491   0.00000  Uiso   1.00
C21    C     0.35381   0.94961   0.85488   0.00000  Uiso   1.00
C22    C     0.41707   0.93228   0.80925   0.00000  Uiso   1.00
C23    C     0.45133   0.87421   0.84857   0.00000  Uiso   1.00
H24    H     0.23416   0.90806   0.03885   0.00000  Uiso   1.00
H25    H     0.23387   0.01343   0.16546   0.00000  Uiso   1.00
H26    H     0.12253   0.87784   0.93427   0.00000  Uiso   1.00
H27    H     0.33819   0.82190   0.03971   0.00000  Uiso   1.00
H28    H     0.24590   0.14757   0.26966   0.00000  Uiso   1.00
H29    H     0.01115   0.86167   0.78218   0.00000  Uiso   1.00
H30    H     0.46591   0.74369   0.00450   0.00000  Uiso   1.00
H31    H     0.32949   0.04152   0.76024   0.00000  Uiso   1.00
H32    H     0.33444   0.15421   0.87156   0.00000  Uiso   1.00
H33    H     0.22310   0.01863   0.64038   0.00000  Uiso   1.00
H34    H     0.43876   0.96268   0.74581   0.00000  Uiso   1.00
H35    H     0.32753   0.26184   0.03112   0.00000  Uiso   1.00
H36    H     0.09277   0.97593   0.54364   0.00000  Uiso   1.00
H37    H     0.54753   0.85796   0.76596   0.00000  Uiso   1.00
O38    O     0.28823   0.27644   0.22863   0.00000  Uiso   1.00
O39    O     0.98024   0.90133   0.58908   0.00000  Uiso   1.00
O40    O     0.57688   0.74655   0.88077   0.00000  Uiso   1.00
N41    N     0.26445   0.15900   0.19824   0.00000  Uiso   1.00
N42    N     0.04496   0.89170   0.74249   0.00000  Uiso   1.00
N43    N     0.47012   0.78139   0.95032   0.00000  Uiso   1.00
N44    N     0.30837   0.22048   0.06989   0.00000  Uiso   1.00
N45    N     0.08888   0.95319   0.61414   0.00000  Uiso   1.00
N46    N     0.51404   0.84288   0.82197   0.00000  Uiso   1.00
C47    C     0.74400   0.06136   0.97502   0.00000  Uiso   1.00
C48    C     0.73093   0.98561   0.00518   0.00000  Uiso   1.00
C49    C     0.74441   0.95616   0.10203   0.00000  Uiso   1.00
C50    C     0.72883   0.88596   0.11401   0.00000  Uiso   1.00
C51    C     0.71284   0.77430   0.17329   0.00000  Uiso   1.00
C52    C     0.79143   0.05927   0.87957   0.00000  Uiso   1.00
C53    C     0.85577   0.09176   0.87082   0.00000  Uiso   1.00
C54    C     0.89112   0.08357   0.77705   0.00000  Uiso   1.00
C55    C     0.96903   0.08631   0.64130   0.00000  Uiso   1.00
C56    C     0.67425   0.08966   0.93687   0.00000  Uiso   1.00
C57    C     0.64008   0.14772   0.97626   0.00000  Uiso   1.00
C58    C     0.57678   0.16514   0.93071   0.00000  Uiso   1.00
C59    C     0.47275   0.21506   0.88392   0.00000  Uiso   1.00
C60    C     0.69235   0.98906   0.82407   0.00000  Uiso   1.00
C61    C     0.70287   0.94634   0.92318   0.00000  Uiso   1.00
C62    C     0.68727   0.87617   0.93502   0.00000  Uiso   1.00
C63    C     0.70072   0.84662   0.03187   0.00000  Uiso   1.00
C64    C     0.76338   0.02000   0.79759   0.00000  Uiso   1.00
C65    C     0.79863   0.01176   0.70381   0.00000  Uiso   1.00
C66    C     0.86302   0.04423   0.69491   0.00000  Uiso   1.00
C67    C     0.64619   0.05039   0.85488   0.00000  Uiso   1.00
C68    C     0.58293   0.06772   0.80925   0.00000  Uiso   1.00
C69    C     0.54867   0.12579   0.84857   0.00000  Uiso   1.00
H70    H     0.76584   0.09194   0.03885   0.00000  Uiso   1.00
H71    H     0.76613   0.98657   0.16546   0.00000  Uiso   1.00
H72    H     0.87747   0.12216   0.93427   0.00000  Uiso   1.00
H73    H     0.66181   0.17810   0.03971   0.00000  Uiso   1.00
H74    H     0.75410   0.85243   0.26966   0.00000  Uiso   1.00
H75    H     0.98885   0.13833   0.78218   0.00000  Uiso   1.00
H76    H     0.53409   0.25631   0.00450   0.00000  Uiso   1.00
H77    H     0.67051   0.95848   0.76024   0.00000  Uiso   1.00
H78    H     0.66556   0.84579   0.87156   0.00000  Uiso   1.00
H79    H     0.77690   0.98137   0.64038   0.00000  Uiso   1.00
H80    H     0.56124   0.03732   0.74581   0.00000  Uiso   1.00
H81    H     0.67247   0.73816   0.03112   0.00000  Uiso   1.00
H82    H     0.90723   0.02407   0.54364   0.00000  Uiso   1.00
H83    H     0.45247   0.14204   0.76596   0.00000  Uiso   1.00
O84    O     0.71177   0.72356   0.22863   0.00000  Uiso   1.00
O85    O     0.01976   0.09867   0.58908   0.00000  Uiso   1.00
O86    O     0.42312   0.25345   0.88077   0.00000  Uiso   1.00
N87    N     0.73555   0.84100   0.19824   0.00000  Uiso   1.00
N88    N     0.95504   0.10830   0.74249   0.00000  Uiso   1.00
N89    N     0.52988   0.21861   0.95032   0.00000  Uiso   1.00
N90    N     0.69163   0.77952   0.06989   0.00000  Uiso   1.00
N91    N     0.91112   0.04681   0.61414   0.00000  Uiso   1.00
N92    N     0.48596   0.15712   0.82197   0.00000  Uiso   1.00
C93    C     0.93864   0.74400   0.02498   0.00000  Uiso   1.00
C94    C     0.01439   0.73093   0.99482   0.00000  Uiso   1.00
C95    C     0.04384   0.74441   0.89797   0.00000  Uiso   1.00
C96    C     0.11404   0.72883   0.88599   0.00000  Uiso   1.00
C97    C     0.22570   0.71284   0.82671   0.00000  Uiso   1.00
C98    C     0.94073   0.79143   0.12043   0.00000  Uiso   1.00
C99    C     0.90824   0.85577   0.12918   0.00000  Uiso   1.00
C100   C     0.91643   0.89112   0.22295   0.00000  Uiso   1.00
C101   C     0.91369   0.96903   0.35870   0.00000  Uiso   1.00
C102   C     0.91034   0.67425   0.06313   0.00000  Uiso   1.00
C103   C     0.85228   0.64008   0.02374   0.00000  Uiso   1.00
C104   C     0.83486   0.57678   0.06929   0.00000  Uiso   1.00
C105   C     0.78494   0.47275   0.11608   0.00000  Uiso   1.00
C106   C     0.01094   0.69235   0.17593   0.00000  Uiso   1.00
C107   C     0.05366   0.70287   0.07682   0.00000  Uiso   1.00
C108   C     0.12383   0.68727   0.06498   0.00000  Uiso   1.00
C109   C     0.15338   0.70072   0.96813   0.00000  Uiso   1.00
C110   C     0.98000   0.76338   0.20241   0.00000  Uiso   1.00
C111   C     0.98824   0.79863   0.29619   0.00000  Uiso   1.00
C112   C     0.95577   0.86302   0.30509   0.00000  Uiso   1.00
C113   C     0.94961   0.64619   0.14512   0.00000  Uiso   1.00
C114   C     0.93228   0.58293   0.19075   0.00000  Uiso   1.00
C115   C     0.87421   0.54867   0.15143   0.00000  Uiso   1.00
H116   H     0.90806   0.76584   0.96115   0.00000  Uiso   1.00
H117   H     0.01343   0.76613   0.83454   0.00000  Uiso   1.00
H118   H     0.87784   0.87747   0.06573   0.00000  Uiso   1.00
H119   H     0.82190   0.66181   0.96029   0.00000  Uiso   1.00
H120   H     0.14757   0.75410   0.73034   0.00000  Uiso   1.00
H121   H     0.86167   0.98885   0.21782   0.00000  Uiso   1.00
H122   H     0.74369   0.53409   0.99550   0.00000  Uiso   1.00
H123   H     0.04152   0.67051   0.23976   0.00000  Uiso   1.00
H124   H     0.15421   0.66556   0.12844   0.00000  Uiso   1.00
H125   H     0.01863   0.77690   0.35962   0.00000  Uiso   1.00
H126   H     0.96268   0.56124   0.25419   0.00000  Uiso   1.00
H127   H     0.26184   0.67247   0.96888   0.00000  Uiso   1.00
H128   H     0.97593   0.90723   0.45636   0.00000  Uiso   1.00
H129   H     0.85796   0.45247   0.23404   0.00000  Uiso   1.00
O130   O     0.27644   0.71177   0.77137   0.00000  Uiso   1.00
O131   O     0.90133   0.01976   0.41092   0.00000  Uiso   1.00
O132   O     0.74655   0.42312   0.11923   0.00000  Uiso   1.00
N133   N     0.15900   0.73555   0.80176   0.00000  Uiso   1.00
N134   N     0.89170   0.95504   0.25751   0.00000  Uiso   1.00
N135   N     0.78139   0.52988   0.04968   0.00000  Uiso   1.00
N136   N     0.22048   0.69163   0.93011   0.00000  Uiso   1.00
N137   N     0.95319   0.91112   0.38586   0.00000  Uiso   1.00
N138   N     0.84288   0.48596   0.17803   0.00000  Uiso   1.00
C139   C     0.06136   0.25600   0.02498   0.00000  Uiso   1.00
C140   C     0.98561   0.26907   0.99482   0.00000  Uiso   1.00
C141   C     0.95616   0.25559   0.89797   0.00000  Uiso   1.00
C142   C     0.88596   0.27117   0.88599   0.00000  Uiso   1.00
C143   C     0.77430   0.28716   0.82671   0.00000  Uiso   1.00
C144   C     0.05927   0.20857   0.12043   0.00000  Uiso   1.00
C145   C     0.09176   0.14423   0.12918   0.00000  Uiso   1.00
C146   C     0.08357   0.10888   0.22295   0.00000  Uiso   1.00
C147   C     0.08631   0.03097   0.35870   0.00000  Uiso   1.00
C148   C     0.08966   0.32575   0.06313   0.00000  Uiso   1.00
C149   C     0.14772   0.35992   0.02374   0.00000  Uiso   1.00
C150   C     0.16514   0.42322   0.06929   0.00000  Uiso   1.00
C151   C     0.21506   0.52725   0.11608   0.00000  Uiso   1.00
C152   C     0.98906   0.30765   0.17593   0.00000  Uiso   1.00
C153   C     0.94634   0.29713   0.07682   0.00000  Uiso   1.00
C154   C     0.87617   0.31273   0.06498   0.00000  Uiso   1.00
C155   C     0.84662   0.29928   0.96813   0.00000  Uiso   1.00
C156   C     0.02000   0.23662   0.20241   0.00000  Uiso   1.00
C157   C     0.01176   0.20137   0.29619   0.00000  Uiso   1.00
C158   C     0.04423   0.13698   0.30509   0.00000  Uiso   1.00
C159   C     0.05039   0.35381   0.14512   0.00000  Uiso   1.00
C160   C     0.06772   0.41707   0.19075   0.00000  Uiso   1.00
C161   C     0.12579   0.45133   0.15143   0.00000  Uiso   1.00
H162   H     0.09194   0.23416   0.96115   0.00000  Uiso   1.00
H163   H     0.98657   0.23387   0.83454   0.00000  Uiso   1.00
H164   H     0.12216   0.12253   0.06573   0.00000  Uiso   1.00
H165   H     0.17810   0.33819   0.96029   0.00000  Uiso   1.00
H166   H     0.85243   0.24590   0.73034   0.00000  Uiso   1.00
H167   H     0.13833   0.01115   0.21782   0.00000  Uiso   1.00
H168   H     0.25631   0.46591   0.99550   0.00000  Uiso   1.00
H169   H     0.95848   0.32949   0.23976   0.00000  Uiso   1.00
H170   H     0.84579   0.33444   0.12844   0.00000  Uiso   1.00
H171   H     0.98137   0.22310   0.35962   0.00000  Uiso   1.00
H172   H     0.03732   0.43876   0.25419   0.00000  Uiso   1.00
H173   H     0.73816   0.32753   0.96888   0.00000  Uiso   1.00
H174   H     0.02407   0.09277   0.45636   0.00000  Uiso   1.00
H175   H     0.14204   0.54753   0.23404   0.00000  Uiso   1.00
O176   O     0.72356   0.28823   0.77137   0.00000  Uiso   1.00
O177   O     0.09867   0.98024   0.41092   0.00000  Uiso   1.00
O178   O     0.25345   0.57688   0.11923   0.00000  Uiso   1.00
N179   N     0.84100   0.26445   0.80176   0.00000  Uiso   1.00
N180   N     0.10830   0.04496   0.25751   0.00000  Uiso   1.00
N181   N     0.21861   0.47012   0.04968   0.00000  Uiso   1.00
N182   N     0.77952   0.30837   0.93011   0.00000  Uiso   1.00
N183   N     0.04681   0.08888   0.38586   0.00000  Uiso   1.00
N184   N     0.15712   0.51404   0.17803   0.00000  Uiso   1.00
C185   C     0.24400   0.43864   0.52498   0.00000  Uiso   1.00
C186   C     0.23093   0.51439   0.49482   0.00000  Uiso   1.00
C187   C     0.24441   0.54384   0.39797   0.00000  Uiso   1.00
C188   C     0.22883   0.61404   0.38599   0.00000  Uiso   1.00
C189   C     0.21284   0.72570   0.32671   0.00000  Uiso   1.00
C190   C     0.29143   0.44073   0.62043   0.00000  Uiso   1.00
C191   C     0.35577   0.40824   0.62918   0.00000  Uiso   1.00
C192   C     0.39112   0.41643   0.72295   0.00000  Uiso   1.00
C193   C     0.46903   0.41369   0.85870   0.00000  Uiso   1.00
C194   C     0.17425   0.41034   0.56313   0.00000  Uiso   1.00
C195   C     0.14008   0.35228   0.52374   0.00000  Uiso   1.00
C196   C     0.07678   0.33486   0.56929   0.00000  Uiso   1.00
C197   C     0.97275   0.28494   0.61608   0.00000  Uiso   1.00
C198   C     0.19235   0.51094   0.67593   0.00000  Uiso   1.00
C199   C     0.20287   0.55366   0.57682   0.00000  Uiso   1.00
C200   C     0.18727   0.62383   0.56498   0.00000  Uiso   1.00
C201   C     0.20072   0.65338   0.46813   0.00000  Uiso   1.00
C202   C     0.26338   0.48000   0.70241   0.00000  Uiso   1.00
C203   C     0.29863   0.48824   0.79619   0.00000  Uiso   1.00
C204   C     0.36302   0.45577   0.80509   0.00000  Uiso   1.00
C205   C     0.14619   0.44961   0.64512   0.00000  Uiso   1.00
C206   C     0.08293   0.43228   0.69075   0.00000  Uiso   1.00
C207   C     0.04867   0.37421   0.65143   0.00000  Uiso   1.00
H208   H     0.26584   0.40806   0.46115   0.00000  Uiso   1.00
H209   H     0.26613   0.51343   0.33454   0.00000  Uiso   1.00
H210   H     0.37747   0.37784   0.56573   0.00000  Uiso   1.00
H211   H     0.16181   0.32190   0.46029   0.00000  Uiso   1.00
H212   H     0.25410   0.64757   0.23034   0.00000  Uiso   1.00
H213   H     0.48885   0.36167   0.71782   0.00000  Uiso   1.00
H214   H     0.03409   0.24369   0.49550   0.00000  Uiso   1.00
H215   H     0.17051   0.54152   0.73976   0.00000  Uiso   1.00
H216   H     0.16556   0.65421   0.62844   0.00000  Uiso   1.00
H217   H     0.27690   0.51863   0.85962   0.00000  Uiso   1.00
H218   H     0.06124   0.46268   0.75419   0.00000  Uiso   1.00
H219   H     0.17247   0.76184   0.46888   0.00000  Uiso   1.00
H220   H     0.40723   0.47593   0.95636   0.00000  Uiso   1.00
H221   H     0.95247   0.35796   0.73404   0.00000  Uiso   1.00
O222   O     0.21177   0.77644   0.27137   0.00000  Uiso   1.00
O223   O     0.51976   0.40133   0.91092   0.00000  Uiso   1.00
O224   O     0.92312   0.24655   0.61923   0.00000  Uiso   1.00
N225   N     0.23555   0.65900   0.30176   0.00000  Uiso   1.00
N226   N     0.45504   0.39170   0.75751   0.00000  Uiso   1.00
N227   N     0.02988   0.28139   0.54968   0.00000  Uiso   1.00
N228   N     0.19163   0.72048   0.43011   0.00000  Uiso   1.00
N229   N     0.41112   0.45319   0.88586   0.00000  Uiso   1.00
N230   N     0.98596   0.34288   0.67803   0.00000  Uiso   1.00
C231   C     0.75600   0.56136   0.52498   0.00000  Uiso   1.00
C232   C     0.76907   0.48561   0.49482   0.00000  Uiso   1.00
C233   C     0.75559   0.45616   0.39797   0.00000  Uiso   1.00
C234   C     0.77117   0.38596   0.38599   0.00000  Uiso   1.00
C235   C     0.78716   0.27430   0.32671   0.00000  Uiso   1.00
C236   C     0.70857   0.55927   0.62043   0.00000  Uiso   1.00
C237   C     0.64423   0.59176   0.62918   0.00000  Uiso   1.00
C238   C     0.60888   0.58357   0.72295   0.00000  Uiso   1.00
C239   C     0.53097   0.58631   0.85870   0.00000  Uiso   1.00
C240   C     0.82575   0.58966   0.56313   0.00000  Uiso   1.00
C241   C     0.85992   0.64772   0.52374   0.00000  Uiso   1.00
C242   C     0.92322   0.66514   0.56929   0.00000  Uiso   1.00
C243   C     0.02725   0.71506   0.61608   0.00000  Uiso   1.00
C244   C     0.80765   0.48906   0.67593   0.00000  Uiso   1.00
C245   C     0.79713   0.44634   0.57682   0.00000  Uiso   1.00
C246   C     0.81273   0.37617   0.56498   0.00000  Uiso   1.00
C247   C     0.79928   0.34662   0.46813   0.00000  Uiso   1.00
C248   C     0.73662   0.52000   0.70241   0.00000  Uiso   1.00
C249   C     0.70137   0.51176   0.79619   0.00000  Uiso   1.00
C250   C     0.63698   0.54423   0.80509   0.00000  Uiso   1.00
C251   C     0.85381   0.55039   0.64512   0.00000  Uiso   1.00
C252   C     0.91707   0.56772   0.69075   0.00000  Uiso   1.00
C253   C     0.95133   0.62579   0.65143   0.00000  Uiso   1.00
H254   H     0.73416   0.59194   0.46115   0.00000  Uiso   1.00
H255   H     0.73387   0.48657   0.33454   0.00000  Uiso   1.00
H256   H     0.62253   0.62216   0.56573   0.00000  Uiso   1.00
H257   H     0.83819   0.67810   0.46029   0.00000  Uiso   1.00
H258   H     0.74590   0.35243   0.23034   0.00000  Uiso   1.00
H259   H     0.51115   0.63833   0.71782   0.00000  Uiso   1.00
H260   H     0.96591   0.75631   0.49550   0.00000  Uiso   1.00
H261   H     0.82949   0.45848   0.73976   0.00000  Uiso   1.00
H262   H     0.83444   0.34579   0.62844   0.00000  Uiso   1.00
H263   H     0.72310   0.48137   0.85962   0.00000  Uiso   1.00
H264   H     0.93876   0.53732   0.75419   0.00000  Uiso   1.00
H265   H     0.82753   0.23816   0.46888   0.00000  Uiso   1.00
H266   H     0.59277   0.52407   0.95636   0.00000  Uiso   1.00
H267   H     0.04753   0.64204   0.73404   0.00000  Uiso   1.00
O268   O     0.78823   0.22356   0.27137   0.00000  Uiso   1.00
O269   O     0.48024   0.59867   0.91092   0.00000  Uiso   1.00
O270   O     0.07688   0.75345   0.61923   0.00000  Uiso   1.00
N271   N     0.76445   0.34100   0.30176   0.00000  Uiso   1.00
N272   N     0.54496   0.60830   0.75751   0.00000  Uiso   1.00
N273   N     0.97012   0.71861   0.54968   0.00000  Uiso   1.00
N274   N     0.80837   0.27952   0.43011   0.00000  Uiso   1.00
N275   N     0.58888   0.54681   0.88586   0.00000  Uiso   1.00
N276   N     0.01404   0.65712   0.67803   0.00000  Uiso   1.00
C277   C     0.56136   0.24400   0.47502   0.00000  Uiso   1.00
C278   C     0.48561   0.23093   0.50518   0.00000  Uiso   1.00
C279   C     0.45616   0.24441   0.60203   0.00000  Uiso   1.00
C280   C     0.38596   0.22883   0.61401   0.00000  Uiso   1.00
C281   C     0.27430   0.21284   0.67329   0.00000  Uiso   1.00
C282   C     0.55927   0.29143   0.37957   0.00000  Uiso   1.00
C283   C     0.59176   0.35577   0.37082   0.00000  Uiso   1.00
C284   C     0.58357   0.39112   0.27705   0.00000  Uiso   1.00
C285   C     0.58631   0.46903   0.14130   0.00000  Uiso   1.00
C286   C     0.58966   0.17425   0.43687   0.00000  Uiso   1.00
C287   C     0.64772   0.14008   0.47626   0.00000  Uiso   1.00
C288   C     0.66514   0.07678   0.43071   0.00000  Uiso   1.00
C289   C     0.71506   0.97275   0.38392   0.00000  Uiso   1.00
C290   C     0.48906   0.19235   0.32407   0.00000  Uiso   1.00
C291   C     0.44634   0.20287   0.42318   0.00000  Uiso   1.00
C292   C     0.37617   0.18727   0.43502   0.00000  Uiso   1.00
C293   C     0.34662   0.20072   0.53187   0.00000  Uiso   1.00
C294   C     0.52000   0.26338   0.29759   0.00000  Uiso   1.00
C295   C     0.51176   0.29863   0.20381   0.00000  Uiso   1.00
C296   C     0.54423   0.36302   0.19491   0.00000  Uiso   1.00
C297   C     0.55039   0.14619   0.35488   0.00000  Uiso   1.00
C298   C     0.56772   0.08293   0.30925   0.00000  Uiso   1.00
C299   C     0.62579   0.04867   0.34857   0.00000  Uiso   1.00
H300   H     0.59194   0.26584   0.53885   0.00000  Uiso   1.00
H301   H     0.48657   0.26613   0.66546   0.00000  Uiso   1.00
H302   H     0.62216   0.37747   0.43427   0.00000  Uiso   1.00
H303   H     0.67810   0.16181   0.53971   0.00000  Uiso   1.00
H304   H     0.35243   0.25410   0.76966   0.00000  Uiso   1.00
H305   H     0.63833   0.48885   0.28218   0.00000  Uiso   1.00
H306   H     0.75631   0.03409   0.50450   0.00000  Uiso   1.00
H307   H     0.45848   0.17051   0.26024   0.00000  Uiso   1.00
H308   H     0.34579   0.16556   0.37156   0.00000  Uiso   1.00
H309   H     0.48137   0.27690   0.14038   0.00000  Uiso   1.00
H310   H     0.53732   0.06124   0.24581   0.00000  Uiso   1.00
H311   H     0.23816   0.17247   0.53112   0.00000  Uiso   1.00
H312   H     0.52407   0.40723   0.04364   0.00000  Uiso   1.00
H313   H     0.64204   0.95247   0.26596   0.00000  Uiso   1.00
O314   O     0.22356   0.21177   0.72863   0.00000  Uiso   1.00
O315   O     0.59867   0.51976   0.08908   0.00000  Uiso   1.00
O316   O     0.75345   0.92312   0.38077   0.00000  Uiso   1.00
N317   N     0.34100   0.23555   0.69824   0.00000  Uiso   1.00
N318   N     0.60830   0.45504   0.24249   0.00000  Uiso   1.00
N319   N     0.71861   0.02988   0.45032   0.00000  Uiso   1.00
N320   N     0.27952   0.19163   0.56989   0.00000  Uiso   1.00
N321   N     0.54681   0.41112   0.11414   0.00000  Uiso   1.00
N322   N     0.65712   0.98596   0.32197   0.00000  Uiso   1.00
C323   C     0.43864   0.75600   0.47502   0.00000  Uiso   1.00
C324   C     0.51439   0.76907   0.50518   0.00000  Uiso   1.00
C325   C     0.54384   0.75559   0.60203   0.00000  Uiso   1.00
C326   C     0.61404   0.77117   0.61401   0.00000  Uiso   1.00
C327   C     0.72570   0.78716   0.67329   0.00000  Uiso   1.00
C328   C     0.44073   0.70857   0.37957   0.00000  Uiso   1.00
C329   C     0.40824   0.64423   0.37082   0.00000  Uiso   1.00
C330   C     0.41643   0.60888   0.27705   0.00000  Uiso   1.00
C331   C     0.41369   0.53097   0.14130   0.00000  Uiso   1.00
C332   C     0.41034   0.82575   0.43687   0.00000  Uiso   1.00
C333   C     0.35228   0.85992   0.47626   0.00000  Uiso   1.00
C334   C     0.33486   0.92322   0.43071   0.00000  Uiso   1.00
C335   C     0.28494   0.02725   0.38392   0.00000  Uiso   1.00
C336   C     0.51094   0.80765   0.32407   0.00000  Uiso   1.00
C337   C     0.55366   0.79713   0.42318   0.00000  Uiso   1.00
C338   C     0.62383   0.81273   0.43502   0.00000  Uiso   1.00
C339   C     0.65338   0.79928   0.53187   0.00000  Uiso   1.00
C340   C     0.48000   0.73662   0.29759   0.00000  Uiso   1.00
C341   C     0.48824   0.70137   0.20381   0.00000  Uiso   1.00
C342   C     0.45577   0.63698   0.19491   0.00000  Uiso   1.00
C343   C     0.44961   0.85381   0.35488   0.00000  Uiso   1.00
C344   C     0.43228   0.91707   0.30925   0.00000  Uiso   1.00
C345   C     0.37421   0.95133   0.34857   0.00000  Uiso   1.00
H346   H     0.40806   0.73416   0.53885   0.00000  Uiso   1.00
H347   H     0.51343   0.73387   0.66546   0.00000  Uiso   1.00
H348   H     0.37784   0.62253   0.43427   0.00000  Uiso   1.00
H349   H     0.32190   0.83819   0.53971   0.00000  Uiso   1.00
H350   H     0.64757   0.74590   0.76966   0.00000  Uiso   1.00
H351   H     0.36167   0.51115   0.28218   0.00000  Uiso   1.00
H352   H     0.24369   0.96591   0.50450   0.00000  Uiso   1.00
H353   H     0.54152   0.82949   0.26024   0.00000  Uiso   1.00
H354   H     0.65421   0.83444   0.37156   0.00000  Uiso   1.00
H355   H     0.51863   0.72310   0.14038   0.00000  Uiso   1.00
H356   H     0.46268   0.93876   0.24581   0.00000  Uiso   1.00
H357   H     0.76184   0.82753   0.53112   0.00000  Uiso   1.00
H358   H     0.47593   0.59277   0.04364   0.00000  Uiso   1.00
H359   H     0.35796   0.04753   0.26596   0.00000  Uiso   1.00
O360   O     0.77644   0.78823   0.72863   0.00000  Uiso   1.00
O361   O     0.40133   0.48024   0.08908   0.00000  Uiso   1.00
O362   O     0.24655   0.07688   0.38077   0.00000  Uiso   1.00
N363   N     0.65900   0.76445   0.69824   0.00000  Uiso   1.00
N364   N     0.39170   0.54496   0.24249   0.00000  Uiso   1.00
N365   N     0.28139   0.97012   0.45032   0.00000  Uiso   1.00
N366   N     0.72048   0.80837   0.56989   0.00000  Uiso   1.00
N367   N     0.45319   0.58888   0.11414   0.00000  Uiso   1.00
N368   N     0.34288   0.01404   0.32197   0.00000  Uiso   1.00
