data_job_03392
_audit_creation_date              2018-12-19
_audit_creation_method            'Materials Studio'
_symmetry_space_group_name_H-M    'P1'
_symmetry_Int_Tables_number       1
_symmetry_cell_setting            triclinic
loop_
_symmetry_equiv_pos_as_xyz
  x,y,z
_cell_length_a                    20.4539
_cell_length_b                    14.4423
_cell_length_c                    22.8501
_cell_angle_alpha                 90.0000
_cell_angle_beta                  111.9970
_cell_angle_gamma                 90.0000
loop_
_atom_site_label
_atom_site_type_symbol
_atom_site_fract_x
_atom_site_fract_y
_atom_site_fract_z
_atom_site_U_iso_or_equiv
_atom_site_adp_type
_atom_site_occupancy
C1     C     0.48980   0.36633   0.48042   0.00000  Uiso   1.00
C2     C     0.56866   0.34618   0.50969   0.00000  Uiso   1.00
C3     C     0.62048   0.40804   0.54466   0.00000  Uiso   1.00
C4     C     0.68959   0.37631   0.56736   0.00000  Uiso   1.00
C5     C     0.80951   0.35878   0.61459   0.00000  Uiso   1.00
C6     C     0.46739   0.34581   0.41014   0.00000  Uiso   1.00
C7     C     0.43407   0.40736   0.36141   0.00000  Uiso   1.00
C8     C     0.41791   0.37531   0.30030   0.00000  Uiso   1.00
C9     C     0.38057   0.35718   0.19297   0.00000  Uiso   1.00
C10    C     0.45430   0.29300   0.50642   0.00000  Uiso   1.00
C11    C     0.40995   0.31014   0.53863   0.00000  Uiso   1.00
C12    C     0.38276   0.23362   0.55857   0.00000  Uiso   1.00
C13    C     0.32509   0.13350   0.60074   0.00000  Uiso   1.00
C14    C     0.52036   0.19997   0.45854   0.00000  Uiso   1.00
C15    C     0.58526   0.25582   0.49780   0.00000  Uiso   1.00
C16    C     0.65430   0.22398   0.52045   0.00000  Uiso   1.00
C17    C     0.70622   0.28579   0.55545   0.00000  Uiso   1.00
C18    C     0.48399   0.25545   0.39825   0.00000  Uiso   1.00
C19    C     0.46788   0.22330   0.33720   0.00000  Uiso   1.00
C20    C     0.43454   0.28478   0.28839   0.00000  Uiso   1.00
C21    C     0.47090   0.20263   0.49454   0.00000  Uiso   1.00
C22    C     0.44377   0.12608   0.51443   0.00000  Uiso   1.00
C23    C     0.39939   0.14310   0.54666   0.00000  Uiso   1.00
H24    H     0.47688   0.43668   0.48967   0.00000  Uiso   1.00
H25    H     0.60762   0.47797   0.55385   0.00000  Uiso   1.00
H26    H     0.42122   0.47728   0.37062   0.00000  Uiso   1.00
H27    H     0.39712   0.38007   0.54782   0.00000  Uiso   1.00
H28    H     0.75989   0.48390   0.61974   0.00000  Uiso   1.00
H29    H     0.36684   0.48244   0.23340   0.00000  Uiso   1.00
H30    H     0.31601   0.27746   0.60706   0.00000  Uiso   1.00
H31    H     0.53329   0.12962   0.44928   0.00000  Uiso   1.00
H32    H     0.66713   0.15405   0.51125   0.00000  Uiso   1.00
H33    H     0.48073   0.15337   0.32802   0.00000  Uiso   1.00
H34    H     0.45663   0.05616   0.50522   0.00000  Uiso   1.00
H35    H     0.80819   0.22101   0.58516   0.00000  Uiso   1.00
H36    H     0.41514   0.21954   0.19882   0.00000  Uiso   1.00
H37    H     0.36431   0.01456   0.57248   0.00000  Uiso   1.00
O38    O     0.87107   0.37408   0.64392   0.00000  Uiso   1.00
O39    O     0.35539   0.37216   0.13706   0.00000  Uiso   1.00
O40    O     0.28871   0.10323   0.62730   0.00000  Uiso   1.00
N41    N     0.75289   0.41867   0.60311   0.00000  Uiso   1.00
N42    N     0.38542   0.41731   0.24190   0.00000  Uiso   1.00
N43    N     0.33788   0.22567   0.59123   0.00000  Uiso   1.00
N44    N     0.77888   0.27721   0.58450   0.00000  Uiso   1.00
N45    N     0.41141   0.27585   0.22330   0.00000  Uiso   1.00
N46    N     0.36387   0.08421   0.57262   0.00000  Uiso   1.00
C47    C     0.98980   0.86633   0.48042   0.00000  Uiso   1.00
C48    C     0.06866   0.84618   0.50969   0.00000  Uiso   1.00
C49    C     0.12048   0.90804   0.54466   0.00000  Uiso   1.00
C50    C     0.18959   0.87631   0.56736   0.00000  Uiso   1.00
C51    C     0.30951   0.85878   0.61459   0.00000  Uiso   1.00
C52    C     0.96739   0.84581   0.41014   0.00000  Uiso   1.00
C53    C     0.93407   0.90736   0.36141   0.00000  Uiso   1.00
C54    C     0.91791   0.87531   0.30030   0.00000  Uiso   1.00
C55    C     0.88057   0.85718   0.19297   0.00000  Uiso   1.00
C56    C     0.95430   0.79300   0.50642   0.00000  Uiso   1.00
C57    C     0.90995   0.81014   0.53863   0.00000  Uiso   1.00
C58    C     0.88276   0.73362   0.55857   0.00000  Uiso   1.00
C59    C     0.82509   0.63350   0.60074   0.00000  Uiso   1.00
C60    C     0.02036   0.69997   0.45854   0.00000  Uiso   1.00
C61    C     0.08526   0.75582   0.49780   0.00000  Uiso   1.00
C62    C     0.15430   0.72398   0.52045   0.00000  Uiso   1.00
C63    C     0.20622   0.78579   0.55545   0.00000  Uiso   1.00
C64    C     0.98399   0.75545   0.39825   0.00000  Uiso   1.00
C65    C     0.96788   0.72330   0.33720   0.00000  Uiso   1.00
C66    C     0.93454   0.78478   0.28839   0.00000  Uiso   1.00
C67    C     0.97090   0.70263   0.49454   0.00000  Uiso   1.00
C68    C     0.94377   0.62608   0.51443   0.00000  Uiso   1.00
C69    C     0.89939   0.64310   0.54666   0.00000  Uiso   1.00
H70    H     0.97688   0.93668   0.48967   0.00000  Uiso   1.00
H71    H     0.10762   0.97797   0.55385   0.00000  Uiso   1.00
H72    H     0.92122   0.97728   0.37062   0.00000  Uiso   1.00
H73    H     0.89712   0.88007   0.54782   0.00000  Uiso   1.00
H74    H     0.25989   0.98390   0.61974   0.00000  Uiso   1.00
H75    H     0.86684   0.98244   0.23340   0.00000  Uiso   1.00
H76    H     0.81601   0.77746   0.60706   0.00000  Uiso   1.00
H77    H     0.03329   0.62962   0.44928   0.00000  Uiso   1.00
H78    H     0.16713   0.65405   0.51125   0.00000  Uiso   1.00
H79    H     0.98073   0.65337   0.32802   0.00000  Uiso   1.00
H80    H     0.95663   0.55616   0.50522   0.00000  Uiso   1.00
H81    H     0.30819   0.72101   0.58516   0.00000  Uiso   1.00
H82    H     0.91514   0.71954   0.19882   0.00000  Uiso   1.00
H83    H     0.86431   0.51456   0.57248   0.00000  Uiso   1.00
O84    O     0.37107   0.87408   0.64392   0.00000  Uiso   1.00
O85    O     0.85539   0.87216   0.13706   0.00000  Uiso   1.00
O86    O     0.78871   0.60323   0.62730   0.00000  Uiso   1.00
N87    N     0.25289   0.91867   0.60311   0.00000  Uiso   1.00
N88    N     0.88542   0.91731   0.24190   0.00000  Uiso   1.00
N89    N     0.83788   0.72567   0.59123   0.00000  Uiso   1.00
N90    N     0.27888   0.77721   0.58450   0.00000  Uiso   1.00
N91    N     0.91141   0.77585   0.22330   0.00000  Uiso   1.00
N92    N     0.86387   0.58421   0.57262   0.00000  Uiso   1.00
C93    C     0.51020   0.36633   0.01958   0.00000  Uiso   1.00
C94    C     0.43134   0.34618   0.99031   0.00000  Uiso   1.00
C95    C     0.37952   0.40804   0.95534   0.00000  Uiso   1.00
C96    C     0.31041   0.37631   0.93264   0.00000  Uiso   1.00
C97    C     0.19049   0.35878   0.88541   0.00000  Uiso   1.00
C98    C     0.53261   0.34581   0.08986   0.00000  Uiso   1.00
C99    C     0.56593   0.40736   0.13859   0.00000  Uiso   1.00
C100   C     0.58209   0.37531   0.19970   0.00000  Uiso   1.00
C101   C     0.61943   0.35718   0.30703   0.00000  Uiso   1.00
C102   C     0.54570   0.29300   0.99358   0.00000  Uiso   1.00
C103   C     0.59005   0.31014   0.96137   0.00000  Uiso   1.00
C104   C     0.61724   0.23362   0.94143   0.00000  Uiso   1.00
C105   C     0.67491   0.13350   0.89926   0.00000  Uiso   1.00
C106   C     0.47964   0.19997   0.04146   0.00000  Uiso   1.00
C107   C     0.41474   0.25582   0.00220   0.00000  Uiso   1.00
C108   C     0.34570   0.22398   0.97955   0.00000  Uiso   1.00
C109   C     0.29378   0.28579   0.94455   0.00000  Uiso   1.00
C110   C     0.51601   0.25545   0.10175   0.00000  Uiso   1.00
C111   C     0.53212   0.22330   0.16280   0.00000  Uiso   1.00
C112   C     0.56546   0.28478   0.21161   0.00000  Uiso   1.00
C113   C     0.52910   0.20263   0.00546   0.00000  Uiso   1.00
C114   C     0.55623   0.12608   0.98557   0.00000  Uiso   1.00
C115   C     0.60061   0.14310   0.95334   0.00000  Uiso   1.00
H116   H     0.52312   0.43668   0.01033   0.00000  Uiso   1.00
H117   H     0.39238   0.47797   0.94615   0.00000  Uiso   1.00
H118   H     0.57878   0.47728   0.12938   0.00000  Uiso   1.00
H119   H     0.60288   0.38007   0.95218   0.00000  Uiso   1.00
H120   H     0.24011   0.48390   0.88026   0.00000  Uiso   1.00
H121   H     0.63316   0.48244   0.26660   0.00000  Uiso   1.00
H122   H     0.68399   0.27746   0.89294   0.00000  Uiso   1.00
H123   H     0.46671   0.12962   0.05072   0.00000  Uiso   1.00
H124   H     0.33287   0.15405   0.98875   0.00000  Uiso   1.00
H125   H     0.51927   0.15337   0.17198   0.00000  Uiso   1.00
H126   H     0.54337   0.05616   0.99478   0.00000  Uiso   1.00
H127   H     0.19181   0.22101   0.91484   0.00000  Uiso   1.00
H128   H     0.58486   0.21954   0.30118   0.00000  Uiso   1.00
H129   H     0.63569   0.01456   0.92752   0.00000  Uiso   1.00
O130   O     0.12893   0.37408   0.85608   0.00000  Uiso   1.00
O131   O     0.64461   0.37216   0.36294   0.00000  Uiso   1.00
O132   O     0.71129   0.10323   0.87270   0.00000  Uiso   1.00
N133   N     0.24711   0.41867   0.89689   0.00000  Uiso   1.00
N134   N     0.61458   0.41731   0.25810   0.00000  Uiso   1.00
N135   N     0.66212   0.22567   0.90877   0.00000  Uiso   1.00
N136   N     0.22112   0.27721   0.91550   0.00000  Uiso   1.00
N137   N     0.58859   0.27585   0.27670   0.00000  Uiso   1.00
N138   N     0.63613   0.08421   0.92738   0.00000  Uiso   1.00
C139   C     0.01020   0.86633   0.01958   0.00000  Uiso   1.00
C140   C     0.93134   0.84618   0.99031   0.00000  Uiso   1.00
C141   C     0.87952   0.90804   0.95534   0.00000  Uiso   1.00
C142   C     0.81041   0.87631   0.93264   0.00000  Uiso   1.00
C143   C     0.69049   0.85878   0.88541   0.00000  Uiso   1.00
C144   C     0.03261   0.84581   0.08986   0.00000  Uiso   1.00
C145   C     0.06593   0.90736   0.13859   0.00000  Uiso   1.00
C146   C     0.08209   0.87531   0.19970   0.00000  Uiso   1.00
C147   C     0.11943   0.85718   0.30703   0.00000  Uiso   1.00
C148   C     0.04570   0.79300   0.99358   0.00000  Uiso   1.00
C149   C     0.09005   0.81014   0.96137   0.00000  Uiso   1.00
C150   C     0.11724   0.73362   0.94143   0.00000  Uiso   1.00
C151   C     0.17491   0.63350   0.89926   0.00000  Uiso   1.00
C152   C     0.97964   0.69997   0.04146   0.00000  Uiso   1.00
C153   C     0.91474   0.75582   0.00220   0.00000  Uiso   1.00
C154   C     0.84570   0.72398   0.97955   0.00000  Uiso   1.00
C155   C     0.79378   0.78579   0.94455   0.00000  Uiso   1.00
C156   C     0.01601   0.75545   0.10175   0.00000  Uiso   1.00
C157   C     0.03212   0.72330   0.16280   0.00000  Uiso   1.00
C158   C     0.06546   0.78478   0.21161   0.00000  Uiso   1.00
C159   C     0.02910   0.70263   0.00546   0.00000  Uiso   1.00
C160   C     0.05623   0.62608   0.98557   0.00000  Uiso   1.00
C161   C     0.10061   0.64310   0.95334   0.00000  Uiso   1.00
H162   H     0.02312   0.93668   0.01033   0.00000  Uiso   1.00
H163   H     0.89238   0.97797   0.94615   0.00000  Uiso   1.00
H164   H     0.07878   0.97728   0.12938   0.00000  Uiso   1.00
H165   H     0.10288   0.88007   0.95218   0.00000  Uiso   1.00
H166   H     0.74011   0.98390   0.88026   0.00000  Uiso   1.00
H167   H     0.13316   0.98244   0.26660   0.00000  Uiso   1.00
H168   H     0.18399   0.77746   0.89294   0.00000  Uiso   1.00
H169   H     0.96671   0.62962   0.05072   0.00000  Uiso   1.00
H170   H     0.83287   0.65405   0.98875   0.00000  Uiso   1.00
H171   H     0.01927   0.65337   0.17198   0.00000  Uiso   1.00
H172   H     0.04337   0.55616   0.99478   0.00000  Uiso   1.00
H173   H     0.69181   0.72101   0.91484   0.00000  Uiso   1.00
H174   H     0.08486   0.71954   0.30118   0.00000  Uiso   1.00
H175   H     0.13569   0.51456   0.92752   0.00000  Uiso   1.00
O176   O     0.62893   0.87408   0.85608   0.00000  Uiso   1.00
O177   O     0.14461   0.87216   0.36294   0.00000  Uiso   1.00
O178   O     0.21129   0.60323   0.87270   0.00000  Uiso   1.00
N179   N     0.74711   0.91867   0.89689   0.00000  Uiso   1.00
N180   N     0.11458   0.91731   0.25810   0.00000  Uiso   1.00
N181   N     0.16212   0.72567   0.90877   0.00000  Uiso   1.00
N182   N     0.72112   0.77721   0.91550   0.00000  Uiso   1.00
N183   N     0.08859   0.77585   0.27670   0.00000  Uiso   1.00
N184   N     0.13613   0.58421   0.92738   0.00000  Uiso   1.00
C185   C     0.51020   0.63367   0.51958   0.00000  Uiso   1.00
C186   C     0.43134   0.65382   0.49031   0.00000  Uiso   1.00
C187   C     0.37952   0.59196   0.45534   0.00000  Uiso   1.00
C188   C     0.31041   0.62369   0.43264   0.00000  Uiso   1.00
C189   C     0.19049   0.64122   0.38541   0.00000  Uiso   1.00
C190   C     0.53261   0.65419   0.58986   0.00000  Uiso   1.00
C191   C     0.56593   0.59264   0.63859   0.00000  Uiso   1.00
C192   C     0.58209   0.62469   0.69970   0.00000  Uiso   1.00
C193   C     0.61943   0.64282   0.80703   0.00000  Uiso   1.00
C194   C     0.54570   0.70700   0.49358   0.00000  Uiso   1.00
C195   C     0.59005   0.68986   0.46137   0.00000  Uiso   1.00
C196   C     0.61724   0.76638   0.44143   0.00000  Uiso   1.00
C197   C     0.67491   0.86650   0.39926   0.00000  Uiso   1.00
C198   C     0.47964   0.80003   0.54146   0.00000  Uiso   1.00
C199   C     0.41474   0.74418   0.50220   0.00000  Uiso   1.00
C200   C     0.34570   0.77602   0.47955   0.00000  Uiso   1.00
C201   C     0.29378   0.71421   0.44455   0.00000  Uiso   1.00
C202   C     0.51601   0.74455   0.60175   0.00000  Uiso   1.00
C203   C     0.53212   0.77670   0.66280   0.00000  Uiso   1.00
C204   C     0.56546   0.71522   0.71161   0.00000  Uiso   1.00
C205   C     0.52910   0.79737   0.50546   0.00000  Uiso   1.00
C206   C     0.55623   0.87392   0.48557   0.00000  Uiso   1.00
C207   C     0.60061   0.85690   0.45334   0.00000  Uiso   1.00
H208   H     0.52312   0.56332   0.51033   0.00000  Uiso   1.00
H209   H     0.39238   0.52203   0.44615   0.00000  Uiso   1.00
H210   H     0.57878   0.52272   0.62938   0.00000  Uiso   1.00
H211   H     0.60288   0.61993   0.45218   0.00000  Uiso   1.00
H212   H     0.24011   0.51610   0.38026   0.00000  Uiso   1.00
H213   H     0.63316   0.51756   0.76660   0.00000  Uiso   1.00
H214   H     0.68399   0.72254   0.39294   0.00000  Uiso   1.00
H215   H     0.46671   0.87038   0.55072   0.00000  Uiso   1.00
H216   H     0.33287   0.84595   0.48875   0.00000  Uiso   1.00
H217   H     0.51927   0.84663   0.67198   0.00000  Uiso   1.00
H218   H     0.54337   0.94384   0.49478   0.00000  Uiso   1.00
H219   H     0.19181   0.77899   0.41484   0.00000  Uiso   1.00
H220   H     0.58486   0.78046   0.80118   0.00000  Uiso   1.00
H221   H     0.63569   0.98544   0.42752   0.00000  Uiso   1.00
O222   O     0.12893   0.62592   0.35608   0.00000  Uiso   1.00
O223   O     0.64461   0.62784   0.86294   0.00000  Uiso   1.00
O224   O     0.71129   0.89677   0.37270   0.00000  Uiso   1.00
N225   N     0.24711   0.58133   0.39689   0.00000  Uiso   1.00
N226   N     0.61458   0.58269   0.75810   0.00000  Uiso   1.00
N227   N     0.66212   0.77433   0.40877   0.00000  Uiso   1.00
N228   N     0.22112   0.72279   0.41550   0.00000  Uiso   1.00
N229   N     0.58859   0.72415   0.77670   0.00000  Uiso   1.00
N230   N     0.63613   0.91579   0.42738   0.00000  Uiso   1.00
C231   C     0.01020   0.13367   0.51958   0.00000  Uiso   1.00
C232   C     0.93134   0.15382   0.49031   0.00000  Uiso   1.00
C233   C     0.87952   0.09196   0.45534   0.00000  Uiso   1.00
C234   C     0.81041   0.12369   0.43264   0.00000  Uiso   1.00
C235   C     0.69049   0.14122   0.38541   0.00000  Uiso   1.00
C236   C     0.03261   0.15419   0.58986   0.00000  Uiso   1.00
C237   C     0.06593   0.09264   0.63859   0.00000  Uiso   1.00
C238   C     0.08209   0.12469   0.69970   0.00000  Uiso   1.00
C239   C     0.11943   0.14282   0.80703   0.00000  Uiso   1.00
C240   C     0.04570   0.20700   0.49358   0.00000  Uiso   1.00
C241   C     0.09005   0.18986   0.46137   0.00000  Uiso   1.00
C242   C     0.11724   0.26638   0.44143   0.00000  Uiso   1.00
C243   C     0.17491   0.36650   0.39926   0.00000  Uiso   1.00
C244   C     0.97964   0.30003   0.54146   0.00000  Uiso   1.00
C245   C     0.91474   0.24418   0.50220   0.00000  Uiso   1.00
C246   C     0.84570   0.27602   0.47955   0.00000  Uiso   1.00
C247   C     0.79378   0.21421   0.44455   0.00000  Uiso   1.00
C248   C     0.01601   0.24455   0.60175   0.00000  Uiso   1.00
C249   C     0.03212   0.27670   0.66280   0.00000  Uiso   1.00
C250   C     0.06546   0.21522   0.71161   0.00000  Uiso   1.00
C251   C     0.02910   0.29737   0.50546   0.00000  Uiso   1.00
C252   C     0.05623   0.37392   0.48557   0.00000  Uiso   1.00
C253   C     0.10061   0.35690   0.45334   0.00000  Uiso   1.00
H254   H     0.02312   0.06332   0.51033   0.00000  Uiso   1.00
H255   H     0.89238   0.02203   0.44615   0.00000  Uiso   1.00
H256   H     0.07878   0.02272   0.62938   0.00000  Uiso   1.00
H257   H     0.10288   0.11993   0.45218   0.00000  Uiso   1.00
H258   H     0.74011   0.01610   0.38026   0.00000  Uiso   1.00
H259   H     0.13316   0.01756   0.76660   0.00000  Uiso   1.00
H260   H     0.18399   0.22254   0.39294   0.00000  Uiso   1.00
H261   H     0.96671   0.37038   0.55072   0.00000  Uiso   1.00
H262   H     0.83287   0.34595   0.48875   0.00000  Uiso   1.00
H263   H     0.01927   0.34663   0.67198   0.00000  Uiso   1.00
H264   H     0.04337   0.44384   0.49478   0.00000  Uiso   1.00
H265   H     0.69181   0.27899   0.41484   0.00000  Uiso   1.00
H266   H     0.08486   0.28046   0.80118   0.00000  Uiso   1.00
H267   H     0.13569   0.48544   0.42752   0.00000  Uiso   1.00
O268   O     0.62893   0.12592   0.35608   0.00000  Uiso   1.00
O269   O     0.14461   0.12784   0.86294   0.00000  Uiso   1.00
O270   O     0.21129   0.39677   0.37270   0.00000  Uiso   1.00
N271   N     0.74711   0.08133   0.39689   0.00000  Uiso   1.00
N272   N     0.11458   0.08269   0.75810   0.00000  Uiso   1.00
N273   N     0.16212   0.27433   0.40877   0.00000  Uiso   1.00
N274   N     0.72112   0.22279   0.41550   0.00000  Uiso   1.00
N275   N     0.08859   0.22415   0.77670   0.00000  Uiso   1.00
N276   N     0.13613   0.41579   0.42738   0.00000  Uiso   1.00
C277   C     0.48980   0.63367   0.98042   0.00000  Uiso   1.00
C278   C     0.56866   0.65382   0.00969   0.00000  Uiso   1.00
C279   C     0.62048   0.59196   0.04466   0.00000  Uiso   1.00
C280   C     0.68959   0.62369   0.06736   0.00000  Uiso   1.00
C281   C     0.80951   0.64122   0.11459   0.00000  Uiso   1.00
C282   C     0.46739   0.65419   0.91014   0.00000  Uiso   1.00
C283   C     0.43407   0.59264   0.86141   0.00000  Uiso   1.00
C284   C     0.41791   0.62469   0.80030   0.00000  Uiso   1.00
C285   C     0.38057   0.64282   0.69297   0.00000  Uiso   1.00
C286   C     0.45430   0.70700   0.00642   0.00000  Uiso   1.00
C287   C     0.40995   0.68986   0.03863   0.00000  Uiso   1.00
C288   C     0.38276   0.76638   0.05857   0.00000  Uiso   1.00
C289   C     0.32509   0.86650   0.10074   0.00000  Uiso   1.00
C290   C     0.52036   0.80003   0.95854   0.00000  Uiso   1.00
C291   C     0.58526   0.74418   0.99780   0.00000  Uiso   1.00
C292   C     0.65430   0.77602   0.02045   0.00000  Uiso   1.00
C293   C     0.70622   0.71421   0.05545   0.00000  Uiso   1.00
C294   C     0.48399   0.74455   0.89825   0.00000  Uiso   1.00
C295   C     0.46788   0.77670   0.83720   0.00000  Uiso   1.00
C296   C     0.43454   0.71522   0.78839   0.00000  Uiso   1.00
C297   C     0.47090   0.79737   0.99454   0.00000  Uiso   1.00
C298   C     0.44377   0.87392   0.01443   0.00000  Uiso   1.00
C299   C     0.39939   0.85690   0.04666   0.00000  Uiso   1.00
H300   H     0.47688   0.56332   0.98967   0.00000  Uiso   1.00
H301   H     0.60762   0.52203   0.05385   0.00000  Uiso   1.00
H302   H     0.42122   0.52272   0.87062   0.00000  Uiso   1.00
H303   H     0.39712   0.61993   0.04782   0.00000  Uiso   1.00
H304   H     0.75989   0.51610   0.11974   0.00000  Uiso   1.00
H305   H     0.36684   0.51756   0.73340   0.00000  Uiso   1.00
H306   H     0.31601   0.72254   0.10706   0.00000  Uiso   1.00
H307   H     0.53329   0.87038   0.94928   0.00000  Uiso   1.00
H308   H     0.66713   0.84595   0.01125   0.00000  Uiso   1.00
H309   H     0.48073   0.84663   0.82802   0.00000  Uiso   1.00
H310   H     0.45663   0.94384   0.00522   0.00000  Uiso   1.00
H311   H     0.80819   0.77899   0.08516   0.00000  Uiso   1.00
H312   H     0.41514   0.78046   0.69882   0.00000  Uiso   1.00
H313   H     0.36431   0.98544   0.07248   0.00000  Uiso   1.00
O314   O     0.87107   0.62592   0.14392   0.00000  Uiso   1.00
O315   O     0.35539   0.62784   0.63706   0.00000  Uiso   1.00
O316   O     0.28871   0.89677   0.12730   0.00000  Uiso   1.00
N317   N     0.75289   0.58133   0.10311   0.00000  Uiso   1.00
N318   N     0.38542   0.58269   0.74190   0.00000  Uiso   1.00
N319   N     0.33788   0.77433   0.09123   0.00000  Uiso   1.00
N320   N     0.77888   0.72279   0.08450   0.00000  Uiso   1.00
N321   N     0.41141   0.72415   0.72330   0.00000  Uiso   1.00
N322   N     0.36387   0.91579   0.07262   0.00000  Uiso   1.00
C323   C     0.98980   0.13367   0.98042   0.00000  Uiso   1.00
C324   C     0.06866   0.15382   0.00969   0.00000  Uiso   1.00
C325   C     0.12048   0.09196   0.04466   0.00000  Uiso   1.00
C326   C     0.18959   0.12369   0.06736   0.00000  Uiso   1.00
C327   C     0.30951   0.14122   0.11459   0.00000  Uiso   1.00
C328   C     0.96739   0.15419   0.91014   0.00000  Uiso   1.00
C329   C     0.93407   0.09264   0.86141   0.00000  Uiso   1.00
C330   C     0.91791   0.12469   0.80030   0.00000  Uiso   1.00
C331   C     0.88057   0.14282   0.69297   0.00000  Uiso   1.00
C332   C     0.95430   0.20700   0.00642   0.00000  Uiso   1.00
C333   C     0.90995   0.18986   0.03863   0.00000  Uiso   1.00
C334   C     0.88276   0.26638   0.05857   0.00000  Uiso   1.00
C335   C     0.82509   0.36650   0.10074   0.00000  Uiso   1.00
C336   C     0.02036   0.30003   0.95854   0.00000  Uiso   1.00
C337   C     0.08526   0.24418   0.99780   0.00000  Uiso   1.00
C338   C     0.15430   0.27602   0.02045   0.00000  Uiso   1.00
C339   C     0.20622   0.21421   0.05545   0.00000  Uiso   1.00
C340   C     0.98399   0.24455   0.89825   0.00000  Uiso   1.00
C341   C     0.96788   0.27670   0.83720   0.00000  Uiso   1.00
C342   C     0.93454   0.21522   0.78839   0.00000  Uiso   1.00
C343   C     0.97090   0.29737   0.99454   0.00000  Uiso   1.00
C344   C     0.94377   0.37392   0.01443   0.00000  Uiso   1.00
C345   C     0.89939   0.35690   0.04666   0.00000  Uiso   1.00
H346   H     0.97688   0.06332   0.98967   0.00000  Uiso   1.00
H347   H     0.10762   0.02203   0.05385   0.00000  Uiso   1.00
H348   H     0.92122   0.02272   0.87062   0.00000  Uiso   1.00
H349   H     0.89712   0.11993   0.04782   0.00000  Uiso   1.00
H350   H     0.25989   0.01610   0.11974   0.00000  Uiso   1.00
H351   H     0.86684   0.01756   0.73340   0.00000  Uiso   1.00
H352   H     0.81601   0.22254   0.10706   0.00000  Uiso   1.00
H353   H     0.03329   0.37038   0.94928   0.00000  Uiso   1.00
H354   H     0.16713   0.34595   0.01125   0.00000  Uiso   1.00
H355   H     0.98073   0.34663   0.82802   0.00000  Uiso   1.00
H356   H     0.95663   0.44384   0.00522   0.00000  Uiso   1.00
H357   H     0.30819   0.27899   0.08516   0.00000  Uiso   1.00
H358   H     0.91514   0.28046   0.69882   0.00000  Uiso   1.00
H359   H     0.86431   0.48544   0.07248   0.00000  Uiso   1.00
O360   O     0.37107   0.12592   0.14392   0.00000  Uiso   1.00
O361   O     0.85539   0.12784   0.63706   0.00000  Uiso   1.00
O362   O     0.78871   0.39677   0.12730   0.00000  Uiso   1.00
N363   N     0.25289   0.08133   0.10311   0.00000  Uiso   1.00
N364   N     0.88542   0.08269   0.74190   0.00000  Uiso   1.00
N365   N     0.83788   0.27433   0.09123   0.00000  Uiso   1.00
N366   N     0.27888   0.22279   0.08450   0.00000  Uiso   1.00
N367   N     0.91141   0.22415   0.72330   0.00000  Uiso   1.00
N368   N     0.86387   0.41579   0.07262   0.00000  Uiso   1.00
