data_job_03924
_audit_creation_date              2018-12-19
_audit_creation_method            'Materials Studio'
_symmetry_space_group_name_H-M    'P1'
_symmetry_Int_Tables_number       1
_symmetry_cell_setting            triclinic
loop_
_symmetry_equiv_pos_as_xyz
  x,y,z
_cell_length_a                    20.0576
_cell_length_b                    20.0576
_cell_length_c                    14.2941
_cell_angle_alpha                 90.0000
_cell_angle_beta                  90.0000
_cell_angle_gamma                 90.0000
loop_
_atom_site_label
_atom_site_type_symbol
_atom_site_fract_x
_atom_site_fract_y
_atom_site_fract_z
_atom_site_U_iso_or_equiv
_atom_site_adp_type
_atom_site_occupancy
C1     C     0.21375   0.84197   0.74383   0.00000  Uiso   1.00
C2     C     0.18355   0.78325   0.69095   0.00000  Uiso   1.00
C3     C     0.21904   0.73326   0.64595   0.00000  Uiso   1.00
C4     C     0.18221   0.68395   0.60151   0.00000  Uiso   1.00
C5     C     0.14594   0.59268   0.51927   0.00000  Uiso   1.00
C6     C     0.18482   0.90457   0.69892   0.00000  Uiso   1.00
C7     C     0.22139   0.95660   0.66063   0.00000  Uiso   1.00
C8     C     0.18562   0.00942   0.62292   0.00000  Uiso   1.00
C9     C     0.15133   0.10653   0.55311   0.00000  Uiso   1.00
C10    C     0.18478   0.83899   0.84237   0.00000  Uiso   1.00
C11    C     0.22132   0.83589   0.92471   0.00000  Uiso   1.00
C12    C     0.18551   0.83352   0.00778   0.00000  Uiso   1.00
C13    C     0.15116   0.82881   0.16071   0.00000  Uiso   1.00
C14    C     0.08521   0.84329   0.74494   0.00000  Uiso   1.00
C15    C     0.11373   0.78397   0.69155   0.00000  Uiso   1.00
C16    C     0.07683   0.73471   0.64718   0.00000  Uiso   1.00
C17    C     0.11227   0.68466   0.60212   0.00000  Uiso   1.00
C18    C     0.11501   0.90529   0.69952   0.00000  Uiso   1.00
C19    C     0.07918   0.95805   0.66186   0.00000  Uiso   1.00
C20    C     0.11568   0.01013   0.62352   0.00000  Uiso   1.00
C21    C     0.11497   0.83971   0.84298   0.00000  Uiso   1.00
C22    C     0.07910   0.83734   0.92594   0.00000  Uiso   1.00
C23    C     0.11557   0.83424   0.00839   0.00000  Uiso   1.00
H24    H     0.26810   0.84142   0.74336   0.00000  Uiso   1.00
H25    H     0.27307   0.73273   0.64549   0.00000  Uiso   1.00
H26    H     0.27541   0.95603   0.66018   0.00000  Uiso   1.00
H27    H     0.27534   0.83534   0.92422   0.00000  Uiso   1.00
H28    H     0.24780   0.61255   0.53722   0.00000  Uiso   1.00
H29    H     0.25273   0.08341   0.56823   0.00000  Uiso   1.00
H30    H     0.25258   0.82892   0.12501   0.00000  Uiso   1.00
H31    H     0.03085   0.84384   0.74541   0.00000  Uiso   1.00
H32    H     0.02281   0.73528   0.64766   0.00000  Uiso   1.00
H33    H     0.02515   0.95859   0.66234   0.00000  Uiso   1.00
H34    H     0.02508   0.83790   0.92638   0.00000  Uiso   1.00
H35    H     0.04467   0.61463   0.53898   0.00000  Uiso   1.00
H36    H     0.04961   0.08549   0.56998   0.00000  Uiso   1.00
H37    H     0.04946   0.83099   0.12676   0.00000  Uiso   1.00
O38    O     0.14522   0.54214   0.47373   0.00000  Uiso   1.00
O39    O     0.15170   0.15989   0.51443   0.00000  Uiso   1.00
O40    O     0.15150   0.82600   0.24490   0.00000  Uiso   1.00
N41    N     0.20109   0.62793   0.55107   0.00000  Uiso   1.00
N42    N     0.20571   0.06815   0.58004   0.00000  Uiso   1.00
N43    N     0.20557   0.83024   0.10058   0.00000  Uiso   1.00
N44    N     0.09180   0.62905   0.55201   0.00000  Uiso   1.00
N45    N     0.09641   0.06927   0.58099   0.00000  Uiso   1.00
N46    N     0.09627   0.83135   0.10153   0.00000  Uiso   1.00
C47    C     0.78625   0.15803   0.74383   0.00000  Uiso   1.00
C48    C     0.81645   0.21675   0.69095   0.00000  Uiso   1.00
C49    C     0.78096   0.26674   0.64595   0.00000  Uiso   1.00
C50    C     0.81779   0.31605   0.60151   0.00000  Uiso   1.00
C51    C     0.85406   0.40732   0.51927   0.00000  Uiso   1.00
C52    C     0.81518   0.09543   0.69892   0.00000  Uiso   1.00
C53    C     0.77861   0.04340   0.66063   0.00000  Uiso   1.00
C54    C     0.81438   0.99058   0.62292   0.00000  Uiso   1.00
C55    C     0.84867   0.89347   0.55311   0.00000  Uiso   1.00
C56    C     0.81522   0.16101   0.84237   0.00000  Uiso   1.00
C57    C     0.77868   0.16411   0.92471   0.00000  Uiso   1.00
C58    C     0.81449   0.16648   0.00778   0.00000  Uiso   1.00
C59    C     0.84884   0.17119   0.16071   0.00000  Uiso   1.00
C60    C     0.91479   0.15671   0.74494   0.00000  Uiso   1.00
C61    C     0.88627   0.21603   0.69155   0.00000  Uiso   1.00
C62    C     0.92317   0.26529   0.64718   0.00000  Uiso   1.00
C63    C     0.88773   0.31534   0.60212   0.00000  Uiso   1.00
C64    C     0.88499   0.09471   0.69952   0.00000  Uiso   1.00
C65    C     0.92082   0.04195   0.66186   0.00000  Uiso   1.00
C66    C     0.88432   0.98987   0.62352   0.00000  Uiso   1.00
C67    C     0.88503   0.16029   0.84298   0.00000  Uiso   1.00
C68    C     0.92090   0.16266   0.92594   0.00000  Uiso   1.00
C69    C     0.88443   0.16576   0.00839   0.00000  Uiso   1.00
H70    H     0.73190   0.15858   0.74336   0.00000  Uiso   1.00
H71    H     0.72693   0.26727   0.64549   0.00000  Uiso   1.00
H72    H     0.72459   0.04397   0.66018   0.00000  Uiso   1.00
H73    H     0.72466   0.16466   0.92422   0.00000  Uiso   1.00
H74    H     0.75220   0.38745   0.53722   0.00000  Uiso   1.00
H75    H     0.74727   0.91659   0.56823   0.00000  Uiso   1.00
H76    H     0.74742   0.17108   0.12501   0.00000  Uiso   1.00
H77    H     0.96915   0.15616   0.74541   0.00000  Uiso   1.00
H78    H     0.97719   0.26472   0.64766   0.00000  Uiso   1.00
H79    H     0.97485   0.04141   0.66234   0.00000  Uiso   1.00
H80    H     0.97492   0.16210   0.92638   0.00000  Uiso   1.00
H81    H     0.95533   0.38537   0.53898   0.00000  Uiso   1.00
H82    H     0.95039   0.91451   0.56998   0.00000  Uiso   1.00
H83    H     0.95054   0.16901   0.12676   0.00000  Uiso   1.00
O84    O     0.85478   0.45786   0.47373   0.00000  Uiso   1.00
O85    O     0.84830   0.84011   0.51443   0.00000  Uiso   1.00
O86    O     0.84850   0.17400   0.24490   0.00000  Uiso   1.00
N87    N     0.79891   0.37207   0.55107   0.00000  Uiso   1.00
N88    N     0.79429   0.93185   0.58004   0.00000  Uiso   1.00
N89    N     0.79443   0.16976   0.10058   0.00000  Uiso   1.00
N90    N     0.90820   0.37095   0.55201   0.00000  Uiso   1.00
N91    N     0.90359   0.93073   0.58099   0.00000  Uiso   1.00
N92    N     0.90373   0.16865   0.10153   0.00000  Uiso   1.00
C93    C     0.65803   0.71375   0.74383   0.00000  Uiso   1.00
C94    C     0.71675   0.68355   0.69095   0.00000  Uiso   1.00
C95    C     0.76674   0.71904   0.64595   0.00000  Uiso   1.00
C96    C     0.81605   0.68221   0.60151   0.00000  Uiso   1.00
C97    C     0.90732   0.64594   0.51927   0.00000  Uiso   1.00
C98    C     0.59543   0.68482   0.69892   0.00000  Uiso   1.00
C99    C     0.54340   0.72139   0.66063   0.00000  Uiso   1.00
C100   C     0.49058   0.68562   0.62292   0.00000  Uiso   1.00
C101   C     0.39347   0.65133   0.55311   0.00000  Uiso   1.00
C102   C     0.66101   0.68478   0.84237   0.00000  Uiso   1.00
C103   C     0.66411   0.72132   0.92471   0.00000  Uiso   1.00
C104   C     0.66648   0.68551   0.00778   0.00000  Uiso   1.00
C105   C     0.67119   0.65116   0.16071   0.00000  Uiso   1.00
C106   C     0.65671   0.58521   0.74494   0.00000  Uiso   1.00
C107   C     0.71603   0.61373   0.69155   0.00000  Uiso   1.00
C108   C     0.76529   0.57683   0.64718   0.00000  Uiso   1.00
C109   C     0.81534   0.61227   0.60212   0.00000  Uiso   1.00
C110   C     0.59471   0.61501   0.69952   0.00000  Uiso   1.00
C111   C     0.54195   0.57918   0.66186   0.00000  Uiso   1.00
C112   C     0.48987   0.61568   0.62352   0.00000  Uiso   1.00
C113   C     0.66029   0.61497   0.84298   0.00000  Uiso   1.00
C114   C     0.66266   0.57910   0.92594   0.00000  Uiso   1.00
C115   C     0.66576   0.61557   0.00839   0.00000  Uiso   1.00
H116   H     0.65858   0.76810   0.74336   0.00000  Uiso   1.00
H117   H     0.76727   0.77307   0.64549   0.00000  Uiso   1.00
H118   H     0.54397   0.77541   0.66018   0.00000  Uiso   1.00
H119   H     0.66466   0.77534   0.92422   0.00000  Uiso   1.00
H120   H     0.88745   0.74780   0.53722   0.00000  Uiso   1.00
H121   H     0.41659   0.75273   0.56823   0.00000  Uiso   1.00
H122   H     0.67108   0.75258   0.12501   0.00000  Uiso   1.00
H123   H     0.65616   0.53085   0.74541   0.00000  Uiso   1.00
H124   H     0.76472   0.52281   0.64766   0.00000  Uiso   1.00
H125   H     0.54141   0.52515   0.66234   0.00000  Uiso   1.00
H126   H     0.66210   0.52508   0.92638   0.00000  Uiso   1.00
H127   H     0.88537   0.54467   0.53898   0.00000  Uiso   1.00
H128   H     0.41451   0.54961   0.56998   0.00000  Uiso   1.00
H129   H     0.66901   0.54946   0.12676   0.00000  Uiso   1.00
O130   O     0.95786   0.64522   0.47373   0.00000  Uiso   1.00
O131   O     0.34011   0.65170   0.51443   0.00000  Uiso   1.00
O132   O     0.67400   0.65150   0.24490   0.00000  Uiso   1.00
N133   N     0.87207   0.70109   0.55107   0.00000  Uiso   1.00
N134   N     0.43185   0.70571   0.58004   0.00000  Uiso   1.00
N135   N     0.66976   0.70557   0.10058   0.00000  Uiso   1.00
N136   N     0.87095   0.59180   0.55201   0.00000  Uiso   1.00
N137   N     0.43073   0.59641   0.58099   0.00000  Uiso   1.00
N138   N     0.66865   0.59627   0.10153   0.00000  Uiso   1.00
C139   C     0.34197   0.28625   0.74383   0.00000  Uiso   1.00
C140   C     0.28325   0.31645   0.69095   0.00000  Uiso   1.00
C141   C     0.23326   0.28096   0.64595   0.00000  Uiso   1.00
C142   C     0.18395   0.31779   0.60151   0.00000  Uiso   1.00
C143   C     0.09268   0.35406   0.51927   0.00000  Uiso   1.00
C144   C     0.40457   0.31518   0.69892   0.00000  Uiso   1.00
C145   C     0.45660   0.27861   0.66063   0.00000  Uiso   1.00
C146   C     0.50942   0.31438   0.62292   0.00000  Uiso   1.00
C147   C     0.60653   0.34867   0.55311   0.00000  Uiso   1.00
C148   C     0.33899   0.31522   0.84237   0.00000  Uiso   1.00
C149   C     0.33589   0.27868   0.92471   0.00000  Uiso   1.00
C150   C     0.33352   0.31449   0.00778   0.00000  Uiso   1.00
C151   C     0.32881   0.34884   0.16071   0.00000  Uiso   1.00
C152   C     0.34329   0.41479   0.74494   0.00000  Uiso   1.00
C153   C     0.28397   0.38627   0.69155   0.00000  Uiso   1.00
C154   C     0.23471   0.42317   0.64718   0.00000  Uiso   1.00
C155   C     0.18466   0.38773   0.60212   0.00000  Uiso   1.00
C156   C     0.40529   0.38499   0.69952   0.00000  Uiso   1.00
C157   C     0.45805   0.42082   0.66186   0.00000  Uiso   1.00
C158   C     0.51013   0.38432   0.62352   0.00000  Uiso   1.00
C159   C     0.33971   0.38503   0.84298   0.00000  Uiso   1.00
C160   C     0.33734   0.42090   0.92594   0.00000  Uiso   1.00
C161   C     0.33424   0.38443   0.00839   0.00000  Uiso   1.00
H162   H     0.34142   0.23190   0.74336   0.00000  Uiso   1.00
H163   H     0.23273   0.22693   0.64549   0.00000  Uiso   1.00
H164   H     0.45603   0.22459   0.66018   0.00000  Uiso   1.00
H165   H     0.33534   0.22466   0.92422   0.00000  Uiso   1.00
H166   H     0.11255   0.25220   0.53722   0.00000  Uiso   1.00
H167   H     0.58341   0.24727   0.56823   0.00000  Uiso   1.00
H168   H     0.32892   0.24742   0.12501   0.00000  Uiso   1.00
H169   H     0.34384   0.46915   0.74541   0.00000  Uiso   1.00
H170   H     0.23528   0.47719   0.64766   0.00000  Uiso   1.00
H171   H     0.45859   0.47485   0.66234   0.00000  Uiso   1.00
H172   H     0.33790   0.47492   0.92638   0.00000  Uiso   1.00
H173   H     0.11463   0.45533   0.53898   0.00000  Uiso   1.00
H174   H     0.58549   0.45039   0.56998   0.00000  Uiso   1.00
H175   H     0.33099   0.45054   0.12676   0.00000  Uiso   1.00
O176   O     0.04214   0.35478   0.47373   0.00000  Uiso   1.00
O177   O     0.65989   0.34830   0.51443   0.00000  Uiso   1.00
O178   O     0.32600   0.34850   0.24490   0.00000  Uiso   1.00
N179   N     0.12793   0.29891   0.55107   0.00000  Uiso   1.00
N180   N     0.56815   0.29429   0.58004   0.00000  Uiso   1.00
N181   N     0.33024   0.29443   0.10058   0.00000  Uiso   1.00
N182   N     0.12905   0.40820   0.55201   0.00000  Uiso   1.00
N183   N     0.56927   0.40359   0.58099   0.00000  Uiso   1.00
N184   N     0.33135   0.40373   0.10153   0.00000  Uiso   1.00
C185   C     0.28625   0.65803   0.25617   0.00000  Uiso   1.00
C186   C     0.31645   0.71675   0.30905   0.00000  Uiso   1.00
C187   C     0.28096   0.76674   0.35405   0.00000  Uiso   1.00
C188   C     0.31779   0.81605   0.39849   0.00000  Uiso   1.00
C189   C     0.35406   0.90732   0.48073   0.00000  Uiso   1.00
C190   C     0.31518   0.59543   0.30108   0.00000  Uiso   1.00
C191   C     0.27861   0.54340   0.33937   0.00000  Uiso   1.00
C192   C     0.31438   0.49058   0.37708   0.00000  Uiso   1.00
C193   C     0.34867   0.39347   0.44689   0.00000  Uiso   1.00
C194   C     0.31522   0.66101   0.15763   0.00000  Uiso   1.00
C195   C     0.27868   0.66411   0.07529   0.00000  Uiso   1.00
C196   C     0.31449   0.66648   0.99222   0.00000  Uiso   1.00
C197   C     0.34884   0.67119   0.83929   0.00000  Uiso   1.00
C198   C     0.41479   0.65671   0.25506   0.00000  Uiso   1.00
C199   C     0.38627   0.71603   0.30845   0.00000  Uiso   1.00
C200   C     0.42317   0.76529   0.35282   0.00000  Uiso   1.00
C201   C     0.38773   0.81534   0.39788   0.00000  Uiso   1.00
C202   C     0.38499   0.59471   0.30048   0.00000  Uiso   1.00
C203   C     0.42082   0.54195   0.33814   0.00000  Uiso   1.00
C204   C     0.38432   0.48987   0.37648   0.00000  Uiso   1.00
C205   C     0.38503   0.66029   0.15702   0.00000  Uiso   1.00
C206   C     0.42090   0.66266   0.07406   0.00000  Uiso   1.00
C207   C     0.38443   0.66576   0.99161   0.00000  Uiso   1.00
H208   H     0.23190   0.65858   0.25664   0.00000  Uiso   1.00
H209   H     0.22693   0.76727   0.35451   0.00000  Uiso   1.00
H210   H     0.22459   0.54397   0.33982   0.00000  Uiso   1.00
H211   H     0.22466   0.66466   0.07578   0.00000  Uiso   1.00
H212   H     0.25220   0.88745   0.46278   0.00000  Uiso   1.00
H213   H     0.24727   0.41659   0.43177   0.00000  Uiso   1.00
H214   H     0.24742   0.67108   0.87499   0.00000  Uiso   1.00
H215   H     0.46915   0.65616   0.25459   0.00000  Uiso   1.00
H216   H     0.47719   0.76472   0.35234   0.00000  Uiso   1.00
H217   H     0.47485   0.54141   0.33766   0.00000  Uiso   1.00
H218   H     0.47492   0.66210   0.07362   0.00000  Uiso   1.00
H219   H     0.45533   0.88537   0.46102   0.00000  Uiso   1.00
H220   H     0.45039   0.41451   0.43002   0.00000  Uiso   1.00
H221   H     0.45054   0.66901   0.87324   0.00000  Uiso   1.00
O222   O     0.35478   0.95786   0.52627   0.00000  Uiso   1.00
O223   O     0.34830   0.34011   0.48557   0.00000  Uiso   1.00
O224   O     0.34850   0.67400   0.75510   0.00000  Uiso   1.00
N225   N     0.29891   0.87207   0.44893   0.00000  Uiso   1.00
N226   N     0.29429   0.43185   0.41996   0.00000  Uiso   1.00
N227   N     0.29443   0.66976   0.89942   0.00000  Uiso   1.00
N228   N     0.40820   0.87095   0.44799   0.00000  Uiso   1.00
N229   N     0.40359   0.43073   0.41901   0.00000  Uiso   1.00
N230   N     0.40373   0.66865   0.89847   0.00000  Uiso   1.00
C231   C     0.71375   0.34197   0.25617   0.00000  Uiso   1.00
C232   C     0.68355   0.28325   0.30905   0.00000  Uiso   1.00
C233   C     0.71904   0.23326   0.35405   0.00000  Uiso   1.00
C234   C     0.68221   0.18395   0.39849   0.00000  Uiso   1.00
C235   C     0.64594   0.09268   0.48073   0.00000  Uiso   1.00
C236   C     0.68482   0.40457   0.30108   0.00000  Uiso   1.00
C237   C     0.72139   0.45660   0.33937   0.00000  Uiso   1.00
C238   C     0.68562   0.50942   0.37708   0.00000  Uiso   1.00
C239   C     0.65133   0.60653   0.44689   0.00000  Uiso   1.00
C240   C     0.68478   0.33899   0.15763   0.00000  Uiso   1.00
C241   C     0.72132   0.33589   0.07529   0.00000  Uiso   1.00
C242   C     0.68551   0.33352   0.99222   0.00000  Uiso   1.00
C243   C     0.65116   0.32881   0.83929   0.00000  Uiso   1.00
C244   C     0.58521   0.34329   0.25506   0.00000  Uiso   1.00
C245   C     0.61373   0.28397   0.30845   0.00000  Uiso   1.00
C246   C     0.57683   0.23471   0.35282   0.00000  Uiso   1.00
C247   C     0.61227   0.18466   0.39788   0.00000  Uiso   1.00
C248   C     0.61501   0.40529   0.30048   0.00000  Uiso   1.00
C249   C     0.57918   0.45805   0.33814   0.00000  Uiso   1.00
C250   C     0.61568   0.51013   0.37648   0.00000  Uiso   1.00
C251   C     0.61497   0.33971   0.15702   0.00000  Uiso   1.00
C252   C     0.57910   0.33734   0.07406   0.00000  Uiso   1.00
C253   C     0.61557   0.33424   0.99161   0.00000  Uiso   1.00
H254   H     0.76810   0.34142   0.25664   0.00000  Uiso   1.00
H255   H     0.77307   0.23273   0.35451   0.00000  Uiso   1.00
H256   H     0.77541   0.45603   0.33982   0.00000  Uiso   1.00
H257   H     0.77534   0.33534   0.07578   0.00000  Uiso   1.00
H258   H     0.74780   0.11255   0.46278   0.00000  Uiso   1.00
H259   H     0.75273   0.58341   0.43177   0.00000  Uiso   1.00
H260   H     0.75258   0.32892   0.87499   0.00000  Uiso   1.00
H261   H     0.53085   0.34384   0.25459   0.00000  Uiso   1.00
H262   H     0.52281   0.23528   0.35234   0.00000  Uiso   1.00
H263   H     0.52515   0.45859   0.33766   0.00000  Uiso   1.00
H264   H     0.52508   0.33790   0.07362   0.00000  Uiso   1.00
H265   H     0.54467   0.11463   0.46102   0.00000  Uiso   1.00
H266   H     0.54961   0.58549   0.43002   0.00000  Uiso   1.00
H267   H     0.54946   0.33099   0.87324   0.00000  Uiso   1.00
O268   O     0.64522   0.04214   0.52627   0.00000  Uiso   1.00
O269   O     0.65170   0.65989   0.48557   0.00000  Uiso   1.00
O270   O     0.65150   0.32600   0.75510   0.00000  Uiso   1.00
N271   N     0.70109   0.12793   0.44893   0.00000  Uiso   1.00
N272   N     0.70571   0.56815   0.41996   0.00000  Uiso   1.00
N273   N     0.70557   0.33024   0.89942   0.00000  Uiso   1.00
N274   N     0.59180   0.12905   0.44799   0.00000  Uiso   1.00
N275   N     0.59641   0.56927   0.41901   0.00000  Uiso   1.00
N276   N     0.59627   0.33135   0.89847   0.00000  Uiso   1.00
C277   C     0.84197   0.78625   0.25617   0.00000  Uiso   1.00
C278   C     0.78325   0.81645   0.30905   0.00000  Uiso   1.00
C279   C     0.73326   0.78096   0.35405   0.00000  Uiso   1.00
C280   C     0.68395   0.81779   0.39849   0.00000  Uiso   1.00
C281   C     0.59268   0.85406   0.48073   0.00000  Uiso   1.00
C282   C     0.90457   0.81518   0.30108   0.00000  Uiso   1.00
C283   C     0.95660   0.77861   0.33937   0.00000  Uiso   1.00
C284   C     0.00942   0.81438   0.37708   0.00000  Uiso   1.00
C285   C     0.10653   0.84867   0.44689   0.00000  Uiso   1.00
C286   C     0.83899   0.81522   0.15763   0.00000  Uiso   1.00
C287   C     0.83589   0.77868   0.07529   0.00000  Uiso   1.00
C288   C     0.83352   0.81449   0.99222   0.00000  Uiso   1.00
C289   C     0.82881   0.84884   0.83929   0.00000  Uiso   1.00
C290   C     0.84329   0.91479   0.25506   0.00000  Uiso   1.00
C291   C     0.78397   0.88627   0.30845   0.00000  Uiso   1.00
C292   C     0.73471   0.92317   0.35282   0.00000  Uiso   1.00
C293   C     0.68466   0.88773   0.39788   0.00000  Uiso   1.00
C294   C     0.90529   0.88499   0.30048   0.00000  Uiso   1.00
C295   C     0.95805   0.92082   0.33814   0.00000  Uiso   1.00
C296   C     0.01013   0.88432   0.37648   0.00000  Uiso   1.00
C297   C     0.83971   0.88503   0.15702   0.00000  Uiso   1.00
C298   C     0.83734   0.92090   0.07406   0.00000  Uiso   1.00
C299   C     0.83424   0.88443   0.99161   0.00000  Uiso   1.00
H300   H     0.84142   0.73190   0.25664   0.00000  Uiso   1.00
H301   H     0.73273   0.72693   0.35451   0.00000  Uiso   1.00
H302   H     0.95603   0.72459   0.33982   0.00000  Uiso   1.00
H303   H     0.83534   0.72466   0.07578   0.00000  Uiso   1.00
H304   H     0.61255   0.75220   0.46278   0.00000  Uiso   1.00
H305   H     0.08341   0.74727   0.43177   0.00000  Uiso   1.00
H306   H     0.82892   0.74742   0.87499   0.00000  Uiso   1.00
H307   H     0.84384   0.96915   0.25459   0.00000  Uiso   1.00
H308   H     0.73528   0.97719   0.35234   0.00000  Uiso   1.00
H309   H     0.95859   0.97485   0.33766   0.00000  Uiso   1.00
H310   H     0.83790   0.97492   0.07362   0.00000  Uiso   1.00
H311   H     0.61463   0.95533   0.46102   0.00000  Uiso   1.00
H312   H     0.08549   0.95039   0.43002   0.00000  Uiso   1.00
H313   H     0.83099   0.95054   0.87324   0.00000  Uiso   1.00
O314   O     0.54214   0.85478   0.52627   0.00000  Uiso   1.00
O315   O     0.15989   0.84830   0.48557   0.00000  Uiso   1.00
O316   O     0.82600   0.84850   0.75510   0.00000  Uiso   1.00
N317   N     0.62793   0.79891   0.44893   0.00000  Uiso   1.00
N318   N     0.06815   0.79429   0.41996   0.00000  Uiso   1.00
N319   N     0.83024   0.79443   0.89942   0.00000  Uiso   1.00
N320   N     0.62905   0.90820   0.44799   0.00000  Uiso   1.00
N321   N     0.06927   0.90359   0.41901   0.00000  Uiso   1.00
N322   N     0.83135   0.90373   0.89847   0.00000  Uiso   1.00
C323   C     0.15803   0.21375   0.25617   0.00000  Uiso   1.00
C324   C     0.21675   0.18355   0.30905   0.00000  Uiso   1.00
C325   C     0.26674   0.21904   0.35405   0.00000  Uiso   1.00
C326   C     0.31605   0.18221   0.39849   0.00000  Uiso   1.00
C327   C     0.40732   0.14594   0.48073   0.00000  Uiso   1.00
C328   C     0.09543   0.18482   0.30108   0.00000  Uiso   1.00
C329   C     0.04340   0.22139   0.33937   0.00000  Uiso   1.00
C330   C     0.99058   0.18562   0.37708   0.00000  Uiso   1.00
C331   C     0.89347   0.15133   0.44689   0.00000  Uiso   1.00
C332   C     0.16101   0.18478   0.15763   0.00000  Uiso   1.00
C333   C     0.16411   0.22132   0.07529   0.00000  Uiso   1.00
C334   C     0.16648   0.18551   0.99222   0.00000  Uiso   1.00
C335   C     0.17119   0.15116   0.83929   0.00000  Uiso   1.00
C336   C     0.15671   0.08521   0.25506   0.00000  Uiso   1.00
C337   C     0.21603   0.11373   0.30845   0.00000  Uiso   1.00
C338   C     0.26529   0.07683   0.35282   0.00000  Uiso   1.00
C339   C     0.31534   0.11227   0.39788   0.00000  Uiso   1.00
C340   C     0.09471   0.11501   0.30048   0.00000  Uiso   1.00
C341   C     0.04195   0.07918   0.33814   0.00000  Uiso   1.00
C342   C     0.98987   0.11568   0.37648   0.00000  Uiso   1.00
C343   C     0.16029   0.11497   0.15702   0.00000  Uiso   1.00
C344   C     0.16266   0.07910   0.07406   0.00000  Uiso   1.00
C345   C     0.16576   0.11557   0.99161   0.00000  Uiso   1.00
H346   H     0.15858   0.26810   0.25664   0.00000  Uiso   1.00
H347   H     0.26727   0.27307   0.35451   0.00000  Uiso   1.00
H348   H     0.04397   0.27541   0.33982   0.00000  Uiso   1.00
H349   H     0.16466   0.27534   0.07578   0.00000  Uiso   1.00
H350   H     0.38745   0.24780   0.46278   0.00000  Uiso   1.00
H351   H     0.91659   0.25273   0.43177   0.00000  Uiso   1.00
H352   H     0.17108   0.25258   0.87499   0.00000  Uiso   1.00
H353   H     0.15616   0.03085   0.25459   0.00000  Uiso   1.00
H354   H     0.26472   0.02281   0.35234   0.00000  Uiso   1.00
H355   H     0.04141   0.02515   0.33766   0.00000  Uiso   1.00
H356   H     0.16210   0.02508   0.07362   0.00000  Uiso   1.00
H357   H     0.38537   0.04467   0.46102   0.00000  Uiso   1.00
H358   H     0.91451   0.04961   0.43002   0.00000  Uiso   1.00
H359   H     0.16901   0.04946   0.87324   0.00000  Uiso   1.00
O360   O     0.45786   0.14522   0.52627   0.00000  Uiso   1.00
O361   O     0.84011   0.15170   0.48557   0.00000  Uiso   1.00
O362   O     0.17400   0.15150   0.75510   0.00000  Uiso   1.00
N363   N     0.37207   0.20109   0.44893   0.00000  Uiso   1.00
N364   N     0.93185   0.20571   0.41996   0.00000  Uiso   1.00
N365   N     0.16976   0.20557   0.89942   0.00000  Uiso   1.00
N366   N     0.37095   0.09180   0.44799   0.00000  Uiso   1.00
N367   N     0.93073   0.09641   0.41901   0.00000  Uiso   1.00
N368   N     0.16865   0.09627   0.89847   0.00000  Uiso   1.00
