data_job_04760
_audit_creation_date              2018-12-19
_audit_creation_method            'Materials Studio'
_symmetry_space_group_name_H-M    'P1'
_symmetry_Int_Tables_number       1
_symmetry_cell_setting            triclinic
loop_
_symmetry_equiv_pos_as_xyz
  x,y,z
_cell_length_a                    11.7489
_cell_length_b                    7.2394
_cell_length_c                    31.5666
_cell_angle_alpha                 90.0000
_cell_angle_beta                  121.7171
_cell_angle_gamma                 90.0000
loop_
_atom_site_label
_atom_site_type_symbol
_atom_site_fract_x
_atom_site_fract_y
_atom_site_fract_z
_atom_site_U_iso_or_equiv
_atom_site_adp_type
_atom_site_occupancy
C1     C     0.48499   0.80569   0.85332   0.00000  Uiso   1.00
C2     C     0.43098   0.79851   0.88791   0.00000  Uiso   1.00
C3     C     0.40509   0.95008   0.90848   0.00000  Uiso   1.00
C4     C     0.35599   0.91449   0.93919   0.00000  Uiso   1.00
C5     C     0.27559   0.93083   0.99143   0.00000  Uiso   1.00
C6     C     0.61183   0.68862   0.87810   0.00000  Uiso   1.00
C7     C     0.73800   0.74781   0.89041   0.00000  Uiso   1.00
C8     C     0.84114   0.61970   0.91287   0.00000  Uiso   1.00
C9     C     0.04151   0.46541   0.94984   0.00000  Uiso   1.00
C10    C     0.38394   0.70189   0.80629   0.00000  Uiso   1.00
C11    C     0.31852   0.77222   0.75822   0.00000  Uiso   1.00
C12    C     0.22980   0.65526   0.72021   0.00000  Uiso   1.00
C13    C     0.07633   0.52158   0.64568   0.00000  Uiso   1.00
C14    C     0.44381   0.47293   0.87130   0.00000  Uiso   1.00
C15    C     0.40862   0.61776   0.89767   0.00000  Uiso   1.00
C16    C     0.35953   0.58193   0.92836   0.00000  Uiso   1.00
C17    C     0.33357   0.73343   0.94897   0.00000  Uiso   1.00
C18    C     0.58947   0.50789   0.88786   0.00000  Uiso   1.00
C19    C     0.69244   0.37965   0.91030   0.00000  Uiso   1.00
C20    C     0.81874   0.43863   0.92265   0.00000  Uiso   1.00
C21    C     0.36157   0.52115   0.81605   0.00000  Uiso   1.00
C22    C     0.27295   0.40406   0.77810   0.00000  Uiso   1.00
C23    C     0.20740   0.47420   0.72999   0.00000  Uiso   1.00
H24    H     0.50241   0.94639   0.84572   0.00000  Uiso   1.00
H25    H     0.42243   0.08994   0.90092   0.00000  Uiso   1.00
H26    H     0.75528   0.88768   0.88285   0.00000  Uiso   1.00
H27    H     0.33585   0.91209   0.75068   0.00000  Uiso   1.00
H28    H     0.32393   0.16937   0.96643   0.00000  Uiso   1.00
H29    H     0.02576   0.74289   0.92832   0.00000  Uiso   1.00
H30    H     0.14132   0.79435   0.64960   0.00000  Uiso   1.00
H31    H     0.42640   0.33221   0.87890   0.00000  Uiso   1.00
H32    H     0.34223   0.44204   0.93591   0.00000  Uiso   1.00
H33    H     0.67510   0.23980   0.91785   0.00000  Uiso   1.00
H34    H     0.25567   0.26420   0.78567   0.00000  Uiso   1.00
H35    H     0.25885   0.64351   0.99483   0.00000  Uiso   1.00
H36    H     0.96069   0.21704   0.95672   0.00000  Uiso   1.00
H37    H     0.07625   0.26850   0.67801   0.00000  Uiso   1.00
O38    O     0.23744   0.98977   0.01755   0.00000  Uiso   1.00
O39    O     0.15821   0.43025   0.96754   0.00000  Uiso   1.00
O40    O     0.99785   0.49777   0.60188   0.00000  Uiso   1.00
N41    N     0.32014   0.03053   0.96528   0.00000  Uiso   1.00
N42    N     0.97632   0.63181   0.92966   0.00000  Uiso   1.00
N43    N     0.14947   0.67991   0.66908   0.00000  Uiso   1.00
N44    N     0.28512   0.74758   0.98056   0.00000  Uiso   1.00
N45    N     0.94130   0.34886   0.94494   0.00000  Uiso   1.00
N46    N     0.11445   0.39696   0.68436   0.00000  Uiso   1.00
C47    C     0.51501   0.30569   0.64668   0.00000  Uiso   1.00
C48    C     0.56902   0.29851   0.61209   0.00000  Uiso   1.00
C49    C     0.59491   0.45008   0.59152   0.00000  Uiso   1.00
C50    C     0.64401   0.41449   0.56081   0.00000  Uiso   1.00
C51    C     0.72441   0.43083   0.50857   0.00000  Uiso   1.00
C52    C     0.38817   0.18862   0.62190   0.00000  Uiso   1.00
C53    C     0.26200   0.24781   0.60959   0.00000  Uiso   1.00
C54    C     0.15886   0.11970   0.58713   0.00000  Uiso   1.00
C55    C     0.95849   0.96541   0.55016   0.00000  Uiso   1.00
C56    C     0.61606   0.20189   0.69371   0.00000  Uiso   1.00
C57    C     0.68148   0.27222   0.74178   0.00000  Uiso   1.00
C58    C     0.77020   0.15526   0.77979   0.00000  Uiso   1.00
C59    C     0.92367   0.02158   0.85432   0.00000  Uiso   1.00
C60    C     0.55619   0.97293   0.62870   0.00000  Uiso   1.00
C61    C     0.59138   0.11776   0.60233   0.00000  Uiso   1.00
C62    C     0.64047   0.08193   0.57164   0.00000  Uiso   1.00
C63    C     0.66643   0.23343   0.55103   0.00000  Uiso   1.00
C64    C     0.41053   0.00789   0.61214   0.00000  Uiso   1.00
C65    C     0.30756   0.87965   0.58970   0.00000  Uiso   1.00
C66    C     0.18126   0.93863   0.57735   0.00000  Uiso   1.00
C67    C     0.63843   0.02115   0.68395   0.00000  Uiso   1.00
C68    C     0.72705   0.90406   0.72190   0.00000  Uiso   1.00
C69    C     0.79260   0.97420   0.77001   0.00000  Uiso   1.00
H70    H     0.49759   0.44639   0.65428   0.00000  Uiso   1.00
H71    H     0.57757   0.58994   0.59908   0.00000  Uiso   1.00
H72    H     0.24472   0.38768   0.61715   0.00000  Uiso   1.00
H73    H     0.66415   0.41209   0.74932   0.00000  Uiso   1.00
H74    H     0.67607   0.66937   0.53357   0.00000  Uiso   1.00
H75    H     0.97424   0.24289   0.57168   0.00000  Uiso   1.00
H76    H     0.85868   0.29435   0.85040   0.00000  Uiso   1.00
H77    H     0.57360   0.83221   0.62110   0.00000  Uiso   1.00
H78    H     0.65777   0.94204   0.56409   0.00000  Uiso   1.00
H79    H     0.32490   0.73980   0.58215   0.00000  Uiso   1.00
H80    H     0.74433   0.76420   0.71433   0.00000  Uiso   1.00
H81    H     0.74115   0.14351   0.50517   0.00000  Uiso   1.00
H82    H     0.03931   0.71704   0.54328   0.00000  Uiso   1.00
H83    H     0.92375   0.76850   0.82199   0.00000  Uiso   1.00
O84    O     0.76256   0.48977   0.48245   0.00000  Uiso   1.00
O85    O     0.84179   0.93025   0.53246   0.00000  Uiso   1.00
O86    O     0.00215   0.99777   0.89812   0.00000  Uiso   1.00
N87    N     0.67986   0.53053   0.53472   0.00000  Uiso   1.00
N88    N     0.02368   0.13181   0.57034   0.00000  Uiso   1.00
N89    N     0.85053   0.17991   0.83092   0.00000  Uiso   1.00
N90    N     0.71488   0.24758   0.51944   0.00000  Uiso   1.00
N91    N     0.05870   0.84886   0.55506   0.00000  Uiso   1.00
N92    N     0.88555   0.89696   0.81564   0.00000  Uiso   1.00
C93    C     0.51501   0.19431   0.14668   0.00000  Uiso   1.00
C94    C     0.56902   0.20149   0.11209   0.00000  Uiso   1.00
C95    C     0.59491   0.04992   0.09152   0.00000  Uiso   1.00
C96    C     0.64401   0.08551   0.06081   0.00000  Uiso   1.00
C97    C     0.72441   0.06917   0.00857   0.00000  Uiso   1.00
C98    C     0.38817   0.31138   0.12190   0.00000  Uiso   1.00
C99    C     0.26200   0.25219   0.10959   0.00000  Uiso   1.00
C100   C     0.15886   0.38030   0.08713   0.00000  Uiso   1.00
C101   C     0.95849   0.53459   0.05016   0.00000  Uiso   1.00
C102   C     0.61606   0.29811   0.19371   0.00000  Uiso   1.00
C103   C     0.68148   0.22778   0.24178   0.00000  Uiso   1.00
C104   C     0.77020   0.34474   0.27979   0.00000  Uiso   1.00
C105   C     0.92367   0.47842   0.35432   0.00000  Uiso   1.00
C106   C     0.55619   0.52707   0.12870   0.00000  Uiso   1.00
C107   C     0.59138   0.38224   0.10233   0.00000  Uiso   1.00
C108   C     0.64047   0.41807   0.07164   0.00000  Uiso   1.00
C109   C     0.66643   0.26657   0.05103   0.00000  Uiso   1.00
C110   C     0.41053   0.49211   0.11214   0.00000  Uiso   1.00
C111   C     0.30756   0.62035   0.08970   0.00000  Uiso   1.00
C112   C     0.18126   0.56137   0.07735   0.00000  Uiso   1.00
C113   C     0.63843   0.47885   0.18395   0.00000  Uiso   1.00
C114   C     0.72705   0.59594   0.22190   0.00000  Uiso   1.00
C115   C     0.79260   0.52580   0.27001   0.00000  Uiso   1.00
H116   H     0.49759   0.05361   0.15428   0.00000  Uiso   1.00
H117   H     0.57757   0.91006   0.09908   0.00000  Uiso   1.00
H118   H     0.24472   0.11232   0.11715   0.00000  Uiso   1.00
H119   H     0.66415   0.08791   0.24932   0.00000  Uiso   1.00
H120   H     0.67607   0.83063   0.03357   0.00000  Uiso   1.00
H121   H     0.97424   0.25711   0.07168   0.00000  Uiso   1.00
H122   H     0.85868   0.20565   0.35040   0.00000  Uiso   1.00
H123   H     0.57360   0.66779   0.12110   0.00000  Uiso   1.00
H124   H     0.65777   0.55796   0.06409   0.00000  Uiso   1.00
H125   H     0.32490   0.76020   0.08215   0.00000  Uiso   1.00
H126   H     0.74433   0.73580   0.21433   0.00000  Uiso   1.00
H127   H     0.74115   0.35649   0.00517   0.00000  Uiso   1.00
H128   H     0.03931   0.78296   0.04328   0.00000  Uiso   1.00
H129   H     0.92375   0.73150   0.32199   0.00000  Uiso   1.00
O130   O     0.76256   0.01023   0.98245   0.00000  Uiso   1.00
O131   O     0.84179   0.56975   0.03246   0.00000  Uiso   1.00
O132   O     0.00215   0.50223   0.39812   0.00000  Uiso   1.00
N133   N     0.67986   0.96947   0.03472   0.00000  Uiso   1.00
N134   N     0.02368   0.36819   0.07034   0.00000  Uiso   1.00
N135   N     0.85053   0.32009   0.33092   0.00000  Uiso   1.00
N136   N     0.71488   0.25242   0.01944   0.00000  Uiso   1.00
N137   N     0.05870   0.65114   0.05506   0.00000  Uiso   1.00
N138   N     0.88555   0.60304   0.31564   0.00000  Uiso   1.00
C139   C     0.48499   0.69431   0.35332   0.00000  Uiso   1.00
C140   C     0.43098   0.70149   0.38791   0.00000  Uiso   1.00
C141   C     0.40509   0.54992   0.40848   0.00000  Uiso   1.00
C142   C     0.35599   0.58551   0.43919   0.00000  Uiso   1.00
C143   C     0.27559   0.56917   0.49143   0.00000  Uiso   1.00
C144   C     0.61183   0.81138   0.37810   0.00000  Uiso   1.00
C145   C     0.73800   0.75219   0.39041   0.00000  Uiso   1.00
C146   C     0.84114   0.88030   0.41287   0.00000  Uiso   1.00
C147   C     0.04151   0.03459   0.44984   0.00000  Uiso   1.00
C148   C     0.38394   0.79811   0.30629   0.00000  Uiso   1.00
C149   C     0.31852   0.72778   0.25822   0.00000  Uiso   1.00
C150   C     0.22980   0.84474   0.22021   0.00000  Uiso   1.00
C151   C     0.07633   0.97842   0.14568   0.00000  Uiso   1.00
C152   C     0.44381   0.02707   0.37130   0.00000  Uiso   1.00
C153   C     0.40862   0.88224   0.39767   0.00000  Uiso   1.00
C154   C     0.35953   0.91807   0.42836   0.00000  Uiso   1.00
C155   C     0.33357   0.76657   0.44897   0.00000  Uiso   1.00
C156   C     0.58947   0.99211   0.38786   0.00000  Uiso   1.00
C157   C     0.69244   0.12035   0.41030   0.00000  Uiso   1.00
C158   C     0.81874   0.06137   0.42265   0.00000  Uiso   1.00
C159   C     0.36157   0.97885   0.31605   0.00000  Uiso   1.00
C160   C     0.27295   0.09594   0.27810   0.00000  Uiso   1.00
C161   C     0.20740   0.02580   0.22999   0.00000  Uiso   1.00
H162   H     0.50241   0.55361   0.34572   0.00000  Uiso   1.00
H163   H     0.42243   0.41006   0.40092   0.00000  Uiso   1.00
H164   H     0.75528   0.61232   0.38285   0.00000  Uiso   1.00
H165   H     0.33585   0.58791   0.25068   0.00000  Uiso   1.00
H166   H     0.32393   0.33063   0.46643   0.00000  Uiso   1.00
H167   H     0.02576   0.75711   0.42832   0.00000  Uiso   1.00
H168   H     0.14132   0.70565   0.14960   0.00000  Uiso   1.00
H169   H     0.42640   0.16779   0.37890   0.00000  Uiso   1.00
H170   H     0.34223   0.05796   0.43591   0.00000  Uiso   1.00
H171   H     0.67510   0.26020   0.41785   0.00000  Uiso   1.00
H172   H     0.25567   0.23580   0.28567   0.00000  Uiso   1.00
H173   H     0.25885   0.85649   0.49483   0.00000  Uiso   1.00
H174   H     0.96069   0.28296   0.45672   0.00000  Uiso   1.00
H175   H     0.07625   0.23150   0.17801   0.00000  Uiso   1.00
O176   O     0.23744   0.51023   0.51755   0.00000  Uiso   1.00
O177   O     0.15821   0.06975   0.46754   0.00000  Uiso   1.00
O178   O     0.99785   0.00223   0.10188   0.00000  Uiso   1.00
N179   N     0.32014   0.46947   0.46528   0.00000  Uiso   1.00
N180   N     0.97632   0.86819   0.42966   0.00000  Uiso   1.00
N181   N     0.14947   0.82009   0.16908   0.00000  Uiso   1.00
N182   N     0.28512   0.75242   0.48056   0.00000  Uiso   1.00
N183   N     0.94130   0.15114   0.44494   0.00000  Uiso   1.00
N184   N     0.11445   0.10304   0.18436   0.00000  Uiso   1.00
