data_job_05655
_audit_creation_date              2018-12-19
_audit_creation_method            'Materials Studio'
_symmetry_space_group_name_H-M    'P1'
_symmetry_Int_Tables_number       1
_symmetry_cell_setting            triclinic
loop_
_symmetry_equiv_pos_as_xyz
  x,y,z
_cell_length_a                    21.2128
_cell_length_b                    21.2128
_cell_length_c                    13.5994
_cell_angle_alpha                 90.0000
_cell_angle_beta                  90.0000
_cell_angle_gamma                 90.0000
loop_
_atom_site_label
_atom_site_type_symbol
_atom_site_fract_x
_atom_site_fract_y
_atom_site_fract_z
_atom_site_U_iso_or_equiv
_atom_site_adp_type
_atom_site_occupancy
C1     C     0.22401   0.57954   0.53600   0.00000  Uiso   1.00
C2     C     0.28094   0.55384   0.48050   0.00000  Uiso   1.00
C3     C     0.27970   0.52650   0.38782   0.00000  Uiso   1.00
C4     C     0.33684   0.50593   0.34972   0.00000  Uiso   1.00
C5     C     0.41667   0.46500   0.25553   0.00000  Uiso   1.00
C6     C     0.22272   0.54498   0.63431   0.00000  Uiso   1.00
C7     C     0.17254   0.51019   0.67094   0.00000  Uiso   1.00
C8     C     0.18067   0.48217   0.76233   0.00000  Uiso   1.00
C9     C     0.17010   0.42752   0.90696   0.00000  Uiso   1.00
C10    C     0.23939   0.64808   0.55980   0.00000  Uiso   1.00
C11    C     0.20322   0.69999   0.53381   0.00000  Uiso   1.00
C12    C     0.22537   0.75877   0.56249   0.00000  Uiso   1.00
C13    C     0.24069   0.86420   0.59143   0.00000  Uiso   1.00
C14    C     0.32767   0.59164   0.63317   0.00000  Uiso   1.00
C15    C     0.33724   0.56041   0.53328   0.00000  Uiso   1.00
C16    C     0.39440   0.53988   0.49532   0.00000  Uiso   1.00
C17    C     0.39325   0.51252   0.40259   0.00000  Uiso   1.00
C18    C     0.27903   0.55155   0.68708   0.00000  Uiso   1.00
C19    C     0.28723   0.52358   0.77845   0.00000  Uiso   1.00
C20    C     0.23707   0.48875   0.81521   0.00000  Uiso   1.00
C21    C     0.29570   0.65466   0.61257   0.00000  Uiso   1.00
C22    C     0.31791   0.71337   0.64131   0.00000  Uiso   1.00
C23    C     0.28178   0.76535   0.61536   0.00000  Uiso   1.00
H24    H     0.18017   0.57442   0.49492   0.00000  Uiso   1.00
H25    H     0.23612   0.52142   0.34700   0.00000  Uiso   1.00
H26    H     0.12897   0.50512   0.63009   0.00000  Uiso   1.00
H27    H     0.15965   0.69488   0.49297   0.00000  Uiso   1.00
H28    H     0.32298   0.46553   0.20629   0.00000  Uiso   1.00
H29    H     0.09704   0.43118   0.80321   0.00000  Uiso   1.00
H30    H     0.16172   0.83133   0.51407   0.00000  Uiso   1.00
H31    H     0.37151   0.59675   0.67426   0.00000  Uiso   1.00
H32    H     0.43796   0.54498   0.53618   0.00000  Uiso   1.00
H33    H     0.33081   0.52867   0.81927   0.00000  Uiso   1.00
H34    H     0.36149   0.71844   0.68215   0.00000  Uiso   1.00
H35    H     0.48680   0.48464   0.35984   0.00000  Uiso   1.00
H36    H     0.26086   0.45030   0.95676   0.00000  Uiso   1.00
H37    H     0.32555   0.85045   0.66762   0.00000  Uiso   1.00
O38    O     0.44515   0.44060   0.18901   0.00000  Uiso   1.00
O39    O     0.14872   0.39555   0.97215   0.00000  Uiso   1.00
O40    O     0.23359   0.92054   0.59280   0.00000  Uiso   1.00
N41    N     0.35242   0.47715   0.26137   0.00000  Uiso   1.00
N42    N     0.14118   0.44502   0.81945   0.00000  Uiso   1.00
N43    N     0.20165   0.81913   0.54915   0.00000  Uiso   1.00
N44    N     0.44057   0.48743   0.34399   0.00000  Uiso   1.00
N45    N     0.22933   0.45531   0.90207   0.00000  Uiso   1.00
N46    N     0.28980   0.82942   0.63177   0.00000  Uiso   1.00
C47    C     0.77599   0.42046   0.03600   0.00000  Uiso   1.00
C48    C     0.71906   0.44616   0.98050   0.00000  Uiso   1.00
C49    C     0.72030   0.47350   0.88782   0.00000  Uiso   1.00
C50    C     0.66316   0.49407   0.84972   0.00000  Uiso   1.00
C51    C     0.58333   0.53500   0.75553   0.00000  Uiso   1.00
C52    C     0.77728   0.45502   0.13431   0.00000  Uiso   1.00
C53    C     0.82746   0.48981   0.17094   0.00000  Uiso   1.00
C54    C     0.81933   0.51783   0.26233   0.00000  Uiso   1.00
C55    C     0.82990   0.57248   0.40696   0.00000  Uiso   1.00
C56    C     0.76061   0.35192   0.05980   0.00000  Uiso   1.00
C57    C     0.79678   0.30001   0.03381   0.00000  Uiso   1.00
C58    C     0.77463   0.24123   0.06249   0.00000  Uiso   1.00
C59    C     0.75931   0.13580   0.09143   0.00000  Uiso   1.00
C60    C     0.67233   0.40836   0.13317   0.00000  Uiso   1.00
C61    C     0.66276   0.43959   0.03328   0.00000  Uiso   1.00
C62    C     0.60560   0.46012   0.99532   0.00000  Uiso   1.00
C63    C     0.60675   0.48748   0.90259   0.00000  Uiso   1.00
C64    C     0.72097   0.44845   0.18708   0.00000  Uiso   1.00
C65    C     0.71277   0.47642   0.27845   0.00000  Uiso   1.00
C66    C     0.76293   0.51125   0.31521   0.00000  Uiso   1.00
C67    C     0.70430   0.34534   0.11257   0.00000  Uiso   1.00
C68    C     0.68209   0.28663   0.14131   0.00000  Uiso   1.00
C69    C     0.71822   0.23465   0.11536   0.00000  Uiso   1.00
H70    H     0.81983   0.42558   0.99492   0.00000  Uiso   1.00
H71    H     0.76388   0.47858   0.84700   0.00000  Uiso   1.00
H72    H     0.87103   0.49488   0.13009   0.00000  Uiso   1.00
H73    H     0.84035   0.30512   0.99297   0.00000  Uiso   1.00
H74    H     0.67702   0.53447   0.70629   0.00000  Uiso   1.00
H75    H     0.90296   0.56882   0.30321   0.00000  Uiso   1.00
H76    H     0.83828   0.16867   0.01407   0.00000  Uiso   1.00
H77    H     0.62849   0.40325   0.17426   0.00000  Uiso   1.00
H78    H     0.56204   0.45502   0.03618   0.00000  Uiso   1.00
H79    H     0.66919   0.47133   0.31927   0.00000  Uiso   1.00
H80    H     0.63851   0.28156   0.18215   0.00000  Uiso   1.00
H81    H     0.51320   0.51536   0.85984   0.00000  Uiso   1.00
H82    H     0.73914   0.54970   0.45676   0.00000  Uiso   1.00
H83    H     0.67445   0.14955   0.16762   0.00000  Uiso   1.00
O84    O     0.55485   0.55940   0.68901   0.00000  Uiso   1.00
O85    O     0.85128   0.60445   0.47215   0.00000  Uiso   1.00
O86    O     0.76641   0.07946   0.09280   0.00000  Uiso   1.00
N87    N     0.64758   0.52285   0.76137   0.00000  Uiso   1.00
N88    N     0.85882   0.55498   0.31945   0.00000  Uiso   1.00
N89    N     0.79835   0.18087   0.04915   0.00000  Uiso   1.00
N90    N     0.55943   0.51257   0.84399   0.00000  Uiso   1.00
N91    N     0.77067   0.54469   0.40207   0.00000  Uiso   1.00
N92    N     0.71020   0.17058   0.13177   0.00000  Uiso   1.00
C93    C     0.92046   0.72401   0.28600   0.00000  Uiso   1.00
C94    C     0.94616   0.78094   0.23050   0.00000  Uiso   1.00
C95    C     0.97350   0.77970   0.13782   0.00000  Uiso   1.00
C96    C     0.99407   0.83684   0.09972   0.00000  Uiso   1.00
C97    C     0.03500   0.91667   0.00553   0.00000  Uiso   1.00
C98    C     0.95502   0.72272   0.38431   0.00000  Uiso   1.00
C99    C     0.98981   0.67254   0.42094   0.00000  Uiso   1.00
C100   C     0.01783   0.68067   0.51233   0.00000  Uiso   1.00
C101   C     0.07248   0.67010   0.65696   0.00000  Uiso   1.00
C102   C     0.85192   0.73939   0.30980   0.00000  Uiso   1.00
C103   C     0.80001   0.70322   0.28381   0.00000  Uiso   1.00
C104   C     0.74123   0.72537   0.31249   0.00000  Uiso   1.00
C105   C     0.63580   0.74069   0.34143   0.00000  Uiso   1.00
C106   C     0.90836   0.82767   0.38317   0.00000  Uiso   1.00
C107   C     0.93959   0.83724   0.28328   0.00000  Uiso   1.00
C108   C     0.96012   0.89440   0.24532   0.00000  Uiso   1.00
C109   C     0.98748   0.89325   0.15259   0.00000  Uiso   1.00
C110   C     0.94845   0.77903   0.43708   0.00000  Uiso   1.00
C111   C     0.97642   0.78723   0.52845   0.00000  Uiso   1.00
C112   C     0.01125   0.73707   0.56521   0.00000  Uiso   1.00
C113   C     0.84534   0.79570   0.36257   0.00000  Uiso   1.00
C114   C     0.78663   0.81791   0.39131   0.00000  Uiso   1.00
C115   C     0.73465   0.78178   0.36536   0.00000  Uiso   1.00
H116   H     0.92558   0.68017   0.24492   0.00000  Uiso   1.00
H117   H     0.97858   0.73612   0.09700   0.00000  Uiso   1.00
H118   H     0.99488   0.62897   0.38009   0.00000  Uiso   1.00
H119   H     0.80512   0.65965   0.24297   0.00000  Uiso   1.00
H120   H     0.03447   0.82298   0.95629   0.00000  Uiso   1.00
H121   H     0.06882   0.59704   0.55321   0.00000  Uiso   1.00
H122   H     0.66867   0.66172   0.26407   0.00000  Uiso   1.00
H123   H     0.90325   0.87151   0.42426   0.00000  Uiso   1.00
H124   H     0.95502   0.93796   0.28618   0.00000  Uiso   1.00
H125   H     0.97133   0.83081   0.56927   0.00000  Uiso   1.00
H126   H     0.78156   0.86149   0.43215   0.00000  Uiso   1.00
H127   H     0.01536   0.98680   0.10984   0.00000  Uiso   1.00
H128   H     0.04970   0.76086   0.70676   0.00000  Uiso   1.00
H129   H     0.64955   0.82555   0.41762   0.00000  Uiso   1.00
O130   O     0.05940   0.94515   0.93901   0.00000  Uiso   1.00
O131   O     0.10445   0.64872   0.72215   0.00000  Uiso   1.00
O132   O     0.57946   0.73359   0.34280   0.00000  Uiso   1.00
N133   N     0.02285   0.85242   0.01137   0.00000  Uiso   1.00
N134   N     0.05498   0.64118   0.56945   0.00000  Uiso   1.00
N135   N     0.68087   0.70165   0.29915   0.00000  Uiso   1.00
N136   N     0.01257   0.94057   0.09399   0.00000  Uiso   1.00
N137   N     0.04469   0.72933   0.65207   0.00000  Uiso   1.00
N138   N     0.67058   0.78980   0.38177   0.00000  Uiso   1.00
C139   C     0.07954   0.27599   0.78600   0.00000  Uiso   1.00
C140   C     0.05384   0.21906   0.73050   0.00000  Uiso   1.00
C141   C     0.02650   0.22030   0.63782   0.00000  Uiso   1.00
C142   C     0.00593   0.16316   0.59972   0.00000  Uiso   1.00
C143   C     0.96500   0.08333   0.50553   0.00000  Uiso   1.00
C144   C     0.04498   0.27728   0.88431   0.00000  Uiso   1.00
C145   C     0.01019   0.32746   0.92094   0.00000  Uiso   1.00
C146   C     0.98217   0.31933   0.01233   0.00000  Uiso   1.00
C147   C     0.92752   0.32990   0.15696   0.00000  Uiso   1.00
C148   C     0.14808   0.26061   0.80980   0.00000  Uiso   1.00
C149   C     0.19999   0.29678   0.78381   0.00000  Uiso   1.00
C150   C     0.25877   0.27463   0.81249   0.00000  Uiso   1.00
C151   C     0.36420   0.25931   0.84143   0.00000  Uiso   1.00
C152   C     0.09164   0.17233   0.88317   0.00000  Uiso   1.00
C153   C     0.06041   0.16276   0.78328   0.00000  Uiso   1.00
C154   C     0.03988   0.10560   0.74532   0.00000  Uiso   1.00
C155   C     0.01252   0.10675   0.65259   0.00000  Uiso   1.00
C156   C     0.05155   0.22097   0.93708   0.00000  Uiso   1.00
C157   C     0.02358   0.21277   0.02845   0.00000  Uiso   1.00
C158   C     0.98875   0.26293   0.06521   0.00000  Uiso   1.00
C159   C     0.15466   0.20430   0.86257   0.00000  Uiso   1.00
C160   C     0.21337   0.18209   0.89131   0.00000  Uiso   1.00
C161   C     0.26535   0.21822   0.86536   0.00000  Uiso   1.00
H162   H     0.07442   0.31983   0.74492   0.00000  Uiso   1.00
H163   H     0.02142   0.26388   0.59700   0.00000  Uiso   1.00
H164   H     0.00512   0.37103   0.88009   0.00000  Uiso   1.00
H165   H     0.19488   0.34035   0.74297   0.00000  Uiso   1.00
H166   H     0.96553   0.17702   0.45629   0.00000  Uiso   1.00
H167   H     0.93118   0.40296   0.05321   0.00000  Uiso   1.00
H168   H     0.33133   0.33828   0.76407   0.00000  Uiso   1.00
H169   H     0.09675   0.12849   0.92426   0.00000  Uiso   1.00
H170   H     0.04498   0.06204   0.78618   0.00000  Uiso   1.00
H171   H     0.02867   0.16919   0.06927   0.00000  Uiso   1.00
H172   H     0.21844   0.13851   0.93215   0.00000  Uiso   1.00
H173   H     0.98464   0.01320   0.60984   0.00000  Uiso   1.00
H174   H     0.95030   0.23914   0.20676   0.00000  Uiso   1.00
H175   H     0.35045   0.17445   0.91762   0.00000  Uiso   1.00
O176   O     0.94060   0.05485   0.43901   0.00000  Uiso   1.00
O177   O     0.89555   0.35128   0.22215   0.00000  Uiso   1.00
O178   O     0.42054   0.26641   0.84280   0.00000  Uiso   1.00
N179   N     0.97715   0.14758   0.51137   0.00000  Uiso   1.00
N180   N     0.94502   0.35882   0.06945   0.00000  Uiso   1.00
N181   N     0.31913   0.29835   0.79915   0.00000  Uiso   1.00
N182   N     0.98743   0.05943   0.59399   0.00000  Uiso   1.00
N183   N     0.95531   0.27067   0.15207   0.00000  Uiso   1.00
N184   N     0.32942   0.21020   0.88177   0.00000  Uiso   1.00
C185   C     0.27599   0.07954   0.21400   0.00000  Uiso   1.00
C186   C     0.21906   0.05384   0.26950   0.00000  Uiso   1.00
C187   C     0.22030   0.02650   0.36218   0.00000  Uiso   1.00
C188   C     0.16316   0.00593   0.40028   0.00000  Uiso   1.00
C189   C     0.08333   0.96500   0.49447   0.00000  Uiso   1.00
C190   C     0.27728   0.04498   0.11569   0.00000  Uiso   1.00
C191   C     0.32746   0.01019   0.07906   0.00000  Uiso   1.00
C192   C     0.31933   0.98217   0.98767   0.00000  Uiso   1.00
C193   C     0.32990   0.92752   0.84304   0.00000  Uiso   1.00
C194   C     0.26061   0.14808   0.19020   0.00000  Uiso   1.00
C195   C     0.29678   0.19999   0.21619   0.00000  Uiso   1.00
C196   C     0.27463   0.25877   0.18751   0.00000  Uiso   1.00
C197   C     0.25931   0.36420   0.15857   0.00000  Uiso   1.00
C198   C     0.17233   0.09164   0.11683   0.00000  Uiso   1.00
C199   C     0.16276   0.06041   0.21672   0.00000  Uiso   1.00
C200   C     0.10560   0.03988   0.25468   0.00000  Uiso   1.00
C201   C     0.10675   0.01252   0.34741   0.00000  Uiso   1.00
C202   C     0.22097   0.05155   0.06292   0.00000  Uiso   1.00
C203   C     0.21277   0.02358   0.97155   0.00000  Uiso   1.00
C204   C     0.26293   0.98875   0.93479   0.00000  Uiso   1.00
C205   C     0.20430   0.15466   0.13743   0.00000  Uiso   1.00
C206   C     0.18209   0.21337   0.10869   0.00000  Uiso   1.00
C207   C     0.21822   0.26535   0.13464   0.00000  Uiso   1.00
H208   H     0.31983   0.07442   0.25508   0.00000  Uiso   1.00
H209   H     0.26388   0.02142   0.40300   0.00000  Uiso   1.00
H210   H     0.37103   0.00512   0.11991   0.00000  Uiso   1.00
H211   H     0.34035   0.19488   0.25703   0.00000  Uiso   1.00
H212   H     0.17702   0.96553   0.54371   0.00000  Uiso   1.00
H213   H     0.40296   0.93118   0.94679   0.00000  Uiso   1.00
H214   H     0.33828   0.33133   0.23593   0.00000  Uiso   1.00
H215   H     0.12849   0.09675   0.07574   0.00000  Uiso   1.00
H216   H     0.06204   0.04498   0.21382   0.00000  Uiso   1.00
H217   H     0.16919   0.02867   0.93073   0.00000  Uiso   1.00
H218   H     0.13851   0.21844   0.06785   0.00000  Uiso   1.00
H219   H     0.01320   0.98464   0.39016   0.00000  Uiso   1.00
H220   H     0.23914   0.95030   0.79324   0.00000  Uiso   1.00
H221   H     0.17445   0.35045   0.08238   0.00000  Uiso   1.00
O222   O     0.05485   0.94060   0.56099   0.00000  Uiso   1.00
O223   O     0.35128   0.89555   0.77785   0.00000  Uiso   1.00
O224   O     0.26641   0.42054   0.15720   0.00000  Uiso   1.00
N225   N     0.14758   0.97715   0.48863   0.00000  Uiso   1.00
N226   N     0.35882   0.94502   0.93055   0.00000  Uiso   1.00
N227   N     0.29835   0.31913   0.20085   0.00000  Uiso   1.00
N228   N     0.05943   0.98743   0.40601   0.00000  Uiso   1.00
N229   N     0.27067   0.95531   0.84793   0.00000  Uiso   1.00
N230   N     0.21020   0.32942   0.11823   0.00000  Uiso   1.00
C231   C     0.72401   0.92046   0.71400   0.00000  Uiso   1.00
C232   C     0.78094   0.94616   0.76950   0.00000  Uiso   1.00
C233   C     0.77970   0.97350   0.86218   0.00000  Uiso   1.00
C234   C     0.83684   0.99407   0.90028   0.00000  Uiso   1.00
C235   C     0.91667   0.03500   0.99447   0.00000  Uiso   1.00
C236   C     0.72272   0.95502   0.61569   0.00000  Uiso   1.00
C237   C     0.67254   0.98981   0.57906   0.00000  Uiso   1.00
C238   C     0.68067   0.01783   0.48767   0.00000  Uiso   1.00
C239   C     0.67010   0.07248   0.34304   0.00000  Uiso   1.00
C240   C     0.73939   0.85192   0.69020   0.00000  Uiso   1.00
C241   C     0.70322   0.80001   0.71619   0.00000  Uiso   1.00
C242   C     0.72537   0.74123   0.68751   0.00000  Uiso   1.00
C243   C     0.74069   0.63580   0.65857   0.00000  Uiso   1.00
C244   C     0.82767   0.90836   0.61683   0.00000  Uiso   1.00
C245   C     0.83724   0.93959   0.71672   0.00000  Uiso   1.00
C246   C     0.89440   0.96012   0.75468   0.00000  Uiso   1.00
C247   C     0.89325   0.98748   0.84741   0.00000  Uiso   1.00
C248   C     0.77903   0.94845   0.56292   0.00000  Uiso   1.00
C249   C     0.78723   0.97642   0.47155   0.00000  Uiso   1.00
C250   C     0.73707   0.01125   0.43479   0.00000  Uiso   1.00
C251   C     0.79570   0.84534   0.63743   0.00000  Uiso   1.00
C252   C     0.81791   0.78663   0.60869   0.00000  Uiso   1.00
C253   C     0.78178   0.73465   0.63464   0.00000  Uiso   1.00
H254   H     0.68017   0.92558   0.75508   0.00000  Uiso   1.00
H255   H     0.73612   0.97858   0.90300   0.00000  Uiso   1.00
H256   H     0.62897   0.99488   0.61991   0.00000  Uiso   1.00
H257   H     0.65965   0.80512   0.75703   0.00000  Uiso   1.00
H258   H     0.82298   0.03447   0.04371   0.00000  Uiso   1.00
H259   H     0.59704   0.06882   0.44679   0.00000  Uiso   1.00
H260   H     0.66172   0.66867   0.73593   0.00000  Uiso   1.00
H261   H     0.87151   0.90325   0.57574   0.00000  Uiso   1.00
H262   H     0.93796   0.95502   0.71382   0.00000  Uiso   1.00
H263   H     0.83081   0.97133   0.43073   0.00000  Uiso   1.00
H264   H     0.86149   0.78156   0.56785   0.00000  Uiso   1.00
H265   H     0.98680   0.01536   0.89016   0.00000  Uiso   1.00
H266   H     0.76086   0.04970   0.29324   0.00000  Uiso   1.00
H267   H     0.82555   0.64955   0.58238   0.00000  Uiso   1.00
O268   O     0.94515   0.05940   0.06099   0.00000  Uiso   1.00
O269   O     0.64872   0.10445   0.27785   0.00000  Uiso   1.00
O270   O     0.73359   0.57946   0.65720   0.00000  Uiso   1.00
N271   N     0.85242   0.02285   0.98863   0.00000  Uiso   1.00
N272   N     0.64118   0.05498   0.43055   0.00000  Uiso   1.00
N273   N     0.70165   0.68087   0.70085   0.00000  Uiso   1.00
N274   N     0.94057   0.01257   0.90601   0.00000  Uiso   1.00
N275   N     0.72933   0.04469   0.34793   0.00000  Uiso   1.00
N276   N     0.78980   0.67058   0.61823   0.00000  Uiso   1.00
C277   C     0.57954   0.22401   0.46400   0.00000  Uiso   1.00
C278   C     0.55384   0.28094   0.51950   0.00000  Uiso   1.00
C279   C     0.52650   0.27970   0.61218   0.00000  Uiso   1.00
C280   C     0.50593   0.33684   0.65028   0.00000  Uiso   1.00
C281   C     0.46500   0.41667   0.74447   0.00000  Uiso   1.00
C282   C     0.54498   0.22272   0.36569   0.00000  Uiso   1.00
C283   C     0.51019   0.17254   0.32906   0.00000  Uiso   1.00
C284   C     0.48217   0.18067   0.23767   0.00000  Uiso   1.00
C285   C     0.42752   0.17010   0.09304   0.00000  Uiso   1.00
C286   C     0.64808   0.23939   0.44020   0.00000  Uiso   1.00
C287   C     0.69999   0.20322   0.46619   0.00000  Uiso   1.00
C288   C     0.75877   0.22537   0.43751   0.00000  Uiso   1.00
C289   C     0.86420   0.24069   0.40857   0.00000  Uiso   1.00
C290   C     0.59164   0.32767   0.36683   0.00000  Uiso   1.00
C291   C     0.56041   0.33724   0.46672   0.00000  Uiso   1.00
C292   C     0.53988   0.39440   0.50468   0.00000  Uiso   1.00
C293   C     0.51252   0.39325   0.59741   0.00000  Uiso   1.00
C294   C     0.55155   0.27903   0.31292   0.00000  Uiso   1.00
C295   C     0.52358   0.28723   0.22155   0.00000  Uiso   1.00
C296   C     0.48875   0.23707   0.18479   0.00000  Uiso   1.00
C297   C     0.65466   0.29570   0.38743   0.00000  Uiso   1.00
C298   C     0.71337   0.31791   0.35869   0.00000  Uiso   1.00
C299   C     0.76535   0.28178   0.38464   0.00000  Uiso   1.00
H300   H     0.57442   0.18017   0.50508   0.00000  Uiso   1.00
H301   H     0.52142   0.23612   0.65300   0.00000  Uiso   1.00
H302   H     0.50512   0.12897   0.36991   0.00000  Uiso   1.00
H303   H     0.69488   0.15965   0.50703   0.00000  Uiso   1.00
H304   H     0.46553   0.32298   0.79371   0.00000  Uiso   1.00
H305   H     0.43118   0.09704   0.19679   0.00000  Uiso   1.00
H306   H     0.83133   0.16172   0.48593   0.00000  Uiso   1.00
H307   H     0.59675   0.37151   0.32574   0.00000  Uiso   1.00
H308   H     0.54498   0.43796   0.46382   0.00000  Uiso   1.00
H309   H     0.52867   0.33081   0.18073   0.00000  Uiso   1.00
H310   H     0.71844   0.36149   0.31785   0.00000  Uiso   1.00
H311   H     0.48464   0.48680   0.64016   0.00000  Uiso   1.00
H312   H     0.45030   0.26086   0.04324   0.00000  Uiso   1.00
H313   H     0.85045   0.32555   0.33238   0.00000  Uiso   1.00
O314   O     0.44060   0.44515   0.81099   0.00000  Uiso   1.00
O315   O     0.39555   0.14872   0.02785   0.00000  Uiso   1.00
O316   O     0.92054   0.23359   0.40720   0.00000  Uiso   1.00
N317   N     0.47715   0.35242   0.73863   0.00000  Uiso   1.00
N318   N     0.44502   0.14118   0.18055   0.00000  Uiso   1.00
N319   N     0.81913   0.20165   0.45085   0.00000  Uiso   1.00
N320   N     0.48743   0.44057   0.65601   0.00000  Uiso   1.00
N321   N     0.45531   0.22933   0.09793   0.00000  Uiso   1.00
N322   N     0.82942   0.28980   0.36823   0.00000  Uiso   1.00
C323   C     0.42046   0.77599   0.96400   0.00000  Uiso   1.00
C324   C     0.44616   0.71906   0.01950   0.00000  Uiso   1.00
C325   C     0.47350   0.72030   0.11218   0.00000  Uiso   1.00
C326   C     0.49407   0.66316   0.15028   0.00000  Uiso   1.00
C327   C     0.53500   0.58333   0.24447   0.00000  Uiso   1.00
C328   C     0.45502   0.77728   0.86569   0.00000  Uiso   1.00
C329   C     0.48981   0.82746   0.82906   0.00000  Uiso   1.00
C330   C     0.51783   0.81933   0.73767   0.00000  Uiso   1.00
C331   C     0.57248   0.82990   0.59304   0.00000  Uiso   1.00
C332   C     0.35192   0.76061   0.94020   0.00000  Uiso   1.00
C333   C     0.30001   0.79678   0.96619   0.00000  Uiso   1.00
C334   C     0.24123   0.77463   0.93751   0.00000  Uiso   1.00
C335   C     0.13580   0.75931   0.90857   0.00000  Uiso   1.00
C336   C     0.40836   0.67233   0.86683   0.00000  Uiso   1.00
C337   C     0.43959   0.66276   0.96672   0.00000  Uiso   1.00
C338   C     0.46012   0.60560   0.00468   0.00000  Uiso   1.00
C339   C     0.48748   0.60675   0.09741   0.00000  Uiso   1.00
C340   C     0.44845   0.72097   0.81292   0.00000  Uiso   1.00
C341   C     0.47642   0.71277   0.72155   0.00000  Uiso   1.00
C342   C     0.51125   0.76293   0.68479   0.00000  Uiso   1.00
C343   C     0.34534   0.70430   0.88743   0.00000  Uiso   1.00
C344   C     0.28663   0.68209   0.85869   0.00000  Uiso   1.00
C345   C     0.23465   0.71822   0.88464   0.00000  Uiso   1.00
H346   H     0.42558   0.81983   0.00508   0.00000  Uiso   1.00
H347   H     0.47858   0.76388   0.15300   0.00000  Uiso   1.00
H348   H     0.49488   0.87103   0.86991   0.00000  Uiso   1.00
H349   H     0.30512   0.84035   0.00703   0.00000  Uiso   1.00
H350   H     0.53447   0.67702   0.29371   0.00000  Uiso   1.00
H351   H     0.56882   0.90296   0.69679   0.00000  Uiso   1.00
H352   H     0.16867   0.83828   0.98593   0.00000  Uiso   1.00
H353   H     0.40325   0.62849   0.82574   0.00000  Uiso   1.00
H354   H     0.45502   0.56204   0.96382   0.00000  Uiso   1.00
H355   H     0.47133   0.66919   0.68073   0.00000  Uiso   1.00
H356   H     0.28156   0.63851   0.81785   0.00000  Uiso   1.00
H357   H     0.51536   0.51320   0.14016   0.00000  Uiso   1.00
H358   H     0.54970   0.73914   0.54324   0.00000  Uiso   1.00
H359   H     0.14955   0.67445   0.83238   0.00000  Uiso   1.00
O360   O     0.55940   0.55485   0.31099   0.00000  Uiso   1.00
O361   O     0.60445   0.85128   0.52785   0.00000  Uiso   1.00
O362   O     0.07946   0.76641   0.90720   0.00000  Uiso   1.00
N363   N     0.52285   0.64758   0.23863   0.00000  Uiso   1.00
N364   N     0.55498   0.85882   0.68055   0.00000  Uiso   1.00
N365   N     0.18087   0.79835   0.95085   0.00000  Uiso   1.00
N366   N     0.51257   0.55943   0.15601   0.00000  Uiso   1.00
N367   N     0.54469   0.77067   0.59793   0.00000  Uiso   1.00
N368   N     0.17058   0.71020   0.86823   0.00000  Uiso   1.00
