data_job_02340
_audit_creation_date              2018-12-19
_audit_creation_method            'Materials Studio'
_symmetry_space_group_name_H-M    'P1'
_symmetry_Int_Tables_number       1
_symmetry_cell_setting            triclinic
loop_
_symmetry_equiv_pos_as_xyz
  x,y,z
_cell_length_a                    12.3825
_cell_length_b                    12.3825
_cell_length_c                    30.8148
_cell_angle_alpha                 90.0000
_cell_angle_beta                  90.0000
_cell_angle_gamma                 120.0000
loop_
_atom_site_label
_atom_site_type_symbol
_atom_site_fract_x
_atom_site_fract_y
_atom_site_fract_z
_atom_site_U_iso_or_equiv
_atom_site_adp_type
_atom_site_occupancy
C1     C     0.57137   0.84394   0.52149   0.00000  Uiso   1.00
C2     C     0.63696   0.93166   0.55944   0.00000  Uiso   1.00
C3     C     0.69214   0.06060   0.55851   0.00000  Uiso   1.00
C4     C     0.74738   0.12411   0.59662   0.00000  Uiso   1.00
C5     C     0.84928   0.26995   0.64982   0.00000  Uiso   1.00
C6     C     0.63694   0.76858   0.51521   0.00000  Uiso   1.00
C7     C     0.69208   0.76038   0.47708   0.00000  Uiso   1.00
C8     C     0.74729   0.68658   0.47796   0.00000  Uiso   1.00
C9     C     0.84909   0.57915   0.46248   0.00000  Uiso   1.00
C10    C     0.44020   0.75175   0.53732   0.00000  Uiso   1.00
C11    C     0.32991   0.72938   0.51778   0.00000  Uiso   1.00
C12    C     0.21947   0.64139   0.53727   0.00000  Uiso   1.00
C13    C     0.01580   0.50784   0.55613   0.00000  Uiso   1.00
C14    C     0.57136   0.72744   0.59083   0.00000  Uiso   1.00
C15    C     0.63696   0.86838   0.59711   0.00000  Uiso   1.00
C16    C     0.69212   0.93171   0.63524   0.00000  Uiso   1.00
C17    C     0.74737   0.06072   0.63436   0.00000  Uiso   1.00
C18    C     0.63694   0.70530   0.55288   0.00000  Uiso   1.00
C19    C     0.69207   0.63149   0.55381   0.00000  Uiso   1.00
C20    C     0.74729   0.62319   0.51570   0.00000  Uiso   1.00
C21    C     0.44019   0.68847   0.57499   0.00000  Uiso   1.00
C22    C     0.32990   0.60049   0.59451   0.00000  Uiso   1.00
C23    C     0.21947   0.57800   0.57501   0.00000  Uiso   1.00
H24    H     0.57138   0.89320   0.49216   0.00000  Uiso   1.00
H25    H     0.69213   0.10954   0.52935   0.00000  Uiso   1.00
H26    H     0.69206   0.80935   0.44794   0.00000  Uiso   1.00
H27    H     0.32995   0.77837   0.48864   0.00000  Uiso   1.00
H28    H     0.82605   0.32149   0.58719   0.00000  Uiso   1.00
H29    H     0.82587   0.68849   0.41552   0.00000  Uiso   1.00
H30    H     0.06228   0.62315   0.50134   0.00000  Uiso   1.00
H31    H     0.57135   0.67817   0.62016   0.00000  Uiso   1.00
H32    H     0.69211   0.88271   0.66438   0.00000  Uiso   1.00
H33    H     0.69204   0.58252   0.58297   0.00000  Uiso   1.00
H34    H     0.32993   0.55154   0.62366   0.00000  Uiso   1.00
H35    H     0.82603   0.13739   0.69678   0.00000  Uiso   1.00
H36    H     0.82585   0.50439   0.52512   0.00000  Uiso   1.00
H37    H     0.06227   0.43905   0.61094   0.00000  Uiso   1.00
O38    O     0.90551   0.36787   0.66876   0.00000  Uiso   1.00
O39    O     0.90526   0.53739   0.44354   0.00000  Uiso   1.00
O40    O     0.90345   0.45167   0.55613   0.00000  Uiso   1.00
N41    N     0.80945   0.25009   0.60692   0.00000  Uiso   1.00
N42    N     0.80930   0.65829   0.44642   0.00000  Uiso   1.00
N43    N     0.09541   0.59717   0.52665   0.00000  Uiso   1.00
N44    N     0.80944   0.15102   0.66589   0.00000  Uiso   1.00
N45    N     0.80929   0.55923   0.50539   0.00000  Uiso   1.00
N46    N     0.09540   0.49811   0.58562   0.00000  Uiso   1.00
C47    C     0.15606   0.72743   0.85482   0.00000  Uiso   1.00
C48    C     0.06834   0.70530   0.89278   0.00000  Uiso   1.00
C49    C     0.93940   0.63153   0.89184   0.00000  Uiso   1.00
C50    C     0.87589   0.62327   0.92995   0.00000  Uiso   1.00
C51    C     0.73005   0.57934   0.98316   0.00000  Uiso   1.00
C52    C     0.23142   0.86837   0.84854   0.00000  Uiso   1.00
C53    C     0.23962   0.93170   0.81042   0.00000  Uiso   1.00
C54    C     0.31342   0.06071   0.81129   0.00000  Uiso   1.00
C55    C     0.42085   0.26994   0.79582   0.00000  Uiso   1.00
C56    C     0.24825   0.68845   0.87066   0.00000  Uiso   1.00
C57    C     0.27062   0.60053   0.85112   0.00000  Uiso   1.00
C58    C     0.35861   0.57808   0.87061   0.00000  Uiso   1.00
C59    C     0.49216   0.50795   0.88946   0.00000  Uiso   1.00
C60    C     0.27256   0.84392   0.92417   0.00000  Uiso   1.00
C61    C     0.13162   0.76858   0.93044   0.00000  Uiso   1.00
C62    C     0.06829   0.76042   0.96857   0.00000  Uiso   1.00
C63    C     0.93928   0.68665   0.96769   0.00000  Uiso   1.00
C64    C     0.29470   0.93164   0.88621   0.00000  Uiso   1.00
C65    C     0.36851   0.06059   0.88714   0.00000  Uiso   1.00
C66    C     0.37681   0.12410   0.84903   0.00000  Uiso   1.00
C67    C     0.31153   0.75172   0.90833   0.00000  Uiso   1.00
C68    C     0.39951   0.72941   0.92785   0.00000  Uiso   1.00
C69    C     0.42200   0.64147   0.90834   0.00000  Uiso   1.00
H70    H     0.10680   0.67817   0.82549   0.00000  Uiso   1.00
H71    H     0.89046   0.58259   0.86268   0.00000  Uiso   1.00
H72    H     0.19065   0.88271   0.78127   0.00000  Uiso   1.00
H73    H     0.22163   0.55158   0.82197   0.00000  Uiso   1.00
H74    H     0.67851   0.50456   0.92052   0.00000  Uiso   1.00
H75    H     0.31151   0.13738   0.74886   0.00000  Uiso   1.00
H76    H     0.37685   0.43914   0.83467   0.00000  Uiso   1.00
H77    H     0.32183   0.89318   0.95350   0.00000  Uiso   1.00
H78    H     0.11729   0.80939   0.99771   0.00000  Uiso   1.00
H79    H     0.41748   0.10952   0.91630   0.00000  Uiso   1.00
H80    H     0.44846   0.77839   0.95700   0.00000  Uiso   1.00
H81    H     0.86261   0.68865   0.03012   0.00000  Uiso   1.00
H82    H     0.49561   0.32147   0.85845   0.00000  Uiso   1.00
H83    H     0.56095   0.62322   0.94427   0.00000  Uiso   1.00
O84    O     0.63213   0.53764   0.00209   0.00000  Uiso   1.00
O85    O     0.46261   0.36786   0.77687   0.00000  Uiso   1.00
O86    O     0.54833   0.45179   0.88946   0.00000  Uiso   1.00
N87    N     0.74991   0.55936   0.94025   0.00000  Uiso   1.00
N88    N     0.34171   0.15101   0.77975   0.00000  Uiso   1.00
N89    N     0.40283   0.49824   0.85998   0.00000  Uiso   1.00
N90    N     0.84898   0.65842   0.99922   0.00000  Uiso   1.00
N91    N     0.44077   0.25007   0.83873   0.00000  Uiso   1.00
N92    N     0.50189   0.59729   0.91895   0.00000  Uiso   1.00
C93    C     0.27257   0.42863   0.18815   0.00000  Uiso   1.00
C94    C     0.29470   0.36304   0.22611   0.00000  Uiso   1.00
C95    C     0.36847   0.30786   0.22517   0.00000  Uiso   1.00
C96    C     0.37673   0.25262   0.26329   0.00000  Uiso   1.00
C97    C     0.42066   0.15072   0.31649   0.00000  Uiso   1.00
C98    C     0.13163   0.36306   0.18188   0.00000  Uiso   1.00
C99    C     0.06830   0.30792   0.14375   0.00000  Uiso   1.00
C100   C     0.93929   0.25271   0.14463   0.00000  Uiso   1.00
C101   C     0.73006   0.15091   0.12915   0.00000  Uiso   1.00
C102   C     0.31155   0.55980   0.20399   0.00000  Uiso   1.00
C103   C     0.39947   0.67009   0.18445   0.00000  Uiso   1.00
C104   C     0.42192   0.78053   0.20394   0.00000  Uiso   1.00
C105   C     0.49205   0.98420   0.22280   0.00000  Uiso   1.00
C106   C     0.15608   0.42864   0.25750   0.00000  Uiso   1.00
C107   C     0.23142   0.36304   0.26378   0.00000  Uiso   1.00
C108   C     0.23958   0.30788   0.30190   0.00000  Uiso   1.00
C109   C     0.31335   0.25263   0.30102   0.00000  Uiso   1.00
C110   C     0.06836   0.36306   0.21954   0.00000  Uiso   1.00
C111   C     0.93941   0.30793   0.22048   0.00000  Uiso   1.00
C112   C     0.87590   0.25271   0.18236   0.00000  Uiso   1.00
C113   C     0.24828   0.55981   0.24166   0.00000  Uiso   1.00
C114   C     0.27059   0.67010   0.26118   0.00000  Uiso   1.00
C115   C     0.35853   0.78053   0.24168   0.00000  Uiso   1.00
H116   H     0.32183   0.42862   0.15882   0.00000  Uiso   1.00
H117   H     0.41741   0.30787   0.19602   0.00000  Uiso   1.00
H118   H     0.11729   0.30794   0.11460   0.00000  Uiso   1.00
H119   H     0.44842   0.67005   0.15530   0.00000  Uiso   1.00
H120   H     0.49544   0.17395   0.25386   0.00000  Uiso   1.00
H121   H     0.86262   0.17413   0.08219   0.00000  Uiso   1.00
H122   H     0.56086   0.93772   0.16801   0.00000  Uiso   1.00
H123   H     0.10682   0.42865   0.28683   0.00000  Uiso   1.00
H124   H     0.19061   0.30789   0.33105   0.00000  Uiso   1.00
H125   H     0.89048   0.30796   0.24963   0.00000  Uiso   1.00
H126   H     0.22161   0.67007   0.29033   0.00000  Uiso   1.00
H127   H     0.31135   0.17397   0.36345   0.00000  Uiso   1.00
H128   H     0.67853   0.17415   0.19178   0.00000  Uiso   1.00
H129   H     0.37678   0.93773   0.27760   0.00000  Uiso   1.00
O130   O     0.46236   0.09449   0.33543   0.00000  Uiso   1.00
O131   O     0.63214   0.09474   0.11020   0.00000  Uiso   1.00
O132   O     0.54821   0.09655   0.22280   0.00000  Uiso   1.00
N133   N     0.44064   0.19055   0.27358   0.00000  Uiso   1.00
N134   N     0.84899   0.19070   0.11309   0.00000  Uiso   1.00
N135   N     0.50176   0.90459   0.19331   0.00000  Uiso   1.00
N136   N     0.34158   0.19056   0.33256   0.00000  Uiso   1.00
N137   N     0.74993   0.19071   0.17206   0.00000  Uiso   1.00
N138   N     0.40271   0.90460   0.25229   0.00000  Uiso   1.00
C139   C     0.42863   0.15606   0.02149   0.00000  Uiso   1.00
C140   C     0.36304   0.06834   0.05944   0.00000  Uiso   1.00
C141   C     0.30786   0.93940   0.05851   0.00000  Uiso   1.00
C142   C     0.25262   0.87589   0.09662   0.00000  Uiso   1.00
C143   C     0.15072   0.73005   0.14982   0.00000  Uiso   1.00
C144   C     0.36306   0.23142   0.01521   0.00000  Uiso   1.00
C145   C     0.30792   0.23962   0.97708   0.00000  Uiso   1.00
C146   C     0.25271   0.31342   0.97796   0.00000  Uiso   1.00
C147   C     0.15091   0.42085   0.96248   0.00000  Uiso   1.00
C148   C     0.55980   0.24825   0.03732   0.00000  Uiso   1.00
C149   C     0.67009   0.27062   0.01778   0.00000  Uiso   1.00
C150   C     0.78053   0.35861   0.03727   0.00000  Uiso   1.00
C151   C     0.98420   0.49216   0.05613   0.00000  Uiso   1.00
C152   C     0.42864   0.27256   0.09083   0.00000  Uiso   1.00
C153   C     0.36304   0.13162   0.09711   0.00000  Uiso   1.00
C154   C     0.30788   0.06829   0.13524   0.00000  Uiso   1.00
C155   C     0.25263   0.93928   0.13436   0.00000  Uiso   1.00
C156   C     0.36306   0.29470   0.05288   0.00000  Uiso   1.00
C157   C     0.30793   0.36851   0.05381   0.00000  Uiso   1.00
C158   C     0.25271   0.37681   0.01570   0.00000  Uiso   1.00
C159   C     0.55981   0.31153   0.07499   0.00000  Uiso   1.00
C160   C     0.67010   0.39951   0.09451   0.00000  Uiso   1.00
C161   C     0.78053   0.42200   0.07501   0.00000  Uiso   1.00
H162   H     0.42862   0.10680   0.99216   0.00000  Uiso   1.00
H163   H     0.30787   0.89046   0.02935   0.00000  Uiso   1.00
H164   H     0.30794   0.19065   0.94794   0.00000  Uiso   1.00
H165   H     0.67005   0.22163   0.98864   0.00000  Uiso   1.00
H166   H     0.17395   0.67851   0.08719   0.00000  Uiso   1.00
H167   H     0.17413   0.31151   0.91552   0.00000  Uiso   1.00
H168   H     0.93772   0.37685   0.00134   0.00000  Uiso   1.00
H169   H     0.42865   0.32183   0.12016   0.00000  Uiso   1.00
H170   H     0.30789   0.11729   0.16438   0.00000  Uiso   1.00
H171   H     0.30796   0.41748   0.08297   0.00000  Uiso   1.00
H172   H     0.67007   0.44846   0.12366   0.00000  Uiso   1.00
H173   H     0.17397   0.86261   0.19678   0.00000  Uiso   1.00
H174   H     0.17415   0.49561   0.02512   0.00000  Uiso   1.00
H175   H     0.93773   0.56095   0.11094   0.00000  Uiso   1.00
O176   O     0.09449   0.63213   0.16876   0.00000  Uiso   1.00
O177   O     0.09474   0.46261   0.94354   0.00000  Uiso   1.00
O178   O     0.09655   0.54833   0.05613   0.00000  Uiso   1.00
N179   N     0.19055   0.74991   0.10692   0.00000  Uiso   1.00
N180   N     0.19070   0.34171   0.94642   0.00000  Uiso   1.00
N181   N     0.90459   0.40283   0.02665   0.00000  Uiso   1.00
N182   N     0.19056   0.84898   0.16589   0.00000  Uiso   1.00
N183   N     0.19071   0.44077   0.00539   0.00000  Uiso   1.00
N184   N     0.90460   0.50189   0.08562   0.00000  Uiso   1.00
C185   C     0.84394   0.27257   0.35482   0.00000  Uiso   1.00
C186   C     0.93166   0.29470   0.39278   0.00000  Uiso   1.00
C187   C     0.06060   0.36847   0.39184   0.00000  Uiso   1.00
C188   C     0.12411   0.37673   0.42995   0.00000  Uiso   1.00
C189   C     0.26995   0.42066   0.48316   0.00000  Uiso   1.00
C190   C     0.76858   0.13163   0.34854   0.00000  Uiso   1.00
C191   C     0.76038   0.06830   0.31042   0.00000  Uiso   1.00
C192   C     0.68658   0.93929   0.31129   0.00000  Uiso   1.00
C193   C     0.57915   0.73006   0.29582   0.00000  Uiso   1.00
C194   C     0.75175   0.31155   0.37066   0.00000  Uiso   1.00
C195   C     0.72938   0.39947   0.35112   0.00000  Uiso   1.00
C196   C     0.64139   0.42192   0.37061   0.00000  Uiso   1.00
C197   C     0.50784   0.49205   0.38946   0.00000  Uiso   1.00
C198   C     0.72744   0.15608   0.42417   0.00000  Uiso   1.00
C199   C     0.86838   0.23142   0.43044   0.00000  Uiso   1.00
C200   C     0.93171   0.23958   0.46857   0.00000  Uiso   1.00
C201   C     0.06072   0.31335   0.46769   0.00000  Uiso   1.00
C202   C     0.70530   0.06836   0.38621   0.00000  Uiso   1.00
C203   C     0.63149   0.93941   0.38714   0.00000  Uiso   1.00
C204   C     0.62319   0.87590   0.34903   0.00000  Uiso   1.00
C205   C     0.68847   0.24828   0.40833   0.00000  Uiso   1.00
C206   C     0.60049   0.27059   0.42785   0.00000  Uiso   1.00
C207   C     0.57800   0.35853   0.40834   0.00000  Uiso   1.00
H208   H     0.89320   0.32183   0.32549   0.00000  Uiso   1.00
H209   H     0.10954   0.41741   0.36268   0.00000  Uiso   1.00
H210   H     0.80935   0.11729   0.28127   0.00000  Uiso   1.00
H211   H     0.77837   0.44842   0.32197   0.00000  Uiso   1.00
H212   H     0.32149   0.49544   0.42052   0.00000  Uiso   1.00
H213   H     0.68849   0.86262   0.24886   0.00000  Uiso   1.00
H214   H     0.62315   0.56086   0.33467   0.00000  Uiso   1.00
H215   H     0.67817   0.10682   0.45350   0.00000  Uiso   1.00
H216   H     0.88271   0.19061   0.49771   0.00000  Uiso   1.00
H217   H     0.58252   0.89048   0.41630   0.00000  Uiso   1.00
H218   H     0.55154   0.22161   0.45700   0.00000  Uiso   1.00
H219   H     0.13739   0.31135   0.53012   0.00000  Uiso   1.00
H220   H     0.50439   0.67853   0.35845   0.00000  Uiso   1.00
H221   H     0.43905   0.37678   0.44427   0.00000  Uiso   1.00
O222   O     0.36787   0.46236   0.50209   0.00000  Uiso   1.00
O223   O     0.53739   0.63214   0.27687   0.00000  Uiso   1.00
O224   O     0.45167   0.54821   0.38946   0.00000  Uiso   1.00
N225   N     0.25009   0.44064   0.44025   0.00000  Uiso   1.00
N226   N     0.65829   0.84899   0.27975   0.00000  Uiso   1.00
N227   N     0.59717   0.50176   0.35998   0.00000  Uiso   1.00
N228   N     0.15102   0.34158   0.49922   0.00000  Uiso   1.00
N229   N     0.55923   0.74993   0.33873   0.00000  Uiso   1.00
N230   N     0.49811   0.40271   0.41895   0.00000  Uiso   1.00
C231   C     0.72743   0.57137   0.68815   0.00000  Uiso   1.00
C232   C     0.70530   0.63696   0.72611   0.00000  Uiso   1.00
C233   C     0.63153   0.69214   0.72517   0.00000  Uiso   1.00
C234   C     0.62327   0.74738   0.76329   0.00000  Uiso   1.00
C235   C     0.57934   0.84928   0.81649   0.00000  Uiso   1.00
C236   C     0.86837   0.63694   0.68188   0.00000  Uiso   1.00
C237   C     0.93170   0.69208   0.64375   0.00000  Uiso   1.00
C238   C     0.06071   0.74729   0.64463   0.00000  Uiso   1.00
C239   C     0.26994   0.84909   0.62915   0.00000  Uiso   1.00
C240   C     0.68845   0.44020   0.70399   0.00000  Uiso   1.00
C241   C     0.60053   0.32991   0.68445   0.00000  Uiso   1.00
C242   C     0.57808   0.21947   0.70394   0.00000  Uiso   1.00
C243   C     0.50795   0.01580   0.72280   0.00000  Uiso   1.00
C244   C     0.84392   0.57136   0.75750   0.00000  Uiso   1.00
C245   C     0.76858   0.63696   0.76378   0.00000  Uiso   1.00
C246   C     0.76042   0.69212   0.80190   0.00000  Uiso   1.00
C247   C     0.68665   0.74737   0.80102   0.00000  Uiso   1.00
C248   C     0.93164   0.63694   0.71954   0.00000  Uiso   1.00
C249   C     0.06059   0.69207   0.72048   0.00000  Uiso   1.00
C250   C     0.12410   0.74729   0.68236   0.00000  Uiso   1.00
C251   C     0.75172   0.44019   0.74166   0.00000  Uiso   1.00
C252   C     0.72941   0.32990   0.76118   0.00000  Uiso   1.00
C253   C     0.64147   0.21947   0.74168   0.00000  Uiso   1.00
H254   H     0.67817   0.57138   0.65882   0.00000  Uiso   1.00
H255   H     0.58259   0.69213   0.69602   0.00000  Uiso   1.00
H256   H     0.88271   0.69206   0.61460   0.00000  Uiso   1.00
H257   H     0.55158   0.32995   0.65530   0.00000  Uiso   1.00
H258   H     0.50456   0.82605   0.75386   0.00000  Uiso   1.00
H259   H     0.13738   0.82587   0.58219   0.00000  Uiso   1.00
H260   H     0.43914   0.06228   0.66801   0.00000  Uiso   1.00
H261   H     0.89318   0.57135   0.78683   0.00000  Uiso   1.00
H262   H     0.80939   0.69211   0.83105   0.00000  Uiso   1.00
H263   H     0.10952   0.69204   0.74963   0.00000  Uiso   1.00
H264   H     0.77839   0.32993   0.79033   0.00000  Uiso   1.00
H265   H     0.68865   0.82603   0.86345   0.00000  Uiso   1.00
H266   H     0.32147   0.82585   0.69178   0.00000  Uiso   1.00
H267   H     0.62322   0.06227   0.77760   0.00000  Uiso   1.00
O268   O     0.53764   0.90551   0.83543   0.00000  Uiso   1.00
O269   O     0.36786   0.90526   0.61020   0.00000  Uiso   1.00
O270   O     0.45179   0.90345   0.72280   0.00000  Uiso   1.00
N271   N     0.55936   0.80945   0.77358   0.00000  Uiso   1.00
N272   N     0.15101   0.80930   0.61309   0.00000  Uiso   1.00
N273   N     0.49824   0.09541   0.69331   0.00000  Uiso   1.00
N274   N     0.65842   0.80944   0.83256   0.00000  Uiso   1.00
N275   N     0.25007   0.80929   0.67206   0.00000  Uiso   1.00
N276   N     0.59729   0.09540   0.75229   0.00000  Uiso   1.00
