data_job_04829
_audit_creation_date              2018-12-19
_audit_creation_method            'Materials Studio'
_symmetry_space_group_name_H-M    'P1'
_symmetry_Int_Tables_number       1
_symmetry_cell_setting            triclinic
loop_
_symmetry_equiv_pos_as_xyz
  x,y,z
_cell_length_a                    12.4879
_cell_length_b                    20.9240
_cell_length_c                    11.2677
_cell_angle_alpha                 90.0000
_cell_angle_beta                  76.5330
_cell_angle_gamma                 90.0000
loop_
_atom_site_label
_atom_site_type_symbol
_atom_site_fract_x
_atom_site_fract_y
_atom_site_fract_z
_atom_site_U_iso_or_equiv
_atom_site_adp_type
_atom_site_occupancy
C1     C     0.05918   0.10659   0.37082   0.00000  Uiso   1.00
C2     C     0.95635   0.12289   0.46887   0.00000  Uiso   1.00
C3     C     0.86487   0.15547   0.45019   0.00000  Uiso   1.00
C4     C     0.77924   0.16567   0.55170   0.00000  Uiso   1.00
C5     C     0.61872   0.19431   0.68632   0.00000  Uiso   1.00
C6     C     0.15578   0.13531   0.41392   0.00000  Uiso   1.00
C7     C     0.23199   0.17832   0.34902   0.00000  Uiso   1.00
C8     C     0.31426   0.19897   0.40428   0.00000  Uiso   1.00
C9     C     0.46341   0.24685   0.45355   0.00000  Uiso   1.00
C10    C     0.07269   0.03428   0.37598   0.00000  Uiso   1.00
C11    C     0.07906   0.99234   0.27916   0.00000  Uiso   1.00
C12    C     0.09140   0.92793   0.30246   0.00000  Uiso   1.00
C13    C     0.11152   0.81895   0.29282   0.00000  Uiso   1.00
C14    C     0.06979   0.06678   0.58433   0.00000  Uiso   1.00
C15    C     0.96211   0.10128   0.58485   0.00000  Uiso   1.00
C16    C     0.87660   0.11143   0.68642   0.00000  Uiso   1.00
C17    C     0.78501   0.14401   0.66788   0.00000  Uiso   1.00
C18    C     0.16154   0.11370   0.52989   0.00000  Uiso   1.00
C19    C     0.24373   0.13428   0.58525   0.00000  Uiso   1.00
C20    C     0.32004   0.17731   0.52046   0.00000  Uiso   1.00
C21    C     0.07844   0.01266   0.49195   0.00000  Uiso   1.00
C22    C     0.09079   0.94830   0.51540   0.00000  Uiso   1.00
C23    C     0.09717   0.90627   0.41865   0.00000  Uiso   1.00
H24    H     0.05470   0.12342   0.28053   0.00000  Uiso   1.00
H25    H     0.86045   0.17220   0.36042   0.00000  Uiso   1.00
H26    H     0.22752   0.19504   0.25927   0.00000  Uiso   1.00
H27    H     0.07460   0.00909   0.18943   0.00000  Uiso   1.00
H28    H     0.64763   0.21676   0.50015   0.00000  Uiso   1.00
H29    H     0.42165   0.26491   0.28686   0.00000  Uiso   1.00
H30    H     0.09920   0.87279   0.13957   0.00000  Uiso   1.00
H31    H     0.07427   0.04995   0.67463   0.00000  Uiso   1.00
H32    H     0.88108   0.09469   0.77615   0.00000  Uiso   1.00
H33    H     0.24816   0.11754   0.67500   0.00000  Uiso   1.00
H34    H     0.09524   0.93159   0.60516   0.00000  Uiso   1.00
H35    H     0.66439   0.15386   0.83758   0.00000  Uiso   1.00
H36    H     0.43841   0.20201   0.62427   0.00000  Uiso   1.00
H37    H     0.11595   0.80990   0.47700   0.00000  Uiso   1.00
O38    O     0.52859   0.21609   0.72855   0.00000  Uiso   1.00
O39    O     0.54408   0.27924   0.44870   0.00000  Uiso   1.00
O40    O     0.12102   0.76481   0.25547   0.00000  Uiso   1.00
N41    N     0.67808   0.19580   0.56563   0.00000  Uiso   1.00
N42    N     0.40173   0.24083   0.36622   0.00000  Uiso   1.00
N43    N     0.10029   0.87424   0.22851   0.00000  Uiso   1.00
N44    N     0.68709   0.16196   0.74719   0.00000  Uiso   1.00
N45    N     0.41074   0.20698   0.54778   0.00000  Uiso   1.00
N46    N     0.10930   0.84039   0.41008   0.00000  Uiso   1.00
C47    C     0.51252   0.89599   0.00164   0.00000  Uiso   1.00
C48    C     0.61571   0.87982   0.90398   0.00000  Uiso   1.00
C49    C     0.70738   0.84765   0.92322   0.00000  Uiso   1.00
C50    C     0.79332   0.83751   0.82201   0.00000  Uiso   1.00
C51    C     0.95439   0.80914   0.68804   0.00000  Uiso   1.00
C52    C     0.41639   0.86677   0.95836   0.00000  Uiso   1.00
C53    C     0.34046   0.82364   0.02333   0.00000  Uiso   1.00
C54    C     0.25860   0.80252   0.96789   0.00000  Uiso   1.00
C55    C     0.11017   0.75393   0.91838   0.00000  Uiso   1.00
C56    C     0.49835   0.96822   0.99593   0.00000  Uiso   1.00
C57    C     0.49131   0.01040   0.09251   0.00000  Uiso   1.00
C58    C     0.47844   0.07470   0.06871   0.00000  Uiso   1.00
C59    C     0.45726   0.18362   0.07754   0.00000  Uiso   1.00
C60    C     0.50216   0.93517   0.78766   0.00000  Uiso   1.00
C61    C     0.61008   0.90110   0.78775   0.00000  Uiso   1.00
C62    C     0.69591   0.89101   0.68648   0.00000  Uiso   1.00
C63    C     0.78769   0.85884   0.70557   0.00000  Uiso   1.00
C64    C     0.41076   0.88805   0.84213   0.00000  Uiso   1.00
C65    C     0.32899   0.86700   0.78659   0.00000  Uiso   1.00
C66    C     0.25296   0.82384   0.85145   0.00000  Uiso   1.00
C67    C     0.49273   0.98951   0.87971   0.00000  Uiso   1.00
C68    C     0.47985   0.05375   0.85576   0.00000  Uiso   1.00
C69    C     0.47280   0.09602   0.95227   0.00000  Uiso   1.00
H70    H     0.51689   0.87941   0.09212   0.00000  Uiso   1.00
H71    H     0.71170   0.83118   0.01318   0.00000  Uiso   1.00
H72    H     0.34483   0.80718   0.11327   0.00000  Uiso   1.00
H73    H     0.49566   0.99391   0.18243   0.00000  Uiso   1.00
H74    H     0.92517   0.78708   0.87440   0.00000  Uiso   1.00
H75    H     0.15159   0.73648   0.08547   0.00000  Uiso   1.00
H76    H     0.46965   0.13024   0.23131   0.00000  Uiso   1.00
H77    H     0.49777   0.95175   0.69717   0.00000  Uiso   1.00
H78    H     0.69153   0.90749   0.59655   0.00000  Uiso   1.00
H79    H     0.32466   0.88348   0.69665   0.00000  Uiso   1.00
H80    H     0.47550   0.07021   0.76580   0.00000  Uiso   1.00
H81    H     0.90880   0.84900   0.53624   0.00000  Uiso   1.00
H82    H     0.13521   0.79841   0.74732   0.00000  Uiso   1.00
H83    H     0.45328   0.19216   0.89315   0.00000  Uiso   1.00
O84    O     0.04478   0.78760   0.64625   0.00000  Uiso   1.00
O85    O     0.02985   0.72124   0.92318   0.00000  Uiso   1.00
O86    O     0.44715   0.23783   0.11452   0.00000  Uiso   1.00
N87    N     0.89474   0.80774   0.80863   0.00000  Uiso   1.00
N88    N     0.17149   0.76043   0.00596   0.00000  Uiso   1.00
N89    N     0.46883   0.12855   0.14231   0.00000  Uiso   1.00
N90    N     0.88593   0.84106   0.62667   0.00000  Uiso   1.00
N91    N     0.16269   0.79375   0.82400   0.00000  Uiso   1.00
N92    N     0.46002   0.16187   0.96035   0.00000  Uiso   1.00
C93    C     0.94082   0.60659   0.62918   0.00000  Uiso   1.00
C94    C     0.04365   0.62289   0.53113   0.00000  Uiso   1.00
C95    C     0.13513   0.65547   0.54981   0.00000  Uiso   1.00
C96    C     0.22076   0.66567   0.44830   0.00000  Uiso   1.00
C97    C     0.38128   0.69431   0.31368   0.00000  Uiso   1.00
C98    C     0.84422   0.63531   0.58608   0.00000  Uiso   1.00
C99    C     0.76801   0.67832   0.65098   0.00000  Uiso   1.00
C100   C     0.68574   0.69897   0.59572   0.00000  Uiso   1.00
C101   C     0.53659   0.74685   0.54645   0.00000  Uiso   1.00
C102   C     0.92731   0.53428   0.62402   0.00000  Uiso   1.00
C103   C     0.92094   0.49234   0.72084   0.00000  Uiso   1.00
C104   C     0.90860   0.42793   0.69754   0.00000  Uiso   1.00
C105   C     0.88848   0.31895   0.70718   0.00000  Uiso   1.00
C106   C     0.93021   0.56678   0.41567   0.00000  Uiso   1.00
C107   C     0.03789   0.60128   0.41515   0.00000  Uiso   1.00
C108   C     0.12340   0.61143   0.31358   0.00000  Uiso   1.00
C109   C     0.21499   0.64401   0.33212   0.00000  Uiso   1.00
C110   C     0.83846   0.61370   0.47011   0.00000  Uiso   1.00
C111   C     0.75627   0.63428   0.41475   0.00000  Uiso   1.00
C112   C     0.67996   0.67731   0.47954   0.00000  Uiso   1.00
C113   C     0.92156   0.51266   0.50805   0.00000  Uiso   1.00
C114   C     0.90921   0.44830   0.48460   0.00000  Uiso   1.00
C115   C     0.90283   0.40627   0.58135   0.00000  Uiso   1.00
H116   H     0.94530   0.62342   0.71947   0.00000  Uiso   1.00
H117   H     0.13955   0.67220   0.63958   0.00000  Uiso   1.00
H118   H     0.77248   0.69504   0.74073   0.00000  Uiso   1.00
H119   H     0.92540   0.50909   0.81057   0.00000  Uiso   1.00
H120   H     0.35237   0.71676   0.49985   0.00000  Uiso   1.00
H121   H     0.57835   0.76491   0.71314   0.00000  Uiso   1.00
H122   H     0.90080   0.37279   0.86043   0.00000  Uiso   1.00
H123   H     0.92573   0.54995   0.32537   0.00000  Uiso   1.00
H124   H     0.11892   0.59469   0.22385   0.00000  Uiso   1.00
H125   H     0.75184   0.61754   0.32500   0.00000  Uiso   1.00
H126   H     0.90476   0.43159   0.39484   0.00000  Uiso   1.00
H127   H     0.33561   0.65386   0.16242   0.00000  Uiso   1.00
H128   H     0.56159   0.70201   0.37573   0.00000  Uiso   1.00
H129   H     0.88405   0.30990   0.52300   0.00000  Uiso   1.00
O130   O     0.47141   0.71609   0.27145   0.00000  Uiso   1.00
O131   O     0.45592   0.77924   0.55130   0.00000  Uiso   1.00
O132   O     0.87898   0.26481   0.74453   0.00000  Uiso   1.00
N133   N     0.32192   0.69580   0.43437   0.00000  Uiso   1.00
N134   N     0.59827   0.74083   0.63378   0.00000  Uiso   1.00
N135   N     0.89971   0.37424   0.77149   0.00000  Uiso   1.00
N136   N     0.31291   0.66196   0.25281   0.00000  Uiso   1.00
N137   N     0.58926   0.70698   0.45222   0.00000  Uiso   1.00
N138   N     0.89070   0.34039   0.58992   0.00000  Uiso   1.00
C139   C     0.48748   0.39599   0.99836   0.00000  Uiso   1.00
C140   C     0.38429   0.37982   0.09602   0.00000  Uiso   1.00
C141   C     0.29262   0.34765   0.07678   0.00000  Uiso   1.00
C142   C     0.20668   0.33751   0.17799   0.00000  Uiso   1.00
C143   C     0.04561   0.30914   0.31196   0.00000  Uiso   1.00
C144   C     0.58361   0.36677   0.04164   0.00000  Uiso   1.00
C145   C     0.65954   0.32364   0.97667   0.00000  Uiso   1.00
C146   C     0.74140   0.30252   0.03211   0.00000  Uiso   1.00
C147   C     0.88983   0.25393   0.08162   0.00000  Uiso   1.00
C148   C     0.50165   0.46822   0.00407   0.00000  Uiso   1.00
C149   C     0.50869   0.51040   0.90749   0.00000  Uiso   1.00
C150   C     0.52156   0.57470   0.93129   0.00000  Uiso   1.00
C151   C     0.54274   0.68362   0.92246   0.00000  Uiso   1.00
C152   C     0.49784   0.43517   0.21234   0.00000  Uiso   1.00
C153   C     0.38992   0.40110   0.21225   0.00000  Uiso   1.00
C154   C     0.30409   0.39101   0.31352   0.00000  Uiso   1.00
C155   C     0.21231   0.35884   0.29443   0.00000  Uiso   1.00
C156   C     0.58924   0.38805   0.15787   0.00000  Uiso   1.00
C157   C     0.67101   0.36700   0.21341   0.00000  Uiso   1.00
C158   C     0.74704   0.32384   0.14855   0.00000  Uiso   1.00
C159   C     0.50727   0.48951   0.12029   0.00000  Uiso   1.00
C160   C     0.52015   0.55375   0.14424   0.00000  Uiso   1.00
C161   C     0.52720   0.59602   0.04773   0.00000  Uiso   1.00
H162   H     0.48311   0.37941   0.90788   0.00000  Uiso   1.00
H163   H     0.28830   0.33118   0.98682   0.00000  Uiso   1.00
H164   H     0.65517   0.30718   0.88673   0.00000  Uiso   1.00
H165   H     0.50434   0.49391   0.81757   0.00000  Uiso   1.00
H166   H     0.07483   0.28708   0.12560   0.00000  Uiso   1.00
H167   H     0.84841   0.23648   0.91453   0.00000  Uiso   1.00
H168   H     0.53035   0.63024   0.76869   0.00000  Uiso   1.00
H169   H     0.50223   0.45175   0.30283   0.00000  Uiso   1.00
H170   H     0.30847   0.40749   0.40345   0.00000  Uiso   1.00
H171   H     0.67534   0.38348   0.30335   0.00000  Uiso   1.00
H172   H     0.52450   0.57021   0.23420   0.00000  Uiso   1.00
H173   H     0.09120   0.34900   0.46376   0.00000  Uiso   1.00
H174   H     0.86479   0.29841   0.25268   0.00000  Uiso   1.00
H175   H     0.54672   0.69216   0.10685   0.00000  Uiso   1.00
O176   O     0.95522   0.28760   0.35375   0.00000  Uiso   1.00
O177   O     0.97015   0.22124   0.07682   0.00000  Uiso   1.00
O178   O     0.55285   0.73783   0.88548   0.00000  Uiso   1.00
N179   N     0.10526   0.30774   0.19137   0.00000  Uiso   1.00
N180   N     0.82851   0.26043   0.99404   0.00000  Uiso   1.00
N181   N     0.53117   0.62855   0.85769   0.00000  Uiso   1.00
N182   N     0.11407   0.34106   0.37333   0.00000  Uiso   1.00
N183   N     0.83731   0.29375   0.17600   0.00000  Uiso   1.00
N184   N     0.53998   0.66187   0.03965   0.00000  Uiso   1.00
