data_job_05725
_audit_creation_date              2018-12-19
_audit_creation_method            'Materials Studio'
_symmetry_space_group_name_H-M    'P1'
_symmetry_Int_Tables_number       1
_symmetry_cell_setting            triclinic
loop_
_symmetry_equiv_pos_as_xyz
  x,y,z
_cell_length_a                    26.7146
_cell_length_b                    9.2983
_cell_length_c                    24.3725
_cell_angle_alpha                 90.0000
_cell_angle_beta                  90.0000
_cell_angle_gamma                 90.0000
loop_
_atom_site_label
_atom_site_type_symbol
_atom_site_fract_x
_atom_site_fract_y
_atom_site_fract_z
_atom_site_U_iso_or_equiv
_atom_site_adp_type
_atom_site_occupancy
C1     C     0.96278   0.50901   0.26243   0.00000  Uiso   1.00
C2     C     0.97087   0.60668   0.31191   0.00000  Uiso   1.00
C3     C     0.01533   0.62228   0.34075   0.00000  Uiso   1.00
C4     C     0.01507   0.71696   0.38480   0.00000  Uiso   1.00
C5     C     0.03419   0.85696   0.45941   0.00000  Uiso   1.00
C6     C     0.91920   0.41063   0.27740   0.00000  Uiso   1.00
C7     C     0.92022   0.26140   0.27722   0.00000  Uiso   1.00
C8     C     0.87647   0.19105   0.29222   0.00000  Uiso   1.00
C9     C     0.81536   0.02668   0.31322   0.00000  Uiso   1.00
C10    C     0.94379   0.60592   0.21645   0.00000  Uiso   1.00
C11    C     0.96547   0.62086   0.16502   0.00000  Uiso   1.00
C12    C     0.94241   0.71490   0.12870   0.00000  Uiso   1.00
C13    C     0.91948   0.85374   0.05507   0.00000  Uiso   1.00
C14    C     0.88327   0.64941   0.28937   0.00000  Uiso   1.00
C15    C     0.92768   0.68293   0.32654   0.00000  Uiso   1.00
C16    C     0.92735   0.77761   0.37056   0.00000  Uiso   1.00
C17    C     0.97181   0.79336   0.39946   0.00000  Uiso   1.00
C18    C     0.87601   0.48688   0.29203   0.00000  Uiso   1.00
C19    C     0.83225   0.41673   0.30703   0.00000  Uiso   1.00
C20    C     0.83320   0.26744   0.30688   0.00000  Uiso   1.00
C21    C     0.90060   0.68218   0.23109   0.00000  Uiso   1.00
C22    C     0.87750   0.77620   0.19483   0.00000  Uiso   1.00
C23    C     0.89914   0.79129   0.14336   0.00000  Uiso   1.00
H24    H     0.99641   0.44963   0.25104   0.00000  Uiso   1.00
H25    H     0.04874   0.56324   0.32942   0.00000  Uiso   1.00
H26    H     0.95365   0.20242   0.26589   0.00000  Uiso   1.00
H27    H     0.99889   0.56183   0.15371   0.00000  Uiso   1.00
H28    H     0.08772   0.72278   0.42278   0.00000  Uiso   1.00
H29    H     0.88720   0.96198   0.28881   0.00000  Uiso   1.00
H30    H     0.98260   0.71986   0.05226   0.00000  Uiso   1.00
H31    H     0.84964   0.70877   0.30076   0.00000  Uiso   1.00
H32    H     0.89393   0.83661   0.38187   0.00000  Uiso   1.00
H33    H     0.79883   0.47578   0.31835   0.00000  Uiso   1.00
H34    H     0.84408   0.83519   0.20617   0.00000  Uiso   1.00
H35    H     0.96206   0.94465   0.46535   0.00000  Uiso   1.00
H36    H     0.76154   0.18384   0.33139   0.00000  Uiso   1.00
H37    H     0.85695   0.94173   0.09484   0.00000  Uiso   1.00
O38    O     0.05666   0.91310   0.49653   0.00000  Uiso   1.00
O39    O     0.79359   0.91495   0.32077   0.00000  Uiso   1.00
O40    O     0.91876   0.90928   0.01042   0.00000  Uiso   1.00
N41    N     0.05207   0.75748   0.42166   0.00000  Uiso   1.00
N42    N     0.86460   0.04617   0.29642   0.00000  Uiso   1.00
N43    N     0.95379   0.75470   0.07526   0.00000  Uiso   1.00
N44    N     0.98445   0.87687   0.44457   0.00000  Uiso   1.00
N45    N     0.79698   0.16556   0.31933   0.00000  Uiso   1.00
N46    N     0.88617   0.87408   0.09817   0.00000  Uiso   1.00
C47    C     0.53722   0.49099   0.76243   0.00000  Uiso   1.00
C48    C     0.52913   0.39332   0.81191   0.00000  Uiso   1.00
C49    C     0.48467   0.37772   0.84075   0.00000  Uiso   1.00
C50    C     0.48493   0.28304   0.88480   0.00000  Uiso   1.00
C51    C     0.46581   0.14304   0.95941   0.00000  Uiso   1.00
C52    C     0.58080   0.58937   0.77740   0.00000  Uiso   1.00
C53    C     0.57978   0.73860   0.77722   0.00000  Uiso   1.00
C54    C     0.62353   0.80895   0.79222   0.00000  Uiso   1.00
C55    C     0.68464   0.97332   0.81322   0.00000  Uiso   1.00
C56    C     0.55621   0.39408   0.71645   0.00000  Uiso   1.00
C57    C     0.53453   0.37914   0.66502   0.00000  Uiso   1.00
C58    C     0.55759   0.28510   0.62870   0.00000  Uiso   1.00
C59    C     0.58052   0.14626   0.55507   0.00000  Uiso   1.00
C60    C     0.61673   0.35059   0.78937   0.00000  Uiso   1.00
C61    C     0.57232   0.31707   0.82654   0.00000  Uiso   1.00
C62    C     0.57265   0.22239   0.87056   0.00000  Uiso   1.00
C63    C     0.52819   0.20664   0.89946   0.00000  Uiso   1.00
C64    C     0.62399   0.51312   0.79203   0.00000  Uiso   1.00
C65    C     0.66775   0.58327   0.80703   0.00000  Uiso   1.00
C66    C     0.66680   0.73256   0.80688   0.00000  Uiso   1.00
C67    C     0.59940   0.31782   0.73109   0.00000  Uiso   1.00
C68    C     0.62250   0.22380   0.69483   0.00000  Uiso   1.00
C69    C     0.60086   0.20871   0.64336   0.00000  Uiso   1.00
H70    H     0.50359   0.55037   0.75104   0.00000  Uiso   1.00
H71    H     0.45126   0.43676   0.82942   0.00000  Uiso   1.00
H72    H     0.54635   0.79758   0.76589   0.00000  Uiso   1.00
H73    H     0.50111   0.43817   0.65371   0.00000  Uiso   1.00
H74    H     0.41228   0.27722   0.92278   0.00000  Uiso   1.00
H75    H     0.61280   0.03802   0.78881   0.00000  Uiso   1.00
H76    H     0.51740   0.28014   0.55226   0.00000  Uiso   1.00
H77    H     0.65036   0.29123   0.80076   0.00000  Uiso   1.00
H78    H     0.60607   0.16339   0.88187   0.00000  Uiso   1.00
H79    H     0.70117   0.52422   0.81835   0.00000  Uiso   1.00
H80    H     0.65592   0.16481   0.70617   0.00000  Uiso   1.00
H81    H     0.53794   0.05535   0.96535   0.00000  Uiso   1.00
H82    H     0.73846   0.81616   0.83139   0.00000  Uiso   1.00
H83    H     0.64305   0.05827   0.59484   0.00000  Uiso   1.00
O84    O     0.44334   0.08690   0.99653   0.00000  Uiso   1.00
O85    O     0.70641   0.08505   0.82077   0.00000  Uiso   1.00
O86    O     0.58124   0.09072   0.51042   0.00000  Uiso   1.00
N87    N     0.44793   0.24252   0.92166   0.00000  Uiso   1.00
N88    N     0.63540   0.95383   0.79642   0.00000  Uiso   1.00
N89    N     0.54621   0.24530   0.57526   0.00000  Uiso   1.00
N90    N     0.51555   0.12313   0.94457   0.00000  Uiso   1.00
N91    N     0.70302   0.83444   0.81933   0.00000  Uiso   1.00
N92    N     0.61383   0.12592   0.59817   0.00000  Uiso   1.00
C93    C     0.03722   0.00901   0.23757   0.00000  Uiso   1.00
C94    C     0.02913   0.10668   0.18809   0.00000  Uiso   1.00
C95    C     0.98467   0.12228   0.15925   0.00000  Uiso   1.00
C96    C     0.98493   0.21696   0.11520   0.00000  Uiso   1.00
C97    C     0.96581   0.35696   0.04059   0.00000  Uiso   1.00
C98    C     0.08080   0.91063   0.22260   0.00000  Uiso   1.00
C99    C     0.07978   0.76140   0.22278   0.00000  Uiso   1.00
C100   C     0.12353   0.69105   0.20778   0.00000  Uiso   1.00
C101   C     0.18464   0.52668   0.18678   0.00000  Uiso   1.00
C102   C     0.05621   0.10592   0.28355   0.00000  Uiso   1.00
C103   C     0.03453   0.12086   0.33498   0.00000  Uiso   1.00
C104   C     0.05759   0.21490   0.37130   0.00000  Uiso   1.00
C105   C     0.08052   0.35374   0.44493   0.00000  Uiso   1.00
C106   C     0.11673   0.14941   0.21063   0.00000  Uiso   1.00
C107   C     0.07232   0.18293   0.17346   0.00000  Uiso   1.00
C108   C     0.07265   0.27761   0.12944   0.00000  Uiso   1.00
C109   C     0.02819   0.29336   0.10054   0.00000  Uiso   1.00
C110   C     0.12399   0.98688   0.20797   0.00000  Uiso   1.00
C111   C     0.16775   0.91673   0.19297   0.00000  Uiso   1.00
C112   C     0.16680   0.76744   0.19312   0.00000  Uiso   1.00
C113   C     0.09940   0.18218   0.26891   0.00000  Uiso   1.00
C114   C     0.12250   0.27620   0.30517   0.00000  Uiso   1.00
C115   C     0.10086   0.29129   0.35664   0.00000  Uiso   1.00
H116   H     0.00359   0.94963   0.24896   0.00000  Uiso   1.00
H117   H     0.95126   0.06324   0.17058   0.00000  Uiso   1.00
H118   H     0.04635   0.70242   0.23411   0.00000  Uiso   1.00
H119   H     0.00111   0.06183   0.34629   0.00000  Uiso   1.00
H120   H     0.91228   0.22278   0.07722   0.00000  Uiso   1.00
H121   H     0.11280   0.46198   0.21119   0.00000  Uiso   1.00
H122   H     0.01740   0.21986   0.44774   0.00000  Uiso   1.00
H123   H     0.15036   0.20877   0.19924   0.00000  Uiso   1.00
H124   H     0.10607   0.33661   0.11813   0.00000  Uiso   1.00
H125   H     0.20117   0.97578   0.18165   0.00000  Uiso   1.00
H126   H     0.15592   0.33519   0.29383   0.00000  Uiso   1.00
H127   H     0.03794   0.44465   0.03465   0.00000  Uiso   1.00
H128   H     0.23846   0.68384   0.16861   0.00000  Uiso   1.00
H129   H     0.14305   0.44173   0.40516   0.00000  Uiso   1.00
O130   O     0.94334   0.41310   0.00347   0.00000  Uiso   1.00
O131   O     0.20641   0.41495   0.17923   0.00000  Uiso   1.00
O132   O     0.08124   0.40928   0.48958   0.00000  Uiso   1.00
N133   N     0.94793   0.25748   0.07834   0.00000  Uiso   1.00
N134   N     0.13540   0.54617   0.20358   0.00000  Uiso   1.00
N135   N     0.04621   0.25470   0.42474   0.00000  Uiso   1.00
N136   N     0.01555   0.37687   0.05543   0.00000  Uiso   1.00
N137   N     0.20302   0.66556   0.18067   0.00000  Uiso   1.00
N138   N     0.11383   0.37408   0.40183   0.00000  Uiso   1.00
C139   C     0.46278   0.99099   0.73757   0.00000  Uiso   1.00
C140   C     0.47087   0.89332   0.68809   0.00000  Uiso   1.00
C141   C     0.51533   0.87772   0.65925   0.00000  Uiso   1.00
C142   C     0.51507   0.78304   0.61520   0.00000  Uiso   1.00
C143   C     0.53419   0.64304   0.54059   0.00000  Uiso   1.00
C144   C     0.41920   0.08937   0.72260   0.00000  Uiso   1.00
C145   C     0.42022   0.23860   0.72278   0.00000  Uiso   1.00
C146   C     0.37647   0.30895   0.70778   0.00000  Uiso   1.00
C147   C     0.31536   0.47332   0.68678   0.00000  Uiso   1.00
C148   C     0.44379   0.89408   0.78355   0.00000  Uiso   1.00
C149   C     0.46547   0.87914   0.83498   0.00000  Uiso   1.00
C150   C     0.44241   0.78510   0.87130   0.00000  Uiso   1.00
C151   C     0.41948   0.64626   0.94493   0.00000  Uiso   1.00
C152   C     0.38327   0.85059   0.71063   0.00000  Uiso   1.00
C153   C     0.42768   0.81707   0.67346   0.00000  Uiso   1.00
C154   C     0.42735   0.72239   0.62944   0.00000  Uiso   1.00
C155   C     0.47181   0.70664   0.60054   0.00000  Uiso   1.00
C156   C     0.37601   0.01312   0.70797   0.00000  Uiso   1.00
C157   C     0.33225   0.08327   0.69297   0.00000  Uiso   1.00
C158   C     0.33320   0.23256   0.69312   0.00000  Uiso   1.00
C159   C     0.40060   0.81782   0.76891   0.00000  Uiso   1.00
C160   C     0.37750   0.72380   0.80517   0.00000  Uiso   1.00
C161   C     0.39914   0.70871   0.85664   0.00000  Uiso   1.00
H162   H     0.49641   0.05037   0.74896   0.00000  Uiso   1.00
H163   H     0.54874   0.93676   0.67058   0.00000  Uiso   1.00
H164   H     0.45365   0.29758   0.73411   0.00000  Uiso   1.00
H165   H     0.49889   0.93817   0.84629   0.00000  Uiso   1.00
H166   H     0.58772   0.77722   0.57722   0.00000  Uiso   1.00
H167   H     0.38720   0.53802   0.71119   0.00000  Uiso   1.00
H168   H     0.48260   0.78014   0.94774   0.00000  Uiso   1.00
H169   H     0.34964   0.79123   0.69924   0.00000  Uiso   1.00
H170   H     0.39393   0.66339   0.61813   0.00000  Uiso   1.00
H171   H     0.29883   0.02422   0.68165   0.00000  Uiso   1.00
H172   H     0.34408   0.66481   0.79383   0.00000  Uiso   1.00
H173   H     0.46206   0.55535   0.53465   0.00000  Uiso   1.00
H174   H     0.26154   0.31616   0.66861   0.00000  Uiso   1.00
H175   H     0.35695   0.55827   0.90516   0.00000  Uiso   1.00
O176   O     0.55666   0.58690   0.50347   0.00000  Uiso   1.00
O177   O     0.29359   0.58505   0.67923   0.00000  Uiso   1.00
O178   O     0.41876   0.59072   0.98958   0.00000  Uiso   1.00
N179   N     0.55207   0.74252   0.57834   0.00000  Uiso   1.00
N180   N     0.36460   0.45383   0.70358   0.00000  Uiso   1.00
N181   N     0.45379   0.74530   0.92474   0.00000  Uiso   1.00
N182   N     0.48445   0.62313   0.55543   0.00000  Uiso   1.00
N183   N     0.29698   0.33444   0.68067   0.00000  Uiso   1.00
N184   N     0.38617   0.62592   0.90183   0.00000  Uiso   1.00
C185   C     0.03722   0.49099   0.73757   0.00000  Uiso   1.00
C186   C     0.02913   0.39332   0.68809   0.00000  Uiso   1.00
C187   C     0.98467   0.37772   0.65925   0.00000  Uiso   1.00
C188   C     0.98493   0.28304   0.61520   0.00000  Uiso   1.00
C189   C     0.96581   0.14304   0.54059   0.00000  Uiso   1.00
C190   C     0.08080   0.58937   0.72260   0.00000  Uiso   1.00
C191   C     0.07978   0.73860   0.72278   0.00000  Uiso   1.00
C192   C     0.12353   0.80895   0.70778   0.00000  Uiso   1.00
C193   C     0.18464   0.97332   0.68678   0.00000  Uiso   1.00
C194   C     0.05621   0.39408   0.78355   0.00000  Uiso   1.00
C195   C     0.03453   0.37914   0.83498   0.00000  Uiso   1.00
C196   C     0.05759   0.28510   0.87130   0.00000  Uiso   1.00
C197   C     0.08052   0.14626   0.94493   0.00000  Uiso   1.00
C198   C     0.11673   0.35059   0.71063   0.00000  Uiso   1.00
C199   C     0.07232   0.31707   0.67346   0.00000  Uiso   1.00
C200   C     0.07265   0.22239   0.62944   0.00000  Uiso   1.00
C201   C     0.02819   0.20664   0.60054   0.00000  Uiso   1.00
C202   C     0.12399   0.51312   0.70797   0.00000  Uiso   1.00
C203   C     0.16775   0.58327   0.69297   0.00000  Uiso   1.00
C204   C     0.16680   0.73256   0.69312   0.00000  Uiso   1.00
C205   C     0.09940   0.31782   0.76891   0.00000  Uiso   1.00
C206   C     0.12250   0.22380   0.80517   0.00000  Uiso   1.00
C207   C     0.10086   0.20871   0.85664   0.00000  Uiso   1.00
H208   H     0.00359   0.55037   0.74896   0.00000  Uiso   1.00
H209   H     0.95126   0.43676   0.67058   0.00000  Uiso   1.00
H210   H     0.04635   0.79758   0.73411   0.00000  Uiso   1.00
H211   H     0.00111   0.43817   0.84629   0.00000  Uiso   1.00
H212   H     0.91228   0.27722   0.57722   0.00000  Uiso   1.00
H213   H     0.11280   0.03802   0.71119   0.00000  Uiso   1.00
H214   H     0.01740   0.28014   0.94774   0.00000  Uiso   1.00
H215   H     0.15036   0.29123   0.69924   0.00000  Uiso   1.00
H216   H     0.10607   0.16339   0.61813   0.00000  Uiso   1.00
H217   H     0.20117   0.52422   0.68165   0.00000  Uiso   1.00
H218   H     0.15592   0.16481   0.79383   0.00000  Uiso   1.00
H219   H     0.03794   0.05535   0.53465   0.00000  Uiso   1.00
H220   H     0.23846   0.81616   0.66861   0.00000  Uiso   1.00
H221   H     0.14305   0.05827   0.90516   0.00000  Uiso   1.00
O222   O     0.94334   0.08690   0.50347   0.00000  Uiso   1.00
O223   O     0.20641   0.08505   0.67923   0.00000  Uiso   1.00
O224   O     0.08124   0.09072   0.98958   0.00000  Uiso   1.00
N225   N     0.94793   0.24252   0.57834   0.00000  Uiso   1.00
N226   N     0.13540   0.95383   0.70358   0.00000  Uiso   1.00
N227   N     0.04621   0.24530   0.92474   0.00000  Uiso   1.00
N228   N     0.01555   0.12313   0.55543   0.00000  Uiso   1.00
N229   N     0.20302   0.83444   0.68067   0.00000  Uiso   1.00
N230   N     0.11383   0.12592   0.90183   0.00000  Uiso   1.00
C231   C     0.46278   0.50901   0.23757   0.00000  Uiso   1.00
C232   C     0.47087   0.60668   0.18809   0.00000  Uiso   1.00
C233   C     0.51533   0.62228   0.15925   0.00000  Uiso   1.00
C234   C     0.51507   0.71696   0.11520   0.00000  Uiso   1.00
C235   C     0.53419   0.85696   0.04059   0.00000  Uiso   1.00
C236   C     0.41920   0.41063   0.22260   0.00000  Uiso   1.00
C237   C     0.42022   0.26140   0.22278   0.00000  Uiso   1.00
C238   C     0.37647   0.19105   0.20778   0.00000  Uiso   1.00
C239   C     0.31536   0.02668   0.18678   0.00000  Uiso   1.00
C240   C     0.44379   0.60592   0.28355   0.00000  Uiso   1.00
C241   C     0.46547   0.62086   0.33498   0.00000  Uiso   1.00
C242   C     0.44241   0.71490   0.37130   0.00000  Uiso   1.00
C243   C     0.41948   0.85374   0.44493   0.00000  Uiso   1.00
C244   C     0.38327   0.64941   0.21063   0.00000  Uiso   1.00
C245   C     0.42768   0.68293   0.17346   0.00000  Uiso   1.00
C246   C     0.42735   0.77761   0.12944   0.00000  Uiso   1.00
C247   C     0.47181   0.79336   0.10054   0.00000  Uiso   1.00
C248   C     0.37601   0.48688   0.20797   0.00000  Uiso   1.00
C249   C     0.33225   0.41673   0.19297   0.00000  Uiso   1.00
C250   C     0.33320   0.26744   0.19312   0.00000  Uiso   1.00
C251   C     0.40060   0.68218   0.26891   0.00000  Uiso   1.00
C252   C     0.37750   0.77620   0.30517   0.00000  Uiso   1.00
C253   C     0.39914   0.79129   0.35664   0.00000  Uiso   1.00
H254   H     0.49641   0.44963   0.24896   0.00000  Uiso   1.00
H255   H     0.54874   0.56324   0.17058   0.00000  Uiso   1.00
H256   H     0.45365   0.20242   0.23411   0.00000  Uiso   1.00
H257   H     0.49889   0.56183   0.34629   0.00000  Uiso   1.00
H258   H     0.58772   0.72278   0.07722   0.00000  Uiso   1.00
H259   H     0.38720   0.96198   0.21119   0.00000  Uiso   1.00
H260   H     0.48260   0.71986   0.44774   0.00000  Uiso   1.00
H261   H     0.34964   0.70877   0.19924   0.00000  Uiso   1.00
H262   H     0.39393   0.83661   0.11813   0.00000  Uiso   1.00
H263   H     0.29883   0.47578   0.18165   0.00000  Uiso   1.00
H264   H     0.34408   0.83519   0.29383   0.00000  Uiso   1.00
H265   H     0.46206   0.94465   0.03465   0.00000  Uiso   1.00
H266   H     0.26154   0.18384   0.16861   0.00000  Uiso   1.00
H267   H     0.35695   0.94173   0.40516   0.00000  Uiso   1.00
O268   O     0.55666   0.91310   0.00347   0.00000  Uiso   1.00
O269   O     0.29359   0.91495   0.17923   0.00000  Uiso   1.00
O270   O     0.41876   0.90928   0.48958   0.00000  Uiso   1.00
N271   N     0.55207   0.75748   0.07834   0.00000  Uiso   1.00
N272   N     0.36460   0.04617   0.20358   0.00000  Uiso   1.00
N273   N     0.45379   0.75470   0.42474   0.00000  Uiso   1.00
N274   N     0.48445   0.87687   0.05543   0.00000  Uiso   1.00
N275   N     0.29698   0.16556   0.18067   0.00000  Uiso   1.00
N276   N     0.38617   0.87408   0.40183   0.00000  Uiso   1.00
C277   C     0.96278   0.99099   0.76243   0.00000  Uiso   1.00
C278   C     0.97087   0.89332   0.81191   0.00000  Uiso   1.00
C279   C     0.01533   0.87772   0.84075   0.00000  Uiso   1.00
C280   C     0.01507   0.78304   0.88480   0.00000  Uiso   1.00
C281   C     0.03419   0.64304   0.95941   0.00000  Uiso   1.00
C282   C     0.91920   0.08937   0.77740   0.00000  Uiso   1.00
C283   C     0.92022   0.23860   0.77722   0.00000  Uiso   1.00
C284   C     0.87647   0.30895   0.79222   0.00000  Uiso   1.00
C285   C     0.81536   0.47332   0.81322   0.00000  Uiso   1.00
C286   C     0.94379   0.89408   0.71645   0.00000  Uiso   1.00
C287   C     0.96547   0.87914   0.66502   0.00000  Uiso   1.00
C288   C     0.94241   0.78510   0.62870   0.00000  Uiso   1.00
C289   C     0.91948   0.64626   0.55507   0.00000  Uiso   1.00
C290   C     0.88327   0.85059   0.78937   0.00000  Uiso   1.00
C291   C     0.92768   0.81707   0.82654   0.00000  Uiso   1.00
C292   C     0.92735   0.72239   0.87056   0.00000  Uiso   1.00
C293   C     0.97181   0.70664   0.89946   0.00000  Uiso   1.00
C294   C     0.87601   0.01312   0.79203   0.00000  Uiso   1.00
C295   C     0.83225   0.08327   0.80703   0.00000  Uiso   1.00
C296   C     0.83320   0.23256   0.80688   0.00000  Uiso   1.00
C297   C     0.90060   0.81782   0.73109   0.00000  Uiso   1.00
C298   C     0.87750   0.72380   0.69483   0.00000  Uiso   1.00
C299   C     0.89914   0.70871   0.64336   0.00000  Uiso   1.00
H300   H     0.99641   0.05037   0.75104   0.00000  Uiso   1.00
H301   H     0.04874   0.93676   0.82942   0.00000  Uiso   1.00
H302   H     0.95365   0.29758   0.76589   0.00000  Uiso   1.00
H303   H     0.99889   0.93817   0.65371   0.00000  Uiso   1.00
H304   H     0.08772   0.77722   0.92278   0.00000  Uiso   1.00
H305   H     0.88720   0.53802   0.78881   0.00000  Uiso   1.00
H306   H     0.98260   0.78014   0.55226   0.00000  Uiso   1.00
H307   H     0.84964   0.79123   0.80076   0.00000  Uiso   1.00
H308   H     0.89393   0.66339   0.88187   0.00000  Uiso   1.00
H309   H     0.79883   0.02422   0.81835   0.00000  Uiso   1.00
H310   H     0.84408   0.66481   0.70617   0.00000  Uiso   1.00
H311   H     0.96206   0.55535   0.96535   0.00000  Uiso   1.00
H312   H     0.76154   0.31616   0.83139   0.00000  Uiso   1.00
H313   H     0.85695   0.55827   0.59484   0.00000  Uiso   1.00
O314   O     0.05666   0.58690   0.99653   0.00000  Uiso   1.00
O315   O     0.79359   0.58505   0.82077   0.00000  Uiso   1.00
O316   O     0.91876   0.59072   0.51042   0.00000  Uiso   1.00
N317   N     0.05207   0.74252   0.92166   0.00000  Uiso   1.00
N318   N     0.86460   0.45383   0.79642   0.00000  Uiso   1.00
N319   N     0.95379   0.74530   0.57526   0.00000  Uiso   1.00
N320   N     0.98445   0.62313   0.94457   0.00000  Uiso   1.00
N321   N     0.79698   0.33444   0.81933   0.00000  Uiso   1.00
N322   N     0.88617   0.62592   0.59817   0.00000  Uiso   1.00
C323   C     0.53722   0.00901   0.26243   0.00000  Uiso   1.00
C324   C     0.52913   0.10668   0.31191   0.00000  Uiso   1.00
C325   C     0.48467   0.12228   0.34075   0.00000  Uiso   1.00
C326   C     0.48493   0.21696   0.38480   0.00000  Uiso   1.00
C327   C     0.46581   0.35696   0.45941   0.00000  Uiso   1.00
C328   C     0.58080   0.91063   0.27740   0.00000  Uiso   1.00
C329   C     0.57978   0.76140   0.27722   0.00000  Uiso   1.00
C330   C     0.62353   0.69105   0.29222   0.00000  Uiso   1.00
C331   C     0.68464   0.52668   0.31322   0.00000  Uiso   1.00
C332   C     0.55621   0.10592   0.21645   0.00000  Uiso   1.00
C333   C     0.53453   0.12086   0.16502   0.00000  Uiso   1.00
C334   C     0.55759   0.21490   0.12870   0.00000  Uiso   1.00
C335   C     0.58052   0.35374   0.05507   0.00000  Uiso   1.00
C336   C     0.61673   0.14941   0.28937   0.00000  Uiso   1.00
C337   C     0.57232   0.18293   0.32654   0.00000  Uiso   1.00
C338   C     0.57265   0.27761   0.37056   0.00000  Uiso   1.00
C339   C     0.52819   0.29336   0.39946   0.00000  Uiso   1.00
C340   C     0.62399   0.98688   0.29203   0.00000  Uiso   1.00
C341   C     0.66775   0.91673   0.30703   0.00000  Uiso   1.00
C342   C     0.66680   0.76744   0.30688   0.00000  Uiso   1.00
C343   C     0.59940   0.18218   0.23109   0.00000  Uiso   1.00
C344   C     0.62250   0.27620   0.19483   0.00000  Uiso   1.00
C345   C     0.60086   0.29129   0.14336   0.00000  Uiso   1.00
H346   H     0.50359   0.94963   0.25104   0.00000  Uiso   1.00
H347   H     0.45126   0.06324   0.32942   0.00000  Uiso   1.00
H348   H     0.54635   0.70242   0.26589   0.00000  Uiso   1.00
H349   H     0.50111   0.06183   0.15371   0.00000  Uiso   1.00
H350   H     0.41228   0.22278   0.42278   0.00000  Uiso   1.00
H351   H     0.61280   0.46198   0.28881   0.00000  Uiso   1.00
H352   H     0.51740   0.21986   0.05226   0.00000  Uiso   1.00
H353   H     0.65036   0.20877   0.30076   0.00000  Uiso   1.00
H354   H     0.60607   0.33661   0.38187   0.00000  Uiso   1.00
H355   H     0.70117   0.97578   0.31835   0.00000  Uiso   1.00
H356   H     0.65592   0.33519   0.20617   0.00000  Uiso   1.00
H357   H     0.53794   0.44465   0.46535   0.00000  Uiso   1.00
H358   H     0.73846   0.68384   0.33139   0.00000  Uiso   1.00
H359   H     0.64305   0.44173   0.09484   0.00000  Uiso   1.00
O360   O     0.44334   0.41310   0.49653   0.00000  Uiso   1.00
O361   O     0.70641   0.41495   0.32077   0.00000  Uiso   1.00
O362   O     0.58124   0.40928   0.01042   0.00000  Uiso   1.00
N363   N     0.44793   0.25748   0.42166   0.00000  Uiso   1.00
N364   N     0.63540   0.54617   0.29642   0.00000  Uiso   1.00
N365   N     0.54621   0.25470   0.07526   0.00000  Uiso   1.00
N366   N     0.51555   0.37687   0.44457   0.00000  Uiso   1.00
N367   N     0.70302   0.66556   0.31933   0.00000  Uiso   1.00
N368   N     0.61383   0.37408   0.09817   0.00000  Uiso   1.00
