data_job_02950
_audit_creation_date              2018-12-19
_audit_creation_method            'Materials Studio'
_symmetry_space_group_name_H-M    'P1'
_symmetry_Int_Tables_number       1
_symmetry_cell_setting            triclinic
loop_
_symmetry_equiv_pos_as_xyz
  x,y,z
_cell_length_a                    20.0483
_cell_length_b                    10.7424
_cell_length_c                    38.4597
_cell_angle_alpha                 90.0000
_cell_angle_beta                  40.0806
_cell_angle_gamma                 90.0000
loop_
_atom_site_label
_atom_site_type_symbol
_atom_site_fract_x
_atom_site_fract_y
_atom_site_fract_z
_atom_site_U_iso_or_equiv
_atom_site_adp_type
_atom_site_occupancy
C1     C     0.88928   0.49926   0.09860   0.00000  Uiso   1.00
C2     C     0.80588   0.57801   0.14932   0.00000  Uiso   1.00
C3     C     0.79868   0.70682   0.15085   0.00000  Uiso   1.00
C4     C     0.71669   0.76140   0.20125   0.00000  Uiso   1.00
C5     C     0.59819   0.89461   0.27284   0.00000  Uiso   1.00
C6     C     0.93891   0.42243   0.10769   0.00000  Uiso   1.00
C7     C     0.04357   0.42041   0.07420   0.00000  Uiso   1.00
C8     C     0.07356   0.34400   0.08956   0.00000  Uiso   1.00
C9     C     0.16161   0.23560   0.09649   0.00000  Uiso   1.00
C10    C     0.83204   0.40677   0.09829   0.00000  Uiso   1.00
C11    C     0.84684   0.39156   0.05690   0.00000  Uiso   1.00
C12    C     0.78687   0.30195   0.06434   0.00000  Uiso   1.00
C13    C     0.70897   0.16924   0.05668   0.00000  Uiso   1.00
C14    C     0.75647   0.36713   0.18542   0.00000  Uiso   1.00
C15    C     0.73375   0.50624   0.19648   0.00000  Uiso   1.00
C16    C     0.65174   0.56064   0.24690   0.00000  Uiso   1.00
C17    C     0.64441   0.68950   0.24849   0.00000  Uiso   1.00
C18    C     0.86678   0.35067   0.15484   0.00000  Uiso   1.00
C19    C     0.89662   0.27423   0.17025   0.00000  Uiso   1.00
C20    C     0.00129   0.27211   0.13680   0.00000  Uiso   1.00
C21    C     0.75990   0.33501   0.14545   0.00000  Uiso   1.00
C22    C     0.69989   0.24539   0.15295   0.00000  Uiso   1.00
C23    C     0.71460   0.23005   0.11158   0.00000  Uiso   1.00
H24    H     0.94545   0.55512   0.06189   0.00000  Uiso   1.00
H25    H     0.85453   0.76233   0.11435   0.00000  Uiso   1.00
H26    H     0.09937   0.47595   0.03771   0.00000  Uiso   1.00
H27    H     0.90267   0.44712   0.02042   0.00000  Uiso   1.00
H28    H     0.72194   0.96040   0.19330   0.00000  Uiso   1.00
H29    H     0.23821   0.35654   0.03170   0.00000  Uiso   1.00
H30    H     0.82344   0.29573   0.99523   0.00000  Uiso   1.00
H31    H     0.70030   0.31125   0.22213   0.00000  Uiso   1.00
H32    H     0.59592   0.50508   0.28338   0.00000  Uiso   1.00
H33    H     0.84078   0.21870   0.20674   0.00000  Uiso   1.00
H34    H     0.64408   0.18987   0.18945   0.00000  Uiso   1.00
H35    H     0.51205   0.75161   0.33049   0.00000  Uiso   1.00
H36    H     0.02833   0.14774   0.16889   0.00000  Uiso   1.00
H37    H     0.61355   0.08693   0.13242   0.00000  Uiso   1.00
O38    O     0.55277   0.98791   0.29930   0.00000  Uiso   1.00
O39    O     0.23011   0.19565   0.08728   0.00000  Uiso   1.00
O40    O     0.68593   0.11588   0.03943   0.00000  Uiso   1.00
N41    N     0.68685   0.88466   0.21718   0.00000  Uiso   1.00
N42    N     0.16954   0.32010   0.06610   0.00000  Uiso   1.00
N43    N     0.78178   0.26322   0.03199   0.00000  Uiso   1.00
N44    N     0.57391   0.77231   0.29100   0.00000  Uiso   1.00
N45    N     0.05660   0.20775   0.13992   0.00000  Uiso   1.00
N46    N     0.66884   0.15087   0.10581   0.00000  Uiso   1.00
C47    C     0.39172   0.99760   0.10104   0.00000  Uiso   1.00
C48    C     0.31938   0.07649   0.15219   0.00000  Uiso   1.00
C49    C     0.31967   0.20548   0.15405   0.00000  Uiso   1.00
C50    C     0.24733   0.26015   0.20482   0.00000  Uiso   1.00
C51    C     0.14569   0.39358   0.27706   0.00000  Uiso   1.00
C52    C     0.44544   0.90796   0.10452   0.00000  Uiso   1.00
C53    C     0.55171   0.89524   0.06630   0.00000  Uiso   1.00
C54    C     0.58547   0.80802   0.07694   0.00000  Uiso   1.00
C55    C     0.67954   0.67973   0.07516   0.00000  Uiso   1.00
C56    C     0.32196   0.91769   0.10594   0.00000  Uiso   1.00
C57    C     0.32443   0.91313   0.06890   0.00000  Uiso   1.00
C58    C     0.25425   0.83408   0.08074   0.00000  Uiso   1.00
C59    C     0.15660   0.72091   0.08116   0.00000  Uiso   1.00
C60    C     0.26273   0.86531   0.18791   0.00000  Uiso   1.00
C61    C     0.24932   0.00463   0.19937   0.00000  Uiso   1.00
C62    C     0.17695   0.05912   0.25015   0.00000  Uiso   1.00
C63    C     0.17713   0.18817   0.25209   0.00000  Uiso   1.00
C64    C     0.37538   0.83610   0.15170   0.00000  Uiso   1.00
C65    C     0.40899   0.74887   0.16240   0.00000  Uiso   1.00
C66    C     0.51528   0.73603   0.12421   0.00000  Uiso   1.00
C67    C     0.25189   0.84583   0.15312   0.00000  Uiso   1.00
C68    C     0.18170   0.76677   0.16501   0.00000  Uiso   1.00
C69    C     0.18406   0.76209   0.12800   0.00000  Uiso   1.00
H70    H     0.44628   0.05354   0.06431   0.00000  Uiso   1.00
H71    H     0.37391   0.26106   0.11752   0.00000  Uiso   1.00
H72    H     0.60591   0.95085   0.02978   0.00000  Uiso   1.00
H73    H     0.37866   0.96875   0.03240   0.00000  Uiso   1.00
H74    H     0.26281   0.45944   0.19733   0.00000  Uiso   1.00
H75    H     0.75199   0.80533   0.01232   0.00000  Uiso   1.00
H76    H     0.27279   0.84306   0.01782   0.00000  Uiso   1.00
H77    H     0.20818   0.80936   0.22464   0.00000  Uiso   1.00
H78    H     0.12274   0.00349   0.28666   0.00000  Uiso   1.00
H79    H     0.35475   0.69328   0.19892   0.00000  Uiso   1.00
H80    H     0.12749   0.71118   0.20153   0.00000  Uiso   1.00
H81    H     0.05895   0.25039   0.33461   0.00000  Uiso   1.00
H82    H     0.54814   0.59627   0.14960   0.00000  Uiso   1.00
H83    H     0.06893   0.63400   0.15510   0.00000  Uiso   1.00
O84    O     0.10900   0.48702   0.30388   0.00000  Uiso   1.00
O85    O     0.75079   0.62883   0.06114   0.00000  Uiso   1.00
O86    O     0.12208   0.67834   0.06836   0.00000  Uiso   1.00
N87    N     0.22654   0.38360   0.22113   0.00000  Uiso   1.00
N88    N     0.68390   0.77206   0.04816   0.00000  Uiso   1.00
N89    N     0.23591   0.80731   0.05330   0.00000  Uiso   1.00
N90    N     0.11685   0.27111   0.29500   0.00000  Uiso   1.00
N91    N     0.57420   0.65957   0.12203   0.00000  Uiso   1.00
N92    N     0.12621   0.69482   0.12716   0.00000  Uiso   1.00
C93    C     0.11072   0.99926   0.40140   0.00000  Uiso   1.00
C94    C     0.19412   0.07801   0.35068   0.00000  Uiso   1.00
C95    C     0.20132   0.20682   0.34915   0.00000  Uiso   1.00
C96    C     0.28331   0.26140   0.29875   0.00000  Uiso   1.00
C97    C     0.40181   0.39461   0.22716   0.00000  Uiso   1.00
C98    C     0.06109   0.92243   0.39231   0.00000  Uiso   1.00
C99    C     0.95643   0.92041   0.42580   0.00000  Uiso   1.00
C100   C     0.92644   0.84400   0.41044   0.00000  Uiso   1.00
C101   C     0.83839   0.73560   0.40351   0.00000  Uiso   1.00
C102   C     0.16796   0.90677   0.40171   0.00000  Uiso   1.00
C103   C     0.15316   0.89156   0.44310   0.00000  Uiso   1.00
C104   C     0.21313   0.80195   0.43566   0.00000  Uiso   1.00
C105   C     0.29103   0.66924   0.44332   0.00000  Uiso   1.00
C106   C     0.24353   0.86713   0.31458   0.00000  Uiso   1.00
C107   C     0.26625   0.00624   0.30352   0.00000  Uiso   1.00
C108   C     0.34826   0.06064   0.25310   0.00000  Uiso   1.00
C109   C     0.35559   0.18950   0.25151   0.00000  Uiso   1.00
C110   C     0.13322   0.85067   0.34516   0.00000  Uiso   1.00
C111   C     0.10338   0.77423   0.32975   0.00000  Uiso   1.00
C112   C     0.99871   0.77211   0.36320   0.00000  Uiso   1.00
C113   C     0.24010   0.83501   0.35455   0.00000  Uiso   1.00
C114   C     0.30011   0.74539   0.34705   0.00000  Uiso   1.00
C115   C     0.28540   0.73005   0.38842   0.00000  Uiso   1.00
H116   H     0.05455   0.05512   0.43811   0.00000  Uiso   1.00
H117   H     0.14547   0.26233   0.38565   0.00000  Uiso   1.00
H118   H     0.90063   0.97595   0.46229   0.00000  Uiso   1.00
H119   H     0.09733   0.94712   0.47958   0.00000  Uiso   1.00
H120   H     0.27806   0.46040   0.30670   0.00000  Uiso   1.00
H121   H     0.76179   0.85654   0.46830   0.00000  Uiso   1.00
H122   H     0.17656   0.79573   0.50477   0.00000  Uiso   1.00
H123   H     0.29970   0.81125   0.27787   0.00000  Uiso   1.00
H124   H     0.40408   0.00508   0.21662   0.00000  Uiso   1.00
H125   H     0.15922   0.71870   0.29326   0.00000  Uiso   1.00
H126   H     0.35592   0.68987   0.31055   0.00000  Uiso   1.00
H127   H     0.48795   0.25161   0.16951   0.00000  Uiso   1.00
H128   H     0.97167   0.64774   0.33111   0.00000  Uiso   1.00
H129   H     0.38645   0.58693   0.36758   0.00000  Uiso   1.00
O130   O     0.44723   0.48791   0.20070   0.00000  Uiso   1.00
O131   O     0.76989   0.69565   0.41272   0.00000  Uiso   1.00
O132   O     0.31407   0.61588   0.46057   0.00000  Uiso   1.00
N133   N     0.31315   0.38466   0.28282   0.00000  Uiso   1.00
N134   N     0.83046   0.82010   0.43390   0.00000  Uiso   1.00
N135   N     0.21822   0.76322   0.46801   0.00000  Uiso   1.00
N136   N     0.42609   0.27231   0.20900   0.00000  Uiso   1.00
N137   N     0.94340   0.70775   0.36008   0.00000  Uiso   1.00
N138   N     0.33116   0.65087   0.39419   0.00000  Uiso   1.00
C139   C     0.60828   0.49760   0.39896   0.00000  Uiso   1.00
C140   C     0.68062   0.57649   0.34781   0.00000  Uiso   1.00
C141   C     0.68033   0.70548   0.34595   0.00000  Uiso   1.00
C142   C     0.75267   0.76015   0.29518   0.00000  Uiso   1.00
C143   C     0.85431   0.89358   0.22294   0.00000  Uiso   1.00
C144   C     0.55456   0.40796   0.39548   0.00000  Uiso   1.00
C145   C     0.44829   0.39524   0.43370   0.00000  Uiso   1.00
C146   C     0.41453   0.30802   0.42306   0.00000  Uiso   1.00
C147   C     0.32046   0.17973   0.42484   0.00000  Uiso   1.00
C148   C     0.67804   0.41769   0.39406   0.00000  Uiso   1.00
C149   C     0.67557   0.41313   0.43110   0.00000  Uiso   1.00
C150   C     0.74575   0.33408   0.41926   0.00000  Uiso   1.00
C151   C     0.84340   0.22091   0.41884   0.00000  Uiso   1.00
C152   C     0.73727   0.36531   0.31209   0.00000  Uiso   1.00
C153   C     0.75068   0.50463   0.30063   0.00000  Uiso   1.00
C154   C     0.82305   0.55912   0.24985   0.00000  Uiso   1.00
C155   C     0.82287   0.68817   0.24791   0.00000  Uiso   1.00
C156   C     0.62462   0.33610   0.34830   0.00000  Uiso   1.00
C157   C     0.59101   0.24887   0.33760   0.00000  Uiso   1.00
C158   C     0.48472   0.23603   0.37579   0.00000  Uiso   1.00
C159   C     0.74811   0.34583   0.34688   0.00000  Uiso   1.00
C160   C     0.81830   0.26677   0.33499   0.00000  Uiso   1.00
C161   C     0.81594   0.26209   0.37200   0.00000  Uiso   1.00
H162   H     0.55372   0.55354   0.43569   0.00000  Uiso   1.00
H163   H     0.62609   0.76106   0.38248   0.00000  Uiso   1.00
H164   H     0.39409   0.45085   0.47022   0.00000  Uiso   1.00
H165   H     0.62134   0.46875   0.46760   0.00000  Uiso   1.00
H166   H     0.73719   0.95944   0.30267   0.00000  Uiso   1.00
H167   H     0.24801   0.30533   0.48768   0.00000  Uiso   1.00
H168   H     0.72721   0.34306   0.48218   0.00000  Uiso   1.00
H169   H     0.79182   0.30936   0.27536   0.00000  Uiso   1.00
H170   H     0.87726   0.50349   0.21334   0.00000  Uiso   1.00
H171   H     0.64525   0.19328   0.30108   0.00000  Uiso   1.00
H172   H     0.87251   0.21118   0.29847   0.00000  Uiso   1.00
H173   H     0.94105   0.75039   0.16539   0.00000  Uiso   1.00
H174   H     0.45186   0.09627   0.35040   0.00000  Uiso   1.00
H175   H     0.93107   0.13400   0.34490   0.00000  Uiso   1.00
O176   O     0.89100   0.98702   0.19612   0.00000  Uiso   1.00
O177   O     0.24921   0.12883   0.43886   0.00000  Uiso   1.00
O178   O     0.87792   0.17834   0.43164   0.00000  Uiso   1.00
N179   N     0.77346   0.88360   0.27887   0.00000  Uiso   1.00
N180   N     0.31610   0.27206   0.45184   0.00000  Uiso   1.00
N181   N     0.76409   0.30731   0.44670   0.00000  Uiso   1.00
N182   N     0.88315   0.77111   0.20500   0.00000  Uiso   1.00
N183   N     0.42580   0.15957   0.37797   0.00000  Uiso   1.00
N184   N     0.87379   0.19482   0.37284   0.00000  Uiso   1.00
C185   C     0.11072   0.50074   0.90140   0.00000  Uiso   1.00
C186   C     0.19412   0.42199   0.85068   0.00000  Uiso   1.00
C187   C     0.20132   0.29318   0.84915   0.00000  Uiso   1.00
C188   C     0.28331   0.23860   0.79875   0.00000  Uiso   1.00
C189   C     0.40181   0.10539   0.72716   0.00000  Uiso   1.00
C190   C     0.06109   0.57757   0.89231   0.00000  Uiso   1.00
C191   C     0.95643   0.57959   0.92580   0.00000  Uiso   1.00
C192   C     0.92644   0.65600   0.91044   0.00000  Uiso   1.00
C193   C     0.83839   0.76440   0.90351   0.00000  Uiso   1.00
C194   C     0.16796   0.59323   0.90171   0.00000  Uiso   1.00
C195   C     0.15316   0.60844   0.94310   0.00000  Uiso   1.00
C196   C     0.21313   0.69805   0.93566   0.00000  Uiso   1.00
C197   C     0.29103   0.83076   0.94332   0.00000  Uiso   1.00
C198   C     0.24353   0.63287   0.81458   0.00000  Uiso   1.00
C199   C     0.26625   0.49376   0.80352   0.00000  Uiso   1.00
C200   C     0.34826   0.43936   0.75310   0.00000  Uiso   1.00
C201   C     0.35559   0.31050   0.75151   0.00000  Uiso   1.00
C202   C     0.13322   0.64933   0.84516   0.00000  Uiso   1.00
C203   C     0.10338   0.72577   0.82975   0.00000  Uiso   1.00
C204   C     0.99871   0.72789   0.86320   0.00000  Uiso   1.00
C205   C     0.24010   0.66499   0.85455   0.00000  Uiso   1.00
C206   C     0.30011   0.75461   0.84705   0.00000  Uiso   1.00
C207   C     0.28540   0.76995   0.88842   0.00000  Uiso   1.00
H208   H     0.05455   0.44488   0.93811   0.00000  Uiso   1.00
H209   H     0.14547   0.23767   0.88565   0.00000  Uiso   1.00
H210   H     0.90063   0.52405   0.96229   0.00000  Uiso   1.00
H211   H     0.09733   0.55288   0.97958   0.00000  Uiso   1.00
H212   H     0.27806   0.03960   0.80670   0.00000  Uiso   1.00
H213   H     0.76179   0.64346   0.96830   0.00000  Uiso   1.00
H214   H     0.17656   0.70427   0.00477   0.00000  Uiso   1.00
H215   H     0.29970   0.68875   0.77787   0.00000  Uiso   1.00
H216   H     0.40408   0.49492   0.71662   0.00000  Uiso   1.00
H217   H     0.15922   0.78130   0.79326   0.00000  Uiso   1.00
H218   H     0.35592   0.81013   0.81055   0.00000  Uiso   1.00
H219   H     0.48795   0.24839   0.66951   0.00000  Uiso   1.00
H220   H     0.97167   0.85226   0.83111   0.00000  Uiso   1.00
H221   H     0.38645   0.91307   0.86758   0.00000  Uiso   1.00
O222   O     0.44723   0.01209   0.70070   0.00000  Uiso   1.00
O223   O     0.76989   0.80435   0.91272   0.00000  Uiso   1.00
O224   O     0.31407   0.88412   0.96057   0.00000  Uiso   1.00
N225   N     0.31315   0.11534   0.78282   0.00000  Uiso   1.00
N226   N     0.83046   0.67990   0.93390   0.00000  Uiso   1.00
N227   N     0.21822   0.73678   0.96801   0.00000  Uiso   1.00
N228   N     0.42609   0.22769   0.70900   0.00000  Uiso   1.00
N229   N     0.94340   0.79225   0.86008   0.00000  Uiso   1.00
N230   N     0.33116   0.84913   0.89419   0.00000  Uiso   1.00
C231   C     0.60828   0.00240   0.89896   0.00000  Uiso   1.00
C232   C     0.68062   0.92351   0.84781   0.00000  Uiso   1.00
C233   C     0.68033   0.79452   0.84595   0.00000  Uiso   1.00
C234   C     0.75267   0.73985   0.79518   0.00000  Uiso   1.00
C235   C     0.85431   0.60642   0.72294   0.00000  Uiso   1.00
C236   C     0.55456   0.09204   0.89548   0.00000  Uiso   1.00
C237   C     0.44829   0.10476   0.93370   0.00000  Uiso   1.00
C238   C     0.41453   0.19198   0.92306   0.00000  Uiso   1.00
C239   C     0.32046   0.32027   0.92484   0.00000  Uiso   1.00
C240   C     0.67804   0.08231   0.89406   0.00000  Uiso   1.00
C241   C     0.67557   0.08687   0.93110   0.00000  Uiso   1.00
C242   C     0.74575   0.16592   0.91926   0.00000  Uiso   1.00
C243   C     0.84340   0.27909   0.91884   0.00000  Uiso   1.00
C244   C     0.73727   0.13469   0.81209   0.00000  Uiso   1.00
C245   C     0.75068   0.99537   0.80063   0.00000  Uiso   1.00
C246   C     0.82305   0.94088   0.74985   0.00000  Uiso   1.00
C247   C     0.82287   0.81183   0.74791   0.00000  Uiso   1.00
C248   C     0.62462   0.16390   0.84830   0.00000  Uiso   1.00
C249   C     0.59101   0.25113   0.83760   0.00000  Uiso   1.00
C250   C     0.48472   0.26397   0.87579   0.00000  Uiso   1.00
C251   C     0.74811   0.15417   0.84688   0.00000  Uiso   1.00
C252   C     0.81830   0.23323   0.83499   0.00000  Uiso   1.00
C253   C     0.81594   0.23791   0.87200   0.00000  Uiso   1.00
H254   H     0.55372   0.94646   0.93569   0.00000  Uiso   1.00
H255   H     0.62609   0.73894   0.88248   0.00000  Uiso   1.00
H256   H     0.39409   0.04915   0.97022   0.00000  Uiso   1.00
H257   H     0.62134   0.03125   0.96760   0.00000  Uiso   1.00
H258   H     0.73719   0.54056   0.80267   0.00000  Uiso   1.00
H259   H     0.24801   0.19467   0.98768   0.00000  Uiso   1.00
H260   H     0.72721   0.15694   0.98218   0.00000  Uiso   1.00
H261   H     0.79182   0.19064   0.77536   0.00000  Uiso   1.00
H262   H     0.87726   0.99651   0.71334   0.00000  Uiso   1.00
H263   H     0.64525   0.30672   0.80108   0.00000  Uiso   1.00
H264   H     0.87251   0.28882   0.79847   0.00000  Uiso   1.00
H265   H     0.94105   0.74961   0.66539   0.00000  Uiso   1.00
H266   H     0.45186   0.40373   0.85040   0.00000  Uiso   1.00
H267   H     0.93107   0.36600   0.84490   0.00000  Uiso   1.00
O268   O     0.89100   0.51298   0.69612   0.00000  Uiso   1.00
O269   O     0.24921   0.37117   0.93886   0.00000  Uiso   1.00
O270   O     0.87792   0.32166   0.93164   0.00000  Uiso   1.00
N271   N     0.77346   0.61640   0.77887   0.00000  Uiso   1.00
N272   N     0.31610   0.22794   0.95184   0.00000  Uiso   1.00
N273   N     0.76409   0.19269   0.94670   0.00000  Uiso   1.00
N274   N     0.88315   0.72889   0.70500   0.00000  Uiso   1.00
N275   N     0.42580   0.34043   0.87797   0.00000  Uiso   1.00
N276   N     0.87379   0.30518   0.87284   0.00000  Uiso   1.00
C277   C     0.88928   0.00074   0.59860   0.00000  Uiso   1.00
C278   C     0.80588   0.92199   0.64932   0.00000  Uiso   1.00
C279   C     0.79868   0.79318   0.65085   0.00000  Uiso   1.00
C280   C     0.71669   0.73860   0.70125   0.00000  Uiso   1.00
C281   C     0.59819   0.60539   0.77284   0.00000  Uiso   1.00
C282   C     0.93891   0.07757   0.60769   0.00000  Uiso   1.00
C283   C     0.04357   0.07959   0.57420   0.00000  Uiso   1.00
C284   C     0.07356   0.15600   0.58956   0.00000  Uiso   1.00
C285   C     0.16161   0.26440   0.59649   0.00000  Uiso   1.00
C286   C     0.83204   0.09323   0.59829   0.00000  Uiso   1.00
C287   C     0.84684   0.10844   0.55690   0.00000  Uiso   1.00
C288   C     0.78687   0.19805   0.56434   0.00000  Uiso   1.00
C289   C     0.70897   0.33076   0.55668   0.00000  Uiso   1.00
C290   C     0.75647   0.13287   0.68542   0.00000  Uiso   1.00
C291   C     0.73375   0.99376   0.69648   0.00000  Uiso   1.00
C292   C     0.65174   0.93936   0.74690   0.00000  Uiso   1.00
C293   C     0.64441   0.81050   0.74849   0.00000  Uiso   1.00
C294   C     0.86678   0.14933   0.65484   0.00000  Uiso   1.00
C295   C     0.89662   0.22577   0.67025   0.00000  Uiso   1.00
C296   C     0.00129   0.22789   0.63680   0.00000  Uiso   1.00
C297   C     0.75990   0.16499   0.64545   0.00000  Uiso   1.00
C298   C     0.69989   0.25461   0.65295   0.00000  Uiso   1.00
C299   C     0.71460   0.26995   0.61158   0.00000  Uiso   1.00
H300   H     0.94545   0.94488   0.56189   0.00000  Uiso   1.00
H301   H     0.85453   0.73767   0.61435   0.00000  Uiso   1.00
H302   H     0.09937   0.02405   0.53771   0.00000  Uiso   1.00
H303   H     0.90267   0.05288   0.52042   0.00000  Uiso   1.00
H304   H     0.72194   0.53960   0.69330   0.00000  Uiso   1.00
H305   H     0.23821   0.14346   0.53170   0.00000  Uiso   1.00
H306   H     0.82344   0.20427   0.49523   0.00000  Uiso   1.00
H307   H     0.70030   0.18875   0.72213   0.00000  Uiso   1.00
H308   H     0.59592   0.99492   0.78338   0.00000  Uiso   1.00
H309   H     0.84078   0.28130   0.70674   0.00000  Uiso   1.00
H310   H     0.64408   0.31013   0.68945   0.00000  Uiso   1.00
H311   H     0.51205   0.74839   0.83049   0.00000  Uiso   1.00
H312   H     0.02833   0.35226   0.66889   0.00000  Uiso   1.00
H313   H     0.61355   0.41307   0.63242   0.00000  Uiso   1.00
O314   O     0.55277   0.51209   0.79930   0.00000  Uiso   1.00
O315   O     0.23011   0.30435   0.58728   0.00000  Uiso   1.00
O316   O     0.68593   0.38412   0.53943   0.00000  Uiso   1.00
N317   N     0.68685   0.61534   0.71718   0.00000  Uiso   1.00
N318   N     0.16954   0.17990   0.56610   0.00000  Uiso   1.00
N319   N     0.78178   0.23678   0.53199   0.00000  Uiso   1.00
N320   N     0.57391   0.72769   0.79100   0.00000  Uiso   1.00
N321   N     0.05660   0.29225   0.63992   0.00000  Uiso   1.00
N322   N     0.66884   0.34913   0.60581   0.00000  Uiso   1.00
C323   C     0.39172   0.50240   0.60104   0.00000  Uiso   1.00
C324   C     0.31938   0.42351   0.65219   0.00000  Uiso   1.00
C325   C     0.31967   0.29452   0.65405   0.00000  Uiso   1.00
C326   C     0.24733   0.23985   0.70482   0.00000  Uiso   1.00
C327   C     0.14569   0.10642   0.77706   0.00000  Uiso   1.00
C328   C     0.44544   0.59204   0.60452   0.00000  Uiso   1.00
C329   C     0.55171   0.60476   0.56630   0.00000  Uiso   1.00
C330   C     0.58547   0.69198   0.57694   0.00000  Uiso   1.00
C331   C     0.67954   0.82027   0.57516   0.00000  Uiso   1.00
C332   C     0.32196   0.58231   0.60594   0.00000  Uiso   1.00
C333   C     0.32443   0.58687   0.56890   0.00000  Uiso   1.00
C334   C     0.25425   0.66592   0.58074   0.00000  Uiso   1.00
C335   C     0.15660   0.77909   0.58116   0.00000  Uiso   1.00
C336   C     0.26273   0.63469   0.68791   0.00000  Uiso   1.00
C337   C     0.24932   0.49537   0.69937   0.00000  Uiso   1.00
C338   C     0.17695   0.44088   0.75015   0.00000  Uiso   1.00
C339   C     0.17713   0.31183   0.75209   0.00000  Uiso   1.00
C340   C     0.37538   0.66390   0.65170   0.00000  Uiso   1.00
C341   C     0.40899   0.75113   0.66240   0.00000  Uiso   1.00
C342   C     0.51528   0.76397   0.62421   0.00000  Uiso   1.00
C343   C     0.25189   0.65417   0.65312   0.00000  Uiso   1.00
C344   C     0.18170   0.73323   0.66501   0.00000  Uiso   1.00
C345   C     0.18406   0.73791   0.62800   0.00000  Uiso   1.00
H346   H     0.44628   0.44646   0.56431   0.00000  Uiso   1.00
H347   H     0.37391   0.23894   0.61752   0.00000  Uiso   1.00
H348   H     0.60591   0.54915   0.52978   0.00000  Uiso   1.00
H349   H     0.37866   0.53125   0.53240   0.00000  Uiso   1.00
H350   H     0.26281   0.04056   0.69733   0.00000  Uiso   1.00
H351   H     0.75199   0.69467   0.51232   0.00000  Uiso   1.00
H352   H     0.27279   0.65694   0.51782   0.00000  Uiso   1.00
H353   H     0.20818   0.69064   0.72464   0.00000  Uiso   1.00
H354   H     0.12274   0.49651   0.78666   0.00000  Uiso   1.00
H355   H     0.35475   0.80672   0.69892   0.00000  Uiso   1.00
H356   H     0.12749   0.78882   0.70153   0.00000  Uiso   1.00
H357   H     0.05895   0.24961   0.83461   0.00000  Uiso   1.00
H358   H     0.54814   0.90373   0.64960   0.00000  Uiso   1.00
H359   H     0.06893   0.86600   0.65510   0.00000  Uiso   1.00
O360   O     0.10900   0.01298   0.80388   0.00000  Uiso   1.00
O361   O     0.75079   0.87117   0.56114   0.00000  Uiso   1.00
O362   O     0.12208   0.82166   0.56836   0.00000  Uiso   1.00
N363   N     0.22654   0.11640   0.72113   0.00000  Uiso   1.00
N364   N     0.68390   0.72794   0.54816   0.00000  Uiso   1.00
N365   N     0.23591   0.69269   0.55330   0.00000  Uiso   1.00
N366   N     0.11685   0.22889   0.79500   0.00000  Uiso   1.00
N367   N     0.57420   0.84043   0.62203   0.00000  Uiso   1.00
N368   N     0.12621   0.80518   0.62716   0.00000  Uiso   1.00
