data_job_03591
_audit_creation_date              2018-12-19
_audit_creation_method            'Materials Studio'
_symmetry_space_group_name_H-M    'P1'
_symmetry_Int_Tables_number       1
_symmetry_cell_setting            triclinic
loop_
_symmetry_equiv_pos_as_xyz
  x,y,z
_cell_length_a                    26.1695
_cell_length_b                    12.3117
_cell_length_c                    24.8011
_cell_angle_alpha                 90.0000
_cell_angle_beta                  158.1938
_cell_angle_gamma                 90.0000
loop_
_atom_site_label
_atom_site_type_symbol
_atom_site_fract_x
_atom_site_fract_y
_atom_site_fract_z
_atom_site_U_iso_or_equiv
_atom_site_adp_type
_atom_site_occupancy
C1     C     0.38256   0.37003   0.83712   0.00000  Uiso   1.00
C2     C     0.30001   0.38120   0.70426   0.00000  Uiso   1.00
C3     C     0.27952   0.47673   0.65560   0.00000  Uiso   1.00
C4     C     0.20083   0.47000   0.53190   0.00000  Uiso   1.00
C5     C     0.08112   0.50238   0.33655   0.00000  Uiso   1.00
C6     C     0.28493   0.32014   0.78273   0.00000  Uiso   1.00
C7     C     0.25178   0.36433   0.80008   0.00000  Uiso   1.00
C8     C     0.16040   0.30618   0.74246   0.00000  Uiso   1.00
C9     C     0.01736   0.24373   0.66904   0.00000  Uiso   1.00
C10    C     0.49193   0.28412   0.93313   0.00000  Uiso   1.00
C11    C     0.63284   0.29802   0.07694   0.00000  Uiso   1.00
C12    C     0.71575   0.20953   0.14596   0.00000  Uiso   1.00
C13    C     0.89412   0.09116   0.30606   0.00000  Uiso   1.00
C14    C     0.27923   0.18818   0.70398   0.00000  Uiso   1.00
C15    C     0.24388   0.28243   0.63194   0.00000  Uiso   1.00
C16    C     0.16520   0.27554   0.50829   0.00000  Uiso   1.00
C17    C     0.14460   0.37105   0.45946   0.00000  Uiso   1.00
C18    C     0.22880   0.22137   0.71042   0.00000  Uiso   1.00
C19    C     0.13746   0.16314   0.65277   0.00000  Uiso   1.00
C20    C     0.10417   0.20723   0.67001   0.00000  Uiso   1.00
C21    C     0.43581   0.18535   0.86081   0.00000  Uiso   1.00
C22    C     0.51851   0.09682   0.92963   0.00000  Uiso   1.00
C23    C     0.65952   0.11058   0.07352   0.00000  Uiso   1.00
H24    H     0.42626   0.44692   0.89342   0.00000  Uiso   1.00
H25    H     0.32297   0.55316   0.71158   0.00000  Uiso   1.00
H26    H     0.29524   0.44076   0.85605   0.00000  Uiso   1.00
H27    H     0.67624   0.37446   0.13287   0.00000  Uiso   1.00
H28    H     0.18366   0.62739   0.47806   0.00000  Uiso   1.00
H29    H     0.12523   0.39038   0.78273   0.00000  Uiso   1.00
H30    H     0.92865   0.25057   0.36645   0.00000  Uiso   1.00
H31    H     0.23553   0.11128   0.64768   0.00000  Uiso   1.00
H32    H     0.12178   0.19910   0.45235   0.00000  Uiso   1.00
H33    H     0.09405   0.08670   0.59682   0.00000  Uiso   1.00
H34    H     0.47505   0.02040   0.87364   0.00000  Uiso   1.00
H35    H     0.02036   0.34002   0.26765   0.00000  Uiso   1.00
H36    H     0.96194   0.10301   0.57233   0.00000  Uiso   1.00
H37    H     0.76535   0.96320   0.15605   0.00000  Uiso   1.00
O38    O     0.03058   0.54754   0.24877   0.00000  Uiso   1.00
O39    O     0.95395   0.23658   0.64851   0.00000  Uiso   1.00
O40    O     0.00800   0.05315   0.41433   0.00000  Uiso   1.00
N41    N     0.16086   0.54770   0.45536   0.00000  Uiso   1.00
N42    N     0.10622   0.32612   0.74019   0.00000  Uiso   1.00
N43    N     0.85734   0.19540   0.28593   0.00000  Uiso   1.00
N44    N     0.07299   0.39307   0.34215   0.00000  Uiso   1.00
N45    N     0.01835   0.17149   0.62697   0.00000  Uiso   1.00
N46    N     0.76947   0.04077   0.17272   0.00000  Uiso   1.00
C47    C     0.61744   0.87003   0.66288   0.00000  Uiso   1.00
C48    C     0.69999   0.88120   0.79574   0.00000  Uiso   1.00
C49    C     0.72048   0.97673   0.84440   0.00000  Uiso   1.00
C50    C     0.79917   0.97000   0.96810   0.00000  Uiso   1.00
C51    C     0.91888   0.00238   0.16345   0.00000  Uiso   1.00
C52    C     0.71507   0.82014   0.71727   0.00000  Uiso   1.00
C53    C     0.74822   0.86433   0.69992   0.00000  Uiso   1.00
C54    C     0.83960   0.80618   0.75754   0.00000  Uiso   1.00
C55    C     0.98264   0.74373   0.83096   0.00000  Uiso   1.00
C56    C     0.50807   0.78412   0.56687   0.00000  Uiso   1.00
C57    C     0.36716   0.79802   0.42306   0.00000  Uiso   1.00
C58    C     0.28425   0.70953   0.35404   0.00000  Uiso   1.00
C59    C     0.10588   0.59116   0.19394   0.00000  Uiso   1.00
C60    C     0.72077   0.68818   0.79602   0.00000  Uiso   1.00
C61    C     0.75612   0.78243   0.86806   0.00000  Uiso   1.00
C62    C     0.83480   0.77554   0.99171   0.00000  Uiso   1.00
C63    C     0.85540   0.87105   0.04054   0.00000  Uiso   1.00
C64    C     0.77120   0.72137   0.78958   0.00000  Uiso   1.00
C65    C     0.86254   0.66314   0.84723   0.00000  Uiso   1.00
C66    C     0.89583   0.70723   0.82999   0.00000  Uiso   1.00
C67    C     0.56419   0.68535   0.63919   0.00000  Uiso   1.00
C68    C     0.48149   0.59682   0.57037   0.00000  Uiso   1.00
C69    C     0.34048   0.61058   0.42648   0.00000  Uiso   1.00
H70    H     0.57374   0.94692   0.60658   0.00000  Uiso   1.00
H71    H     0.67703   0.05316   0.78842   0.00000  Uiso   1.00
H72    H     0.70476   0.94076   0.64395   0.00000  Uiso   1.00
H73    H     0.32376   0.87446   0.36713   0.00000  Uiso   1.00
H74    H     0.81634   0.12739   0.02194   0.00000  Uiso   1.00
H75    H     0.87477   0.89038   0.71727   0.00000  Uiso   1.00
H76    H     0.07135   0.75057   0.13355   0.00000  Uiso   1.00
H77    H     0.76447   0.61128   0.85232   0.00000  Uiso   1.00
H78    H     0.87822   0.69910   0.04765   0.00000  Uiso   1.00
H79    H     0.90595   0.58670   0.90318   0.00000  Uiso   1.00
H80    H     0.52495   0.52040   0.62636   0.00000  Uiso   1.00
H81    H     0.97964   0.84002   0.23235   0.00000  Uiso   1.00
H82    H     0.03806   0.60301   0.92767   0.00000  Uiso   1.00
H83    H     0.23465   0.46320   0.34395   0.00000  Uiso   1.00
O84    O     0.96942   0.04754   0.25123   0.00000  Uiso   1.00
O85    O     0.04605   0.73658   0.85149   0.00000  Uiso   1.00
O86    O     0.99200   0.55315   0.08567   0.00000  Uiso   1.00
N87    N     0.83914   0.04770   0.04464   0.00000  Uiso   1.00
N88    N     0.89378   0.82612   0.75981   0.00000  Uiso   1.00
N89    N     0.14266   0.69540   0.21407   0.00000  Uiso   1.00
N90    N     0.92701   0.89307   0.15785   0.00000  Uiso   1.00
N91    N     0.98165   0.67149   0.87303   0.00000  Uiso   1.00
N92    N     0.23053   0.54077   0.32728   0.00000  Uiso   1.00
C93    C     0.61744   0.62997   0.16288   0.00000  Uiso   1.00
C94    C     0.69999   0.61880   0.29574   0.00000  Uiso   1.00
C95    C     0.72048   0.52327   0.34440   0.00000  Uiso   1.00
C96    C     0.79917   0.53000   0.46810   0.00000  Uiso   1.00
C97    C     0.91888   0.49762   0.66345   0.00000  Uiso   1.00
C98    C     0.71507   0.67986   0.21727   0.00000  Uiso   1.00
C99    C     0.74822   0.63567   0.19992   0.00000  Uiso   1.00
C100   C     0.83960   0.69382   0.25754   0.00000  Uiso   1.00
C101   C     0.98264   0.75627   0.33096   0.00000  Uiso   1.00
C102   C     0.50807   0.71588   0.06687   0.00000  Uiso   1.00
C103   C     0.36716   0.70198   0.92306   0.00000  Uiso   1.00
C104   C     0.28425   0.79047   0.85404   0.00000  Uiso   1.00
C105   C     0.10588   0.90884   0.69394   0.00000  Uiso   1.00
C106   C     0.72077   0.81182   0.29602   0.00000  Uiso   1.00
C107   C     0.75612   0.71757   0.36806   0.00000  Uiso   1.00
C108   C     0.83480   0.72446   0.49171   0.00000  Uiso   1.00
C109   C     0.85540   0.62895   0.54054   0.00000  Uiso   1.00
C110   C     0.77120   0.77863   0.28958   0.00000  Uiso   1.00
C111   C     0.86254   0.83686   0.34723   0.00000  Uiso   1.00
C112   C     0.89583   0.79277   0.32999   0.00000  Uiso   1.00
C113   C     0.56419   0.81465   0.13919   0.00000  Uiso   1.00
C114   C     0.48149   0.90318   0.07037   0.00000  Uiso   1.00
C115   C     0.34048   0.88942   0.92648   0.00000  Uiso   1.00
H116   H     0.57374   0.55308   0.10658   0.00000  Uiso   1.00
H117   H     0.67703   0.44684   0.28842   0.00000  Uiso   1.00
H118   H     0.70476   0.55924   0.14395   0.00000  Uiso   1.00
H119   H     0.32376   0.62554   0.86713   0.00000  Uiso   1.00
H120   H     0.81634   0.37261   0.52194   0.00000  Uiso   1.00
H121   H     0.87477   0.60962   0.21727   0.00000  Uiso   1.00
H122   H     0.07135   0.74943   0.63355   0.00000  Uiso   1.00
H123   H     0.76447   0.88872   0.35232   0.00000  Uiso   1.00
H124   H     0.87822   0.80090   0.54765   0.00000  Uiso   1.00
H125   H     0.90595   0.91330   0.40318   0.00000  Uiso   1.00
H126   H     0.52495   0.97960   0.12636   0.00000  Uiso   1.00
H127   H     0.97964   0.65998   0.73235   0.00000  Uiso   1.00
H128   H     0.03806   0.89699   0.42767   0.00000  Uiso   1.00
H129   H     0.23465   0.03680   0.84395   0.00000  Uiso   1.00
O130   O     0.96942   0.45246   0.75123   0.00000  Uiso   1.00
O131   O     0.04605   0.76342   0.35149   0.00000  Uiso   1.00
O132   O     0.99200   0.94685   0.58567   0.00000  Uiso   1.00
N133   N     0.83914   0.45230   0.54464   0.00000  Uiso   1.00
N134   N     0.89378   0.67388   0.25981   0.00000  Uiso   1.00
N135   N     0.14266   0.80460   0.71407   0.00000  Uiso   1.00
N136   N     0.92701   0.60693   0.65785   0.00000  Uiso   1.00
N137   N     0.98165   0.82851   0.37303   0.00000  Uiso   1.00
N138   N     0.23053   0.95923   0.82728   0.00000  Uiso   1.00
C139   C     0.38256   0.12997   0.33712   0.00000  Uiso   1.00
C140   C     0.30001   0.11880   0.20426   0.00000  Uiso   1.00
C141   C     0.27952   0.02327   0.15560   0.00000  Uiso   1.00
C142   C     0.20083   0.03000   0.03190   0.00000  Uiso   1.00
C143   C     0.08112   0.99762   0.83655   0.00000  Uiso   1.00
C144   C     0.28493   0.17986   0.28273   0.00000  Uiso   1.00
C145   C     0.25178   0.13567   0.30008   0.00000  Uiso   1.00
C146   C     0.16040   0.19382   0.24246   0.00000  Uiso   1.00
C147   C     0.01736   0.25627   0.16904   0.00000  Uiso   1.00
C148   C     0.49193   0.21588   0.43313   0.00000  Uiso   1.00
C149   C     0.63284   0.20198   0.57694   0.00000  Uiso   1.00
C150   C     0.71575   0.29047   0.64596   0.00000  Uiso   1.00
C151   C     0.89412   0.40884   0.80606   0.00000  Uiso   1.00
C152   C     0.27923   0.31182   0.20398   0.00000  Uiso   1.00
C153   C     0.24388   0.21757   0.13194   0.00000  Uiso   1.00
C154   C     0.16520   0.22446   0.00829   0.00000  Uiso   1.00
C155   C     0.14460   0.12895   0.95946   0.00000  Uiso   1.00
C156   C     0.22880   0.27863   0.21042   0.00000  Uiso   1.00
C157   C     0.13746   0.33686   0.15277   0.00000  Uiso   1.00
C158   C     0.10417   0.29277   0.17001   0.00000  Uiso   1.00
C159   C     0.43581   0.31465   0.36081   0.00000  Uiso   1.00
C160   C     0.51851   0.40318   0.42963   0.00000  Uiso   1.00
C161   C     0.65952   0.38942   0.57352   0.00000  Uiso   1.00
H162   H     0.42626   0.05308   0.39342   0.00000  Uiso   1.00
H163   H     0.32297   0.94684   0.21158   0.00000  Uiso   1.00
H164   H     0.29524   0.05924   0.35605   0.00000  Uiso   1.00
H165   H     0.67624   0.12554   0.63287   0.00000  Uiso   1.00
H166   H     0.18366   0.87261   0.97806   0.00000  Uiso   1.00
H167   H     0.12523   0.10962   0.28273   0.00000  Uiso   1.00
H168   H     0.92865   0.24943   0.86645   0.00000  Uiso   1.00
H169   H     0.23553   0.38872   0.14768   0.00000  Uiso   1.00
H170   H     0.12178   0.30090   0.95235   0.00000  Uiso   1.00
H171   H     0.09405   0.41330   0.09682   0.00000  Uiso   1.00
H172   H     0.47505   0.47960   0.37364   0.00000  Uiso   1.00
H173   H     0.02036   0.15998   0.76765   0.00000  Uiso   1.00
H174   H     0.96194   0.39699   0.07233   0.00000  Uiso   1.00
H175   H     0.76535   0.53680   0.65605   0.00000  Uiso   1.00
O176   O     0.03058   0.95246   0.74877   0.00000  Uiso   1.00
O177   O     0.95395   0.26342   0.14851   0.00000  Uiso   1.00
O178   O     0.00800   0.44685   0.91433   0.00000  Uiso   1.00
N179   N     0.16086   0.95230   0.95536   0.00000  Uiso   1.00
N180   N     0.10622   0.17388   0.24019   0.00000  Uiso   1.00
N181   N     0.85734   0.30460   0.78593   0.00000  Uiso   1.00
N182   N     0.07299   0.10693   0.84215   0.00000  Uiso   1.00
N183   N     0.01835   0.32851   0.12697   0.00000  Uiso   1.00
N184   N     0.76947   0.45923   0.67272   0.00000  Uiso   1.00
