data_job_04545
_audit_creation_date              2018-12-19
_audit_creation_method            'Materials Studio'
_symmetry_space_group_name_H-M    'P1'
_symmetry_Int_Tables_number       1
_symmetry_cell_setting            triclinic
loop_
_symmetry_equiv_pos_as_xyz
  x,y,z
_cell_length_a                    21.6204
_cell_length_b                    20.8518
_cell_length_c                    12.8186
_cell_angle_alpha                 90.0000
_cell_angle_beta                  89.9953
_cell_angle_gamma                 90.0000
loop_
_atom_site_label
_atom_site_type_symbol
_atom_site_fract_x
_atom_site_fract_y
_atom_site_fract_z
_atom_site_U_iso_or_equiv
_atom_site_adp_type
_atom_site_occupancy
C1     C     0.41305   0.88933   0.31628   0.00000  Uiso   1.00
C2     C     0.48066   0.90926   0.32621   0.00000  Uiso   1.00
C3     C     0.50673   0.94090   0.41069   0.00000  Uiso   1.00
C4     C     0.56941   0.95490   0.40476   0.00000  Uiso   1.00
C5     C     0.66901   0.98846   0.43343   0.00000  Uiso   1.00
C6     C     0.38950   0.92001   0.21587   0.00000  Uiso   1.00
C7     C     0.33892   0.96068   0.20758   0.00000  Uiso   1.00
C8     C     0.32487   0.98372   0.10877   0.00000  Uiso   1.00
C9     C     0.28292   0.03394   0.96612   0.00000  Uiso   1.00
C10    C     0.41351   0.81721   0.29660   0.00000  Uiso   1.00
C11    C     0.38310   0.77145   0.35618   0.00000  Uiso   1.00
C12    C     0.38924   0.70794   0.32531   0.00000  Uiso   1.00
C13    C     0.38457   0.59855   0.30802   0.00000  Uiso   1.00
C14    C     0.47801   0.85793   0.15552   0.00000  Uiso   1.00
C15    C     0.51594   0.89221   0.23888   0.00000  Uiso   1.00
C16    C     0.57860   0.90616   0.23282   0.00000  Uiso   1.00
C17    C     0.60476   0.93781   0.31729   0.00000  Uiso   1.00
C18    C     0.42478   0.90296   0.12855   0.00000  Uiso   1.00
C19    C     0.41079   0.92594   0.02972   0.00000  Uiso   1.00
C20    C     0.36021   0.96663   0.02129   0.00000  Uiso   1.00
C21    C     0.44879   0.80016   0.20928   0.00000  Uiso   1.00
C22    C     0.45498   0.73671   0.17831   0.00000  Uiso   1.00
C23    C     0.42459   0.69085   0.23783   0.00000  Uiso   1.00
H24    H     0.38558   0.90261   0.38426   0.00000  Uiso   1.00
H25    H     0.47940   0.95409   0.47825   0.00000  Uiso   1.00
H26    H     0.31162   0.97386   0.27517   0.00000  Uiso   1.00
H27    H     0.35580   0.78466   0.42374   0.00000  Uiso   1.00
H28    H     0.59899   0.00367   0.54393   0.00000  Uiso   1.00
H29    H     0.24520   0.04534   0.11572   0.00000  Uiso   1.00
H30    H     0.33835   0.64637   0.42902   0.00000  Uiso   1.00
H31    H     0.50548   0.84465   0.08753   0.00000  Uiso   1.00
H32    H     0.60589   0.89295   0.16524   0.00000  Uiso   1.00
H33    H     0.43811   0.91273   0.96216   0.00000  Uiso   1.00
H34    H     0.48228   0.72352   0.11073   0.00000  Uiso   1.00
H35    H     0.70165   0.95405   0.28988   0.00000  Uiso   1.00
H36    H     0.34785   0.99572   0.86167   0.00000  Uiso   1.00
H37    H     0.44101   0.59675   0.17496   0.00000  Uiso   1.00
O38    O     0.71420   0.01170   0.47336   0.00000  Uiso   1.00
O39    O     0.25004   0.06636   0.91157   0.00000  Uiso   1.00
O40    O     0.37225   0.54292   0.32261   0.00000  Uiso   1.00
N41    N     0.60937   0.98535   0.47348   0.00000  Uiso   1.00
N42    N     0.27860   0.02432   0.07314   0.00000  Uiso   1.00
N43    N     0.36568   0.65132   0.36602   0.00000  Uiso   1.00
N44    N     0.66461   0.95865   0.33678   0.00000  Uiso   1.00
N45    N     0.33384   0.99762   0.93643   0.00000  Uiso   1.00
N46    N     0.42092   0.62462   0.22932   0.00000  Uiso   1.00
C47    C     0.96148   0.38845   0.33882   0.00000  Uiso   1.00
C48    C     0.01550   0.41697   0.39964   0.00000  Uiso   1.00
C49    C     0.01289   0.44030   0.50094   0.00000  Uiso   1.00
C50    C     0.06737   0.46445   0.54272   0.00000  Uiso   1.00
C51    C     0.14285   0.50866   0.64588   0.00000  Uiso   1.00
C52    C     0.95631   0.42774   0.23887   0.00000  Uiso   1.00
C53    C     0.90394   0.46010   0.20499   0.00000  Uiso   1.00
C54    C     0.90858   0.49330   0.11143   0.00000  Uiso   1.00
C55    C     0.89216   0.55418   0.96496   0.00000  Uiso   1.00
C56    C     0.98211   0.32161   0.30537   0.00000  Uiso   1.00
C57    C     0.95142   0.26474   0.32738   0.00000  Uiso   1.00
C58    C     0.97778   0.20859   0.28979   0.00000  Uiso   1.00
C59    C     0.00143   0.10468   0.24657   0.00000  Uiso   1.00
C60    C     0.06285   0.38986   0.23289   0.00000  Uiso   1.00
C61    C     0.07056   0.41774   0.34209   0.00000  Uiso   1.00
C62    C     0.12505   0.44186   0.38374   0.00000  Uiso   1.00
C63    C     0.12253   0.46522   0.48508   0.00000  Uiso   1.00
C64    C     0.01136   0.42851   0.18133   0.00000  Uiso   1.00
C65    C     0.01609   0.46166   0.08779   0.00000  Uiso   1.00
C66    C     0.96374   0.49407   0.05379   0.00000  Uiso   1.00
C67    C     0.03717   0.32237   0.24783   0.00000  Uiso   1.00
C68    C     0.06358   0.26630   0.21019   0.00000  Uiso   1.00
C69    C     0.03294   0.20936   0.23214   0.00000  Uiso   1.00
H70    H     0.91861   0.38785   0.38361   0.00000  Uiso   1.00
H71    H     0.97027   0.43970   0.54544   0.00000  Uiso   1.00
H72    H     0.86133   0.45949   0.24953   0.00000  Uiso   1.00
H73    H     0.90882   0.26416   0.37191   0.00000  Uiso   1.00
H74    H     0.05182   0.49754   0.69946   0.00000  Uiso   1.00
H75    H     0.82211   0.53926   0.07551   0.00000  Uiso   1.00
H76    H     0.92223   0.12736   0.33356   0.00000  Uiso   1.00
H77    H     0.10572   0.39046   0.18809   0.00000  Uiso   1.00
H78    H     0.16765   0.44245   0.33919   0.00000  Uiso   1.00
H79    H     0.05870   0.46225   0.04329   0.00000  Uiso   1.00
H80    H     0.10619   0.26691   0.16566   0.00000  Uiso   1.00
H81    H     0.21202   0.49978   0.53206   0.00000  Uiso   1.00
H82    H     0.98230   0.54149   0.90811   0.00000  Uiso   1.00
H83    H     0.08243   0.12960   0.16616   0.00000  Uiso   1.00
O84    O     0.16928   0.53284   0.71867   0.00000  Uiso   1.00
O85    O     0.86790   0.58755   0.90007   0.00000  Uiso   1.00
O86    O     0.99926   0.04716   0.23863   0.00000  Uiso   1.00
N87    N     0.08103   0.49092   0.63933   0.00000  Uiso   1.00
N88    N     0.86626   0.52993   0.05599   0.00000  Uiso   1.00
N89    N     0.95986   0.14485   0.29722   0.00000  Uiso   1.00
N90    N     0.16723   0.49213   0.54926   0.00000  Uiso   1.00
N91    N     0.95246   0.53114   0.96591   0.00000  Uiso   1.00
N92    N     0.04606   0.14605   0.20714   0.00000  Uiso   1.00
C93    C     0.43722   0.15552   0.23290   0.00000  Uiso   1.00
C94    C     0.48871   0.11688   0.18133   0.00000  Uiso   1.00
C95    C     0.48397   0.08369   0.08784   0.00000  Uiso   1.00
C96    C     0.53632   0.05127   0.05383   0.00000  Uiso   1.00
C97    C     0.60788   0.99112   0.96504   0.00000  Uiso   1.00
C98    C     0.42953   0.12767   0.34213   0.00000  Uiso   1.00
C99    C     0.37505   0.10356   0.38383   0.00000  Uiso   1.00
C100   C     0.37758   0.08023   0.48519   0.00000  Uiso   1.00
C101   C     0.35727   0.03687   0.64607   0.00000  Uiso   1.00
C102   C     0.46288   0.22302   0.24780   0.00000  Uiso   1.00
C103   C     0.43643   0.27909   0.21021   0.00000  Uiso   1.00
C104   C     0.46704   0.33605   0.23217   0.00000  Uiso   1.00
C105   C     0.49851   0.44073   0.24658   0.00000  Uiso   1.00
C106   C     0.53860   0.15698   0.33877   0.00000  Uiso   1.00
C107   C     0.54377   0.11767   0.23884   0.00000  Uiso   1.00
C108   C     0.59614   0.08530   0.20497   0.00000  Uiso   1.00
C109   C     0.59149   0.05207   0.11143   0.00000  Uiso   1.00
C110   C     0.48460   0.12846   0.39963   0.00000  Uiso   1.00
C111   C     0.48721   0.10517   0.50096   0.00000  Uiso   1.00
C112   C     0.43275   0.08103   0.54280   0.00000  Uiso   1.00
C113   C     0.51795   0.22381   0.30530   0.00000  Uiso   1.00
C114   C     0.54860   0.28070   0.32733   0.00000  Uiso   1.00
C115   C     0.52220   0.33684   0.28978   0.00000  Uiso   1.00
H116   H     0.39434   0.15490   0.18814   0.00000  Uiso   1.00
H117   H     0.44135   0.08308   0.04336   0.00000  Uiso   1.00
H118   H     0.33244   0.10295   0.33931   0.00000  Uiso   1.00
H119   H     0.39382   0.27845   0.16571   0.00000  Uiso   1.00
H120   H     0.51774   0.00378   0.90823   0.00000  Uiso   1.00
H121   H     0.28809   0.04570   0.53227   0.00000  Uiso   1.00
H122   H     0.41752   0.41578   0.16620   0.00000  Uiso   1.00
H123   H     0.58147   0.15760   0.38354   0.00000  Uiso   1.00
H124   H     0.63875   0.08593   0.24948   0.00000  Uiso   1.00
H125   H     0.52983   0.10580   0.54544   0.00000  Uiso   1.00
H126   H     0.59121   0.28130   0.37184   0.00000  Uiso   1.00
H127   H     0.67795   0.00609   0.07553   0.00000  Uiso   1.00
H128   H     0.44831   0.04801   0.69958   0.00000  Uiso   1.00
H129   H     0.57773   0.41809   0.33350   0.00000  Uiso   1.00
O130   O     0.63214   0.95772   0.90018   0.00000  Uiso   1.00
O131   O     0.33085   0.01273   0.71891   0.00000  Uiso   1.00
O132   O     0.50066   0.49826   0.23863   0.00000  Uiso   1.00
N133   N     0.54759   0.01417   0.96599   0.00000  Uiso   1.00
N134   N     0.33289   0.05336   0.54943   0.00000  Uiso   1.00
N135   N     0.45388   0.39935   0.20721   0.00000  Uiso   1.00
N136   N     0.63380   0.01541   0.05601   0.00000  Uiso   1.00
N137   N     0.41910   0.05460   0.63945   0.00000  Uiso   1.00
N138   N     0.54009   0.40059   0.29723   0.00000  Uiso   1.00
C139   C     0.02201   0.68754   0.15543   0.00000  Uiso   1.00
C140   C     0.07523   0.64251   0.12845   0.00000  Uiso   1.00
C141   C     0.08922   0.61954   0.02962   0.00000  Uiso   1.00
C142   C     0.13979   0.57882   0.02118   0.00000  Uiso   1.00
C143   C     0.21705   0.51147   0.96601   0.00000  Uiso   1.00
C144   C     0.98405   0.65325   0.23877   0.00000  Uiso   1.00
C145   C     0.92138   0.63933   0.23269   0.00000  Uiso   1.00
C146   C     0.89520   0.60767   0.31713   0.00000  Uiso   1.00
C147   C     0.83089   0.55705   0.43326   0.00000  Uiso   1.00
C148   C     0.05122   0.74529   0.20925   0.00000  Uiso   1.00
C149   C     0.04502   0.80876   0.17838   0.00000  Uiso   1.00
C150   C     0.07537   0.85459   0.23798   0.00000  Uiso   1.00
C151   C     0.11535   0.94687   0.30829   0.00000  Uiso   1.00
C152   C     0.08692   0.65608   0.31620   0.00000  Uiso   1.00
C153   C     0.11049   0.62542   0.21578   0.00000  Uiso   1.00
C154   C     0.16105   0.58473   0.20749   0.00000  Uiso   1.00
C155   C     0.17511   0.56171   0.10866   0.00000  Uiso   1.00
C156   C     0.01931   0.63617   0.32609   0.00000  Uiso   1.00
C157   C     0.99321   0.60453   0.41056   0.00000  Uiso   1.00
C158   C     0.93052   0.59055   0.40461   0.00000  Uiso   1.00
C159   C     0.08648   0.72821   0.29658   0.00000  Uiso   1.00
C160   C     0.11684   0.77395   0.35625   0.00000  Uiso   1.00
C161   C     0.11069   0.83748   0.32546   0.00000  Uiso   1.00
H162   H     0.99455   0.70084   0.08745   0.00000  Uiso   1.00
H163   H     0.06192   0.63277   0.96206   0.00000  Uiso   1.00
H164   H     0.89411   0.65257   0.16511   0.00000  Uiso   1.00
H165   H     0.01773   0.82197   0.11080   0.00000  Uiso   1.00
H166   H     0.15215   0.54974   0.86156   0.00000  Uiso   1.00
H167   H     0.79830   0.59151   0.28971   0.00000  Uiso   1.00
H168   H     0.05897   0.94872   0.17519   0.00000  Uiso   1.00
H169   H     0.11437   0.64278   0.38419   0.00000  Uiso   1.00
H170   H     0.18832   0.57152   0.27508   0.00000  Uiso   1.00
H171   H     0.02051   0.59131   0.47812   0.00000  Uiso   1.00
H172   H     0.14413   0.76071   0.42381   0.00000  Uiso   1.00
H173   H     0.25474   0.50002   0.11561   0.00000  Uiso   1.00
H174   H     0.90089   0.54179   0.54376   0.00000  Uiso   1.00
H175   H     0.16156   0.89900   0.42925   0.00000  Uiso   1.00
O176   O     0.24991   0.47904   0.91146   0.00000  Uiso   1.00
O177   O     0.78568   0.53384   0.47318   0.00000  Uiso   1.00
O178   O     0.12768   0.00249   0.32294   0.00000  Uiso   1.00
N179   N     0.16615   0.54783   0.93632   0.00000  Uiso   1.00
N180   N     0.83533   0.58687   0.33661   0.00000  Uiso   1.00
N181   N     0.07902   0.92083   0.22956   0.00000  Uiso   1.00
N182   N     0.22136   0.52108   0.07302   0.00000  Uiso   1.00
N183   N     0.89053   0.56012   0.47331   0.00000  Uiso   1.00
N184   N     0.13422   0.89408   0.36627   0.00000  Uiso   1.00
C185   C     0.58695   0.38933   0.68372   0.00000  Uiso   1.00
C186   C     0.51934   0.40926   0.67379   0.00000  Uiso   1.00
C187   C     0.49327   0.44090   0.58931   0.00000  Uiso   1.00
C188   C     0.43059   0.45490   0.59524   0.00000  Uiso   1.00
C189   C     0.33099   0.48846   0.56657   0.00000  Uiso   1.00
C190   C     0.61050   0.42001   0.78413   0.00000  Uiso   1.00
C191   C     0.66108   0.46068   0.79242   0.00000  Uiso   1.00
C192   C     0.67513   0.48372   0.89123   0.00000  Uiso   1.00
C193   C     0.71708   0.53394   0.03388   0.00000  Uiso   1.00
C194   C     0.58649   0.31721   0.70340   0.00000  Uiso   1.00
C195   C     0.61690   0.27145   0.64382   0.00000  Uiso   1.00
C196   C     0.61076   0.20794   0.67469   0.00000  Uiso   1.00
C197   C     0.61543   0.09855   0.69198   0.00000  Uiso   1.00
C198   C     0.52199   0.35793   0.84448   0.00000  Uiso   1.00
C199   C     0.48406   0.39221   0.76112   0.00000  Uiso   1.00
C200   C     0.42140   0.40616   0.76718   0.00000  Uiso   1.00
C201   C     0.39524   0.43781   0.68271   0.00000  Uiso   1.00
C202   C     0.57522   0.40296   0.87145   0.00000  Uiso   1.00
C203   C     0.58921   0.42594   0.97028   0.00000  Uiso   1.00
C204   C     0.63979   0.46663   0.97871   0.00000  Uiso   1.00
C205   C     0.55121   0.30016   0.79072   0.00000  Uiso   1.00
C206   C     0.54502   0.23671   0.82169   0.00000  Uiso   1.00
C207   C     0.57541   0.19085   0.76217   0.00000  Uiso   1.00
H208   H     0.61442   0.40261   0.61574   0.00000  Uiso   1.00
H209   H     0.52060   0.45409   0.52175   0.00000  Uiso   1.00
H210   H     0.68838   0.47386   0.72483   0.00000  Uiso   1.00
H211   H     0.64420   0.28466   0.57626   0.00000  Uiso   1.00
H212   H     0.40101   0.50367   0.45607   0.00000  Uiso   1.00
H213   H     0.75480   0.54534   0.88428   0.00000  Uiso   1.00
H214   H     0.66165   0.14637   0.57098   0.00000  Uiso   1.00
H215   H     0.49452   0.34465   0.91247   0.00000  Uiso   1.00
H216   H     0.39411   0.39295   0.83476   0.00000  Uiso   1.00
H217   H     0.56189   0.41273   0.03784   0.00000  Uiso   1.00
H218   H     0.51772   0.22352   0.88927   0.00000  Uiso   1.00
H219   H     0.29835   0.45405   0.71012   0.00000  Uiso   1.00
H220   H     0.65215   0.49572   0.13833   0.00000  Uiso   1.00
H221   H     0.55899   0.09675   0.82504   0.00000  Uiso   1.00
O222   O     0.28580   0.51170   0.52664   0.00000  Uiso   1.00
O223   O     0.74996   0.56636   0.08843   0.00000  Uiso   1.00
O224   O     0.62775   0.04292   0.67739   0.00000  Uiso   1.00
N225   N     0.39063   0.48535   0.52652   0.00000  Uiso   1.00
N226   N     0.72140   0.52432   0.92686   0.00000  Uiso   1.00
N227   N     0.63432   0.15132   0.63398   0.00000  Uiso   1.00
N228   N     0.33539   0.45865   0.66322   0.00000  Uiso   1.00
N229   N     0.66616   0.49762   0.06357   0.00000  Uiso   1.00
N230   N     0.57908   0.12462   0.77068   0.00000  Uiso   1.00
C231   C     0.03852   0.88845   0.66118   0.00000  Uiso   1.00
C232   C     0.98450   0.91697   0.60036   0.00000  Uiso   1.00
C233   C     0.98711   0.94030   0.49906   0.00000  Uiso   1.00
C234   C     0.93263   0.96445   0.45728   0.00000  Uiso   1.00
C235   C     0.85715   0.00866   0.35412   0.00000  Uiso   1.00
C236   C     0.04369   0.92774   0.76113   0.00000  Uiso   1.00
C237   C     0.09606   0.96010   0.79501   0.00000  Uiso   1.00
C238   C     0.09142   0.99330   0.88857   0.00000  Uiso   1.00
C239   C     0.10784   0.05418   0.03504   0.00000  Uiso   1.00
C240   C     0.01789   0.82161   0.69463   0.00000  Uiso   1.00
C241   C     0.04858   0.76474   0.67262   0.00000  Uiso   1.00
C242   C     0.02222   0.70859   0.71021   0.00000  Uiso   1.00
C243   C     0.99857   0.60468   0.75343   0.00000  Uiso   1.00
C244   C     0.93715   0.88986   0.76711   0.00000  Uiso   1.00
C245   C     0.92944   0.91774   0.65791   0.00000  Uiso   1.00
C246   C     0.87495   0.94186   0.61626   0.00000  Uiso   1.00
C247   C     0.87747   0.96522   0.51492   0.00000  Uiso   1.00
C248   C     0.98864   0.92851   0.81867   0.00000  Uiso   1.00
C249   C     0.98391   0.96166   0.91221   0.00000  Uiso   1.00
C250   C     0.03626   0.99407   0.94621   0.00000  Uiso   1.00
C251   C     0.96283   0.82237   0.75217   0.00000  Uiso   1.00
C252   C     0.93642   0.76630   0.78981   0.00000  Uiso   1.00
C253   C     0.96706   0.70936   0.76786   0.00000  Uiso   1.00
H254   H     0.08139   0.88785   0.61639   0.00000  Uiso   1.00
H255   H     0.02973   0.93970   0.45456   0.00000  Uiso   1.00
H256   H     0.13867   0.95949   0.75047   0.00000  Uiso   1.00
H257   H     0.09118   0.76416   0.62809   0.00000  Uiso   1.00
H258   H     0.94818   0.99754   0.30054   0.00000  Uiso   1.00
H259   H     0.17789   0.03926   0.92449   0.00000  Uiso   1.00
H260   H     0.07777   0.62736   0.66644   0.00000  Uiso   1.00
H261   H     0.89428   0.89046   0.81191   0.00000  Uiso   1.00
H262   H     0.83235   0.94245   0.66081   0.00000  Uiso   1.00
H263   H     0.94130   0.96225   0.95671   0.00000  Uiso   1.00
H264   H     0.89381   0.76691   0.83434   0.00000  Uiso   1.00
H265   H     0.78798   0.99978   0.46794   0.00000  Uiso   1.00
H266   H     0.01770   0.04149   0.09189   0.00000  Uiso   1.00
H267   H     0.91757   0.62960   0.83384   0.00000  Uiso   1.00
O268   O     0.83072   0.03284   0.28133   0.00000  Uiso   1.00
O269   O     0.13210   0.08755   0.09993   0.00000  Uiso   1.00
O270   O     0.00074   0.54716   0.76137   0.00000  Uiso   1.00
N271   N     0.91897   0.99092   0.36067   0.00000  Uiso   1.00
N272   N     0.13374   0.02993   0.94401   0.00000  Uiso   1.00
N273   N     0.04014   0.64485   0.70278   0.00000  Uiso   1.00
N274   N     0.83277   0.99213   0.45074   0.00000  Uiso   1.00
N275   N     0.04754   0.03114   0.03409   0.00000  Uiso   1.00
N276   N     0.95394   0.64605   0.79286   0.00000  Uiso   1.00
C277   C     0.56278   0.65552   0.76710   0.00000  Uiso   1.00
C278   C     0.51129   0.61688   0.81867   0.00000  Uiso   1.00
C279   C     0.51603   0.58369   0.91216   0.00000  Uiso   1.00
C280   C     0.46368   0.55127   0.94617   0.00000  Uiso   1.00
C281   C     0.39212   0.49112   0.03496   0.00000  Uiso   1.00
C282   C     0.57047   0.62767   0.65787   0.00000  Uiso   1.00
C283   C     0.62495   0.60356   0.61617   0.00000  Uiso   1.00
C284   C     0.62242   0.58023   0.51481   0.00000  Uiso   1.00
C285   C     0.64273   0.53687   0.35393   0.00000  Uiso   1.00
C286   C     0.53712   0.72302   0.75220   0.00000  Uiso   1.00
C287   C     0.56357   0.77909   0.78979   0.00000  Uiso   1.00
C288   C     0.53296   0.83605   0.76783   0.00000  Uiso   1.00
C289   C     0.50149   0.94073   0.75342   0.00000  Uiso   1.00
C290   C     0.46140   0.65698   0.66123   0.00000  Uiso   1.00
C291   C     0.45623   0.61767   0.76116   0.00000  Uiso   1.00
C292   C     0.40386   0.58530   0.79503   0.00000  Uiso   1.00
C293   C     0.40851   0.55207   0.88857   0.00000  Uiso   1.00
C294   C     0.51540   0.62846   0.60037   0.00000  Uiso   1.00
C295   C     0.51279   0.60517   0.49904   0.00000  Uiso   1.00
C296   C     0.56725   0.58103   0.45720   0.00000  Uiso   1.00
C297   C     0.48205   0.72381   0.69470   0.00000  Uiso   1.00
C298   C     0.45140   0.78070   0.67267   0.00000  Uiso   1.00
C299   C     0.47780   0.83684   0.71022   0.00000  Uiso   1.00
H300   H     0.60566   0.65490   0.81186   0.00000  Uiso   1.00
H301   H     0.55865   0.58308   0.95664   0.00000  Uiso   1.00
H302   H     0.66756   0.60295   0.66069   0.00000  Uiso   1.00
H303   H     0.60618   0.77845   0.83429   0.00000  Uiso   1.00
H304   H     0.48226   0.50378   0.09177   0.00000  Uiso   1.00
H305   H     0.71191   0.54570   0.46773   0.00000  Uiso   1.00
H306   H     0.58248   0.91578   0.83380   0.00000  Uiso   1.00
H307   H     0.41853   0.65760   0.61646   0.00000  Uiso   1.00
H308   H     0.36125   0.58593   0.75052   0.00000  Uiso   1.00
H309   H     0.47016   0.60580   0.45456   0.00000  Uiso   1.00
H310   H     0.40879   0.78130   0.62816   0.00000  Uiso   1.00
H311   H     0.32205   0.50609   0.92447   0.00000  Uiso   1.00
H312   H     0.55169   0.54801   0.30042   0.00000  Uiso   1.00
H313   H     0.42227   0.91809   0.66650   0.00000  Uiso   1.00
O314   O     0.36786   0.45772   0.09982   0.00000  Uiso   1.00
O315   O     0.66915   0.51273   0.28109   0.00000  Uiso   1.00
O316   O     0.49934   0.99826   0.76137   0.00000  Uiso   1.00
N317   N     0.45241   0.51417   0.03401   0.00000  Uiso   1.00
N318   N     0.66711   0.55336   0.45057   0.00000  Uiso   1.00
N319   N     0.54612   0.89935   0.79279   0.00000  Uiso   1.00
N320   N     0.36620   0.51541   0.94399   0.00000  Uiso   1.00
N321   N     0.58090   0.55460   0.36055   0.00000  Uiso   1.00
N322   N     0.45991   0.90059   0.70277   0.00000  Uiso   1.00
C323   C     0.97799   0.18754   0.84457   0.00000  Uiso   1.00
C324   C     0.92477   0.14251   0.87155   0.00000  Uiso   1.00
C325   C     0.91078   0.11954   0.97038   0.00000  Uiso   1.00
C326   C     0.86021   0.07882   0.97882   0.00000  Uiso   1.00
C327   C     0.78295   0.01147   0.03399   0.00000  Uiso   1.00
C328   C     0.01595   0.15325   0.76123   0.00000  Uiso   1.00
C329   C     0.07862   0.13933   0.76731   0.00000  Uiso   1.00
C330   C     0.10480   0.10767   0.68287   0.00000  Uiso   1.00
C331   C     0.16911   0.05705   0.56674   0.00000  Uiso   1.00
C332   C     0.94878   0.24529   0.79075   0.00000  Uiso   1.00
C333   C     0.95498   0.30876   0.82162   0.00000  Uiso   1.00
C334   C     0.92463   0.35459   0.76202   0.00000  Uiso   1.00
C335   C     0.88465   0.44687   0.69171   0.00000  Uiso   1.00
C336   C     0.91308   0.15608   0.68380   0.00000  Uiso   1.00
C337   C     0.88951   0.12542   0.78422   0.00000  Uiso   1.00
C338   C     0.83895   0.08473   0.79251   0.00000  Uiso   1.00
C339   C     0.82489   0.06171   0.89134   0.00000  Uiso   1.00
C340   C     0.98069   0.13617   0.67391   0.00000  Uiso   1.00
C341   C     0.00679   0.10453   0.58944   0.00000  Uiso   1.00
C342   C     0.06948   0.09055   0.59539   0.00000  Uiso   1.00
C343   C     0.91352   0.22821   0.70342   0.00000  Uiso   1.00
C344   C     0.88316   0.27395   0.64375   0.00000  Uiso   1.00
C345   C     0.88931   0.33748   0.67454   0.00000  Uiso   1.00
H346   H     0.00545   0.20084   0.91255   0.00000  Uiso   1.00
H347   H     0.93808   0.13277   0.03794   0.00000  Uiso   1.00
H348   H     0.10589   0.15257   0.83489   0.00000  Uiso   1.00
H349   H     0.98227   0.32197   0.88920   0.00000  Uiso   1.00
H350   H     0.84785   0.04974   0.13844   0.00000  Uiso   1.00
H351   H     0.20170   0.09151   0.71029   0.00000  Uiso   1.00
H352   H     0.94103   0.44872   0.82481   0.00000  Uiso   1.00
H353   H     0.88563   0.14278   0.61581   0.00000  Uiso   1.00
H354   H     0.81168   0.07152   0.72492   0.00000  Uiso   1.00
H355   H     0.97949   0.09131   0.52188   0.00000  Uiso   1.00
H356   H     0.85587   0.26071   0.57619   0.00000  Uiso   1.00
H357   H     0.74526   0.00002   0.88439   0.00000  Uiso   1.00
H358   H     0.09911   0.04179   0.45624   0.00000  Uiso   1.00
H359   H     0.83844   0.39900   0.57075   0.00000  Uiso   1.00
O360   O     0.75009   0.97904   0.08854   0.00000  Uiso   1.00
O361   O     0.21432   0.03384   0.52682   0.00000  Uiso   1.00
O362   O     0.87232   0.50249   0.67706   0.00000  Uiso   1.00
N363   N     0.83385   0.04783   0.06368   0.00000  Uiso   1.00
N364   N     0.16467   0.08687   0.66339   0.00000  Uiso   1.00
N365   N     0.92098   0.42083   0.77044   0.00000  Uiso   1.00
N366   N     0.77864   0.02108   0.92698   0.00000  Uiso   1.00
N367   N     0.10947   0.06012   0.52669   0.00000  Uiso   1.00
N368   N     0.86578   0.39408   0.63373   0.00000  Uiso   1.00
