data_job_02972
_audit_creation_date              2018-12-19
_audit_creation_method            'Materials Studio'
_symmetry_space_group_name_H-M    'P1'
_symmetry_Int_Tables_number       1
_symmetry_cell_setting            triclinic
loop_
_symmetry_equiv_pos_as_xyz
  x,y,z
_cell_length_a                    19.4267
_cell_length_b                    19.4267
_cell_length_c                    12.0097
_cell_angle_alpha                 90.0000
_cell_angle_beta                  90.0000
_cell_angle_gamma                 90.0000
loop_
_atom_site_label
_atom_site_type_symbol
_atom_site_fract_x
_atom_site_fract_y
_atom_site_fract_z
_atom_site_U_iso_or_equiv
_atom_site_adp_type
_atom_site_occupancy
C1     C     0.71416   0.80577   0.30596   0.00000  Uiso   1.00
C2     C     0.75077   0.86930   0.26060   0.00000  Uiso   1.00
C3     C     0.82151   0.87790   0.25261   0.00000  Uiso   1.00
C4     C     0.84484   0.93978   0.20880   0.00000  Uiso   1.00
C5     C     0.90866   0.03062   0.14368   0.00000  Uiso   1.00
C6     C     0.66796   0.83126   0.39997   0.00000  Uiso   1.00
C7     C     0.66907   0.80787   0.50915   0.00000  Uiso   1.00
C8     C     0.62268   0.83773   0.58265   0.00000  Uiso   1.00
C9     C     0.55790   0.86948   0.73387   0.00000  Uiso   1.00
C10    C     0.66593   0.78159   0.21373   0.00000  Uiso   1.00
C11    C     0.66533   0.71644   0.16634   0.00000  Uiso   1.00
C12    C     0.61722   0.70448   0.08305   0.00000  Uiso   1.00
C13    C     0.54929   0.65912   0.94511   0.00000  Uiso   1.00
C14    C     0.62979   0.90038   0.24235   0.00000  Uiso   1.00
C15    C     0.70494   0.92068   0.22606   0.00000  Uiso   1.00
C16    C     0.72817   0.98257   0.18224   0.00000  Uiso   1.00
C17    C     0.79893   0.99126   0.17418   0.00000  Uiso   1.00
C18    C     0.62213   0.88264   0.36543   0.00000  Uiso   1.00
C19    C     0.57573   0.91254   0.43878   0.00000  Uiso   1.00
C20    C     0.57677   0.88921   0.54804   0.00000  Uiso   1.00
C21    C     0.62011   0.83298   0.17918   0.00000  Uiso   1.00
C22    C     0.57199   0.82112   0.09596   0.00000  Uiso   1.00
C23    C     0.57131   0.75596   0.04844   0.00000  Uiso   1.00
H24    H     0.74983   0.76577   0.33286   0.00000  Uiso   1.00
H25    H     0.85696   0.83812   0.27937   0.00000  Uiso   1.00
H26    H     0.70454   0.76810   0.53586   0.00000  Uiso   1.00
H27    H     0.70080   0.67669   0.19309   0.00000  Uiso   1.00
H28    H     0.95552   0.94101   0.20486   0.00000  Uiso   1.00
H29    H     0.63411   0.79336   0.74567   0.00000  Uiso   1.00
H30    H     0.62622   0.60060   0.02289   0.00000  Uiso   1.00
H31    H     0.59411   0.94038   0.21546   0.00000  Uiso   1.00
H32    H     0.69269   0.02232   0.15551   0.00000  Uiso   1.00
H33    H     0.54027   0.95230   0.41201   0.00000  Uiso   1.00
H34    H     0.53653   0.86089   0.06924   0.00000  Uiso   1.00
H35    H     0.82220   0.09052   0.10434   0.00000  Uiso   1.00
H36    H     0.50078   0.94286   0.64516   0.00000  Uiso   1.00
H37    H     0.49290   0.75010   0.92237   0.00000  Uiso   1.00
O38    O     0.95652   0.06653   0.11732   0.00000  Uiso   1.00
O39    O     0.53484   0.87280   0.82684   0.00000  Uiso   1.00
O40    O     0.52449   0.61990   0.87856   0.00000  Uiso   1.00
N41    N     0.91061   0.96495   0.18940   0.00000  Uiso   1.00
N42    N     0.61012   0.82691   0.69504   0.00000  Uiso   1.00
N43    N     0.60274   0.64669   0.01932   0.00000  Uiso   1.00
N44    N     0.83887   0.04540   0.13531   0.00000  Uiso   1.00
N45    N     0.53838   0.90735   0.64095   0.00000  Uiso   1.00
N46    N     0.53100   0.72713   0.96523   0.00000  Uiso   1.00
C47    C     0.21416   0.30577   0.80596   0.00000  Uiso   1.00
C48    C     0.25077   0.36930   0.76060   0.00000  Uiso   1.00
C49    C     0.32151   0.37790   0.75261   0.00000  Uiso   1.00
C50    C     0.34484   0.43978   0.70880   0.00000  Uiso   1.00
C51    C     0.40866   0.53062   0.64368   0.00000  Uiso   1.00
C52    C     0.16796   0.33126   0.89997   0.00000  Uiso   1.00
C53    C     0.16907   0.30787   0.00915   0.00000  Uiso   1.00
C54    C     0.12268   0.33773   0.08265   0.00000  Uiso   1.00
C55    C     0.05790   0.36948   0.23387   0.00000  Uiso   1.00
C56    C     0.16593   0.28159   0.71373   0.00000  Uiso   1.00
C57    C     0.16533   0.21644   0.66634   0.00000  Uiso   1.00
C58    C     0.11722   0.20448   0.58305   0.00000  Uiso   1.00
C59    C     0.04929   0.15912   0.44511   0.00000  Uiso   1.00
C60    C     0.12979   0.40038   0.74235   0.00000  Uiso   1.00
C61    C     0.20494   0.42068   0.72606   0.00000  Uiso   1.00
C62    C     0.22817   0.48257   0.68224   0.00000  Uiso   1.00
C63    C     0.29893   0.49126   0.67418   0.00000  Uiso   1.00
C64    C     0.12213   0.38264   0.86543   0.00000  Uiso   1.00
C65    C     0.07573   0.41254   0.93878   0.00000  Uiso   1.00
C66    C     0.07677   0.38921   0.04804   0.00000  Uiso   1.00
C67    C     0.12011   0.33298   0.67918   0.00000  Uiso   1.00
C68    C     0.07199   0.32112   0.59596   0.00000  Uiso   1.00
C69    C     0.07131   0.25596   0.54844   0.00000  Uiso   1.00
H70    H     0.24983   0.26577   0.83286   0.00000  Uiso   1.00
H71    H     0.35696   0.33812   0.77937   0.00000  Uiso   1.00
H72    H     0.20454   0.26810   0.03586   0.00000  Uiso   1.00
H73    H     0.20080   0.17669   0.69309   0.00000  Uiso   1.00
H74    H     0.45552   0.44101   0.70486   0.00000  Uiso   1.00
H75    H     0.13411   0.29336   0.24567   0.00000  Uiso   1.00
H76    H     0.12622   0.10060   0.52289   0.00000  Uiso   1.00
H77    H     0.09411   0.44038   0.71546   0.00000  Uiso   1.00
H78    H     0.19269   0.52232   0.65551   0.00000  Uiso   1.00
H79    H     0.04027   0.45230   0.91201   0.00000  Uiso   1.00
H80    H     0.03653   0.36089   0.56924   0.00000  Uiso   1.00
H81    H     0.32220   0.59052   0.60434   0.00000  Uiso   1.00
H82    H     0.00078   0.44286   0.14516   0.00000  Uiso   1.00
H83    H     0.99290   0.25010   0.42237   0.00000  Uiso   1.00
O84    O     0.45652   0.56653   0.61732   0.00000  Uiso   1.00
O85    O     0.03484   0.37280   0.32684   0.00000  Uiso   1.00
O86    O     0.02449   0.11990   0.37856   0.00000  Uiso   1.00
N87    N     0.41061   0.46495   0.68940   0.00000  Uiso   1.00
N88    N     0.11012   0.32691   0.19504   0.00000  Uiso   1.00
N89    N     0.10274   0.14669   0.51932   0.00000  Uiso   1.00
N90    N     0.33887   0.54540   0.63531   0.00000  Uiso   1.00
N91    N     0.03838   0.40735   0.14095   0.00000  Uiso   1.00
N92    N     0.03100   0.22713   0.46523   0.00000  Uiso   1.00
C93    C     0.28584   0.19423   0.30596   0.00000  Uiso   1.00
C94    C     0.24923   0.13070   0.26060   0.00000  Uiso   1.00
C95    C     0.17849   0.12210   0.25261   0.00000  Uiso   1.00
C96    C     0.15516   0.06022   0.20880   0.00000  Uiso   1.00
C97    C     0.09134   0.96938   0.14368   0.00000  Uiso   1.00
C98    C     0.33204   0.16874   0.39997   0.00000  Uiso   1.00
C99    C     0.33093   0.19213   0.50915   0.00000  Uiso   1.00
C100   C     0.37732   0.16227   0.58265   0.00000  Uiso   1.00
C101   C     0.44210   0.13052   0.73387   0.00000  Uiso   1.00
C102   C     0.33407   0.21841   0.21373   0.00000  Uiso   1.00
C103   C     0.33467   0.28356   0.16634   0.00000  Uiso   1.00
C104   C     0.38278   0.29552   0.08305   0.00000  Uiso   1.00
C105   C     0.45071   0.34088   0.94511   0.00000  Uiso   1.00
C106   C     0.37021   0.09962   0.24235   0.00000  Uiso   1.00
C107   C     0.29506   0.07932   0.22606   0.00000  Uiso   1.00
C108   C     0.27183   0.01743   0.18224   0.00000  Uiso   1.00
C109   C     0.20107   0.00874   0.17418   0.00000  Uiso   1.00
C110   C     0.37787   0.11736   0.36543   0.00000  Uiso   1.00
C111   C     0.42427   0.08746   0.43878   0.00000  Uiso   1.00
C112   C     0.42323   0.11079   0.54804   0.00000  Uiso   1.00
C113   C     0.37989   0.16702   0.17918   0.00000  Uiso   1.00
C114   C     0.42801   0.17888   0.09596   0.00000  Uiso   1.00
C115   C     0.42869   0.24404   0.04844   0.00000  Uiso   1.00
H116   H     0.25017   0.23423   0.33286   0.00000  Uiso   1.00
H117   H     0.14304   0.16188   0.27937   0.00000  Uiso   1.00
H118   H     0.29546   0.23190   0.53586   0.00000  Uiso   1.00
H119   H     0.29920   0.32331   0.19309   0.00000  Uiso   1.00
H120   H     0.04448   0.05899   0.20486   0.00000  Uiso   1.00
H121   H     0.36589   0.20664   0.74567   0.00000  Uiso   1.00
H122   H     0.37378   0.39940   0.02289   0.00000  Uiso   1.00
H123   H     0.40589   0.05962   0.21546   0.00000  Uiso   1.00
H124   H     0.30731   0.97768   0.15551   0.00000  Uiso   1.00
H125   H     0.45973   0.04770   0.41201   0.00000  Uiso   1.00
H126   H     0.46347   0.13911   0.06924   0.00000  Uiso   1.00
H127   H     0.17780   0.90948   0.10434   0.00000  Uiso   1.00
H128   H     0.49922   0.05714   0.64516   0.00000  Uiso   1.00
H129   H     0.50710   0.24990   0.92237   0.00000  Uiso   1.00
O130   O     0.04348   0.93347   0.11732   0.00000  Uiso   1.00
O131   O     0.46516   0.12720   0.82684   0.00000  Uiso   1.00
O132   O     0.47551   0.38010   0.87856   0.00000  Uiso   1.00
N133   N     0.08939   0.03505   0.18940   0.00000  Uiso   1.00
N134   N     0.38988   0.17309   0.69504   0.00000  Uiso   1.00
N135   N     0.39726   0.35331   0.01932   0.00000  Uiso   1.00
N136   N     0.16113   0.95460   0.13531   0.00000  Uiso   1.00
N137   N     0.46162   0.09265   0.64095   0.00000  Uiso   1.00
N138   N     0.46900   0.27287   0.96523   0.00000  Uiso   1.00
C139   C     0.78584   0.69423   0.80596   0.00000  Uiso   1.00
C140   C     0.74923   0.63070   0.76060   0.00000  Uiso   1.00
C141   C     0.67849   0.62210   0.75261   0.00000  Uiso   1.00
C142   C     0.65516   0.56022   0.70880   0.00000  Uiso   1.00
C143   C     0.59134   0.46938   0.64368   0.00000  Uiso   1.00
C144   C     0.83204   0.66874   0.89997   0.00000  Uiso   1.00
C145   C     0.83093   0.69213   0.00915   0.00000  Uiso   1.00
C146   C     0.87732   0.66227   0.08265   0.00000  Uiso   1.00
C147   C     0.94210   0.63052   0.23387   0.00000  Uiso   1.00
C148   C     0.83407   0.71841   0.71373   0.00000  Uiso   1.00
C149   C     0.83467   0.78356   0.66634   0.00000  Uiso   1.00
C150   C     0.88278   0.79552   0.58305   0.00000  Uiso   1.00
C151   C     0.95071   0.84088   0.44511   0.00000  Uiso   1.00
C152   C     0.87021   0.59962   0.74235   0.00000  Uiso   1.00
C153   C     0.79506   0.57932   0.72606   0.00000  Uiso   1.00
C154   C     0.77183   0.51743   0.68224   0.00000  Uiso   1.00
C155   C     0.70107   0.50874   0.67418   0.00000  Uiso   1.00
C156   C     0.87787   0.61736   0.86543   0.00000  Uiso   1.00
C157   C     0.92427   0.58746   0.93878   0.00000  Uiso   1.00
C158   C     0.92323   0.61079   0.04804   0.00000  Uiso   1.00
C159   C     0.87989   0.66702   0.67918   0.00000  Uiso   1.00
C160   C     0.92801   0.67888   0.59596   0.00000  Uiso   1.00
C161   C     0.92869   0.74404   0.54844   0.00000  Uiso   1.00
H162   H     0.75017   0.73423   0.83286   0.00000  Uiso   1.00
H163   H     0.64304   0.66188   0.77937   0.00000  Uiso   1.00
H164   H     0.79546   0.73190   0.03586   0.00000  Uiso   1.00
H165   H     0.79920   0.82331   0.69309   0.00000  Uiso   1.00
H166   H     0.54448   0.55899   0.70486   0.00000  Uiso   1.00
H167   H     0.86589   0.70664   0.24567   0.00000  Uiso   1.00
H168   H     0.87378   0.89940   0.52289   0.00000  Uiso   1.00
H169   H     0.90589   0.55962   0.71546   0.00000  Uiso   1.00
H170   H     0.80731   0.47768   0.65551   0.00000  Uiso   1.00
H171   H     0.95973   0.54770   0.91201   0.00000  Uiso   1.00
H172   H     0.96347   0.63911   0.56924   0.00000  Uiso   1.00
H173   H     0.67780   0.40948   0.60434   0.00000  Uiso   1.00
H174   H     0.99922   0.55714   0.14516   0.00000  Uiso   1.00
H175   H     0.00710   0.74990   0.42237   0.00000  Uiso   1.00
O176   O     0.54348   0.43347   0.61732   0.00000  Uiso   1.00
O177   O     0.96516   0.62720   0.32684   0.00000  Uiso   1.00
O178   O     0.97551   0.88010   0.37856   0.00000  Uiso   1.00
N179   N     0.58939   0.53505   0.68940   0.00000  Uiso   1.00
N180   N     0.88988   0.67309   0.19504   0.00000  Uiso   1.00
N181   N     0.89726   0.85331   0.51932   0.00000  Uiso   1.00
N182   N     0.66113   0.45460   0.63531   0.00000  Uiso   1.00
N183   N     0.96162   0.59265   0.14095   0.00000  Uiso   1.00
N184   N     0.96900   0.77287   0.46523   0.00000  Uiso   1.00
C185   C     0.80577   0.28584   0.69404   0.00000  Uiso   1.00
C186   C     0.86930   0.24923   0.73940   0.00000  Uiso   1.00
C187   C     0.87790   0.17849   0.74739   0.00000  Uiso   1.00
C188   C     0.93978   0.15516   0.79120   0.00000  Uiso   1.00
C189   C     0.03062   0.09134   0.85632   0.00000  Uiso   1.00
C190   C     0.83126   0.33204   0.60003   0.00000  Uiso   1.00
C191   C     0.80787   0.33093   0.49085   0.00000  Uiso   1.00
C192   C     0.83773   0.37732   0.41735   0.00000  Uiso   1.00
C193   C     0.86948   0.44210   0.26613   0.00000  Uiso   1.00
C194   C     0.78159   0.33407   0.78627   0.00000  Uiso   1.00
C195   C     0.71644   0.33467   0.83366   0.00000  Uiso   1.00
C196   C     0.70448   0.38278   0.91695   0.00000  Uiso   1.00
C197   C     0.65912   0.45071   0.05489   0.00000  Uiso   1.00
C198   C     0.90038   0.37021   0.75765   0.00000  Uiso   1.00
C199   C     0.92068   0.29506   0.77394   0.00000  Uiso   1.00
C200   C     0.98257   0.27183   0.81776   0.00000  Uiso   1.00
C201   C     0.99126   0.20107   0.82582   0.00000  Uiso   1.00
C202   C     0.88264   0.37787   0.63457   0.00000  Uiso   1.00
C203   C     0.91254   0.42427   0.56122   0.00000  Uiso   1.00
C204   C     0.88921   0.42323   0.45196   0.00000  Uiso   1.00
C205   C     0.83298   0.37989   0.82082   0.00000  Uiso   1.00
C206   C     0.82112   0.42801   0.90404   0.00000  Uiso   1.00
C207   C     0.75596   0.42869   0.95156   0.00000  Uiso   1.00
H208   H     0.76577   0.25017   0.66714   0.00000  Uiso   1.00
H209   H     0.83812   0.14304   0.72063   0.00000  Uiso   1.00
H210   H     0.76810   0.29546   0.46414   0.00000  Uiso   1.00
H211   H     0.67669   0.29920   0.80691   0.00000  Uiso   1.00
H212   H     0.94101   0.04448   0.79514   0.00000  Uiso   1.00
H213   H     0.79336   0.36589   0.25433   0.00000  Uiso   1.00
H214   H     0.60060   0.37378   0.97711   0.00000  Uiso   1.00
H215   H     0.94038   0.40589   0.78454   0.00000  Uiso   1.00
H216   H     0.02232   0.30731   0.84449   0.00000  Uiso   1.00
H217   H     0.95230   0.45973   0.58799   0.00000  Uiso   1.00
H218   H     0.86089   0.46347   0.93076   0.00000  Uiso   1.00
H219   H     0.09052   0.17780   0.89566   0.00000  Uiso   1.00
H220   H     0.94286   0.49922   0.35484   0.00000  Uiso   1.00
H221   H     0.75010   0.50710   0.07763   0.00000  Uiso   1.00
O222   O     0.06653   0.04348   0.88268   0.00000  Uiso   1.00
O223   O     0.87280   0.46516   0.17316   0.00000  Uiso   1.00
O224   O     0.61990   0.47551   0.12144   0.00000  Uiso   1.00
N225   N     0.96495   0.08939   0.81060   0.00000  Uiso   1.00
N226   N     0.82691   0.38988   0.30496   0.00000  Uiso   1.00
N227   N     0.64669   0.39726   0.98068   0.00000  Uiso   1.00
N228   N     0.04540   0.16113   0.86469   0.00000  Uiso   1.00
N229   N     0.90735   0.46162   0.35905   0.00000  Uiso   1.00
N230   N     0.72713   0.46900   0.03477   0.00000  Uiso   1.00
C231   C     0.30577   0.78584   0.19404   0.00000  Uiso   1.00
C232   C     0.36930   0.74923   0.23940   0.00000  Uiso   1.00
C233   C     0.37790   0.67849   0.24739   0.00000  Uiso   1.00
C234   C     0.43978   0.65516   0.29120   0.00000  Uiso   1.00
C235   C     0.53062   0.59134   0.35632   0.00000  Uiso   1.00
C236   C     0.33126   0.83204   0.10003   0.00000  Uiso   1.00
C237   C     0.30787   0.83093   0.99085   0.00000  Uiso   1.00
C238   C     0.33773   0.87732   0.91735   0.00000  Uiso   1.00
C239   C     0.36948   0.94210   0.76613   0.00000  Uiso   1.00
C240   C     0.28159   0.83407   0.28627   0.00000  Uiso   1.00
C241   C     0.21644   0.83467   0.33366   0.00000  Uiso   1.00
C242   C     0.20448   0.88278   0.41695   0.00000  Uiso   1.00
C243   C     0.15912   0.95071   0.55489   0.00000  Uiso   1.00
C244   C     0.40038   0.87021   0.25765   0.00000  Uiso   1.00
C245   C     0.42068   0.79506   0.27394   0.00000  Uiso   1.00
C246   C     0.48257   0.77183   0.31776   0.00000  Uiso   1.00
C247   C     0.49126   0.70107   0.32582   0.00000  Uiso   1.00
C248   C     0.38264   0.87787   0.13457   0.00000  Uiso   1.00
C249   C     0.41254   0.92427   0.06122   0.00000  Uiso   1.00
C250   C     0.38921   0.92323   0.95196   0.00000  Uiso   1.00
C251   C     0.33298   0.87989   0.32082   0.00000  Uiso   1.00
C252   C     0.32112   0.92801   0.40404   0.00000  Uiso   1.00
C253   C     0.25596   0.92869   0.45156   0.00000  Uiso   1.00
H254   H     0.26577   0.75017   0.16714   0.00000  Uiso   1.00
H255   H     0.33812   0.64304   0.22063   0.00000  Uiso   1.00
H256   H     0.26810   0.79546   0.96414   0.00000  Uiso   1.00
H257   H     0.17669   0.79920   0.30691   0.00000  Uiso   1.00
H258   H     0.44101   0.54448   0.29514   0.00000  Uiso   1.00
H259   H     0.29336   0.86589   0.75433   0.00000  Uiso   1.00
H260   H     0.10060   0.87378   0.47711   0.00000  Uiso   1.00
H261   H     0.44038   0.90589   0.28454   0.00000  Uiso   1.00
H262   H     0.52232   0.80731   0.34449   0.00000  Uiso   1.00
H263   H     0.45230   0.95973   0.08799   0.00000  Uiso   1.00
H264   H     0.36089   0.96347   0.43076   0.00000  Uiso   1.00
H265   H     0.59052   0.67780   0.39566   0.00000  Uiso   1.00
H266   H     0.44286   0.99922   0.85484   0.00000  Uiso   1.00
H267   H     0.25010   0.00710   0.57763   0.00000  Uiso   1.00
O268   O     0.56653   0.54348   0.38268   0.00000  Uiso   1.00
O269   O     0.37280   0.96516   0.67316   0.00000  Uiso   1.00
O270   O     0.11990   0.97551   0.62144   0.00000  Uiso   1.00
N271   N     0.46495   0.58939   0.31060   0.00000  Uiso   1.00
N272   N     0.32691   0.88988   0.80496   0.00000  Uiso   1.00
N273   N     0.14669   0.89726   0.48068   0.00000  Uiso   1.00
N274   N     0.54540   0.66113   0.36469   0.00000  Uiso   1.00
N275   N     0.40735   0.96162   0.85905   0.00000  Uiso   1.00
N276   N     0.22713   0.96900   0.53477   0.00000  Uiso   1.00
C277   C     0.19423   0.71416   0.69404   0.00000  Uiso   1.00
C278   C     0.13070   0.75077   0.73940   0.00000  Uiso   1.00
C279   C     0.12210   0.82151   0.74739   0.00000  Uiso   1.00
C280   C     0.06022   0.84484   0.79120   0.00000  Uiso   1.00
C281   C     0.96938   0.90866   0.85632   0.00000  Uiso   1.00
C282   C     0.16874   0.66796   0.60003   0.00000  Uiso   1.00
C283   C     0.19213   0.66907   0.49085   0.00000  Uiso   1.00
C284   C     0.16227   0.62268   0.41735   0.00000  Uiso   1.00
C285   C     0.13052   0.55790   0.26613   0.00000  Uiso   1.00
C286   C     0.21841   0.66593   0.78627   0.00000  Uiso   1.00
C287   C     0.28356   0.66533   0.83366   0.00000  Uiso   1.00
C288   C     0.29552   0.61722   0.91695   0.00000  Uiso   1.00
C289   C     0.34088   0.54929   0.05489   0.00000  Uiso   1.00
C290   C     0.09962   0.62979   0.75765   0.00000  Uiso   1.00
C291   C     0.07932   0.70494   0.77394   0.00000  Uiso   1.00
C292   C     0.01743   0.72817   0.81776   0.00000  Uiso   1.00
C293   C     0.00874   0.79893   0.82582   0.00000  Uiso   1.00
C294   C     0.11736   0.62213   0.63457   0.00000  Uiso   1.00
C295   C     0.08746   0.57573   0.56122   0.00000  Uiso   1.00
C296   C     0.11079   0.57677   0.45196   0.00000  Uiso   1.00
C297   C     0.16702   0.62011   0.82082   0.00000  Uiso   1.00
C298   C     0.17888   0.57199   0.90404   0.00000  Uiso   1.00
C299   C     0.24404   0.57131   0.95156   0.00000  Uiso   1.00
H300   H     0.23423   0.74983   0.66714   0.00000  Uiso   1.00
H301   H     0.16188   0.85696   0.72063   0.00000  Uiso   1.00
H302   H     0.23190   0.70454   0.46414   0.00000  Uiso   1.00
H303   H     0.32331   0.70080   0.80691   0.00000  Uiso   1.00
H304   H     0.05899   0.95552   0.79514   0.00000  Uiso   1.00
H305   H     0.20664   0.63411   0.25433   0.00000  Uiso   1.00
H306   H     0.39940   0.62622   0.97711   0.00000  Uiso   1.00
H307   H     0.05962   0.59411   0.78454   0.00000  Uiso   1.00
H308   H     0.97768   0.69269   0.84449   0.00000  Uiso   1.00
H309   H     0.04770   0.54027   0.58799   0.00000  Uiso   1.00
H310   H     0.13911   0.53653   0.93076   0.00000  Uiso   1.00
H311   H     0.90948   0.82220   0.89566   0.00000  Uiso   1.00
H312   H     0.05714   0.50078   0.35484   0.00000  Uiso   1.00
H313   H     0.24990   0.49290   0.07763   0.00000  Uiso   1.00
O314   O     0.93347   0.95652   0.88268   0.00000  Uiso   1.00
O315   O     0.12720   0.53484   0.17316   0.00000  Uiso   1.00
O316   O     0.38010   0.52449   0.12144   0.00000  Uiso   1.00
N317   N     0.03505   0.91061   0.81060   0.00000  Uiso   1.00
N318   N     0.17309   0.61012   0.30496   0.00000  Uiso   1.00
N319   N     0.35331   0.60274   0.98068   0.00000  Uiso   1.00
N320   N     0.95460   0.83887   0.86469   0.00000  Uiso   1.00
N321   N     0.09265   0.53838   0.35905   0.00000  Uiso   1.00
N322   N     0.27287   0.53100   0.03477   0.00000  Uiso   1.00
C323   C     0.69423   0.21416   0.19404   0.00000  Uiso   1.00
C324   C     0.63070   0.25077   0.23940   0.00000  Uiso   1.00
C325   C     0.62210   0.32151   0.24739   0.00000  Uiso   1.00
C326   C     0.56022   0.34484   0.29120   0.00000  Uiso   1.00
C327   C     0.46938   0.40866   0.35632   0.00000  Uiso   1.00
C328   C     0.66874   0.16796   0.10003   0.00000  Uiso   1.00
C329   C     0.69213   0.16907   0.99085   0.00000  Uiso   1.00
C330   C     0.66227   0.12268   0.91735   0.00000  Uiso   1.00
C331   C     0.63052   0.05790   0.76613   0.00000  Uiso   1.00
C332   C     0.71841   0.16593   0.28627   0.00000  Uiso   1.00
C333   C     0.78356   0.16533   0.33366   0.00000  Uiso   1.00
C334   C     0.79552   0.11722   0.41695   0.00000  Uiso   1.00
C335   C     0.84088   0.04929   0.55489   0.00000  Uiso   1.00
C336   C     0.59962   0.12979   0.25765   0.00000  Uiso   1.00
C337   C     0.57932   0.20494   0.27394   0.00000  Uiso   1.00
C338   C     0.51743   0.22817   0.31776   0.00000  Uiso   1.00
C339   C     0.50874   0.29893   0.32582   0.00000  Uiso   1.00
C340   C     0.61736   0.12213   0.13457   0.00000  Uiso   1.00
C341   C     0.58746   0.07573   0.06122   0.00000  Uiso   1.00
C342   C     0.61079   0.07677   0.95196   0.00000  Uiso   1.00
C343   C     0.66702   0.12011   0.32082   0.00000  Uiso   1.00
C344   C     0.67888   0.07199   0.40404   0.00000  Uiso   1.00
C345   C     0.74404   0.07131   0.45156   0.00000  Uiso   1.00
H346   H     0.73423   0.24983   0.16714   0.00000  Uiso   1.00
H347   H     0.66188   0.35696   0.22063   0.00000  Uiso   1.00
H348   H     0.73190   0.20454   0.96414   0.00000  Uiso   1.00
H349   H     0.82331   0.20080   0.30691   0.00000  Uiso   1.00
H350   H     0.55899   0.45552   0.29514   0.00000  Uiso   1.00
H351   H     0.70664   0.13411   0.75433   0.00000  Uiso   1.00
H352   H     0.89940   0.12622   0.47711   0.00000  Uiso   1.00
H353   H     0.55962   0.09411   0.28454   0.00000  Uiso   1.00
H354   H     0.47768   0.19269   0.34449   0.00000  Uiso   1.00
H355   H     0.54770   0.04027   0.08799   0.00000  Uiso   1.00
H356   H     0.63911   0.03653   0.43076   0.00000  Uiso   1.00
H357   H     0.40948   0.32220   0.39566   0.00000  Uiso   1.00
H358   H     0.55714   0.00078   0.85484   0.00000  Uiso   1.00
H359   H     0.74990   0.99290   0.57763   0.00000  Uiso   1.00
O360   O     0.43347   0.45652   0.38268   0.00000  Uiso   1.00
O361   O     0.62720   0.03484   0.67316   0.00000  Uiso   1.00
O362   O     0.88010   0.02449   0.62144   0.00000  Uiso   1.00
N363   N     0.53505   0.41061   0.31060   0.00000  Uiso   1.00
N364   N     0.67309   0.11012   0.80496   0.00000  Uiso   1.00
N365   N     0.85331   0.10274   0.48068   0.00000  Uiso   1.00
N366   N     0.45460   0.33887   0.36469   0.00000  Uiso   1.00
N367   N     0.59265   0.03838   0.85905   0.00000  Uiso   1.00
N368   N     0.77287   0.03100   0.53477   0.00000  Uiso   1.00
