data_job_01546
_audit_creation_date              2018-12-19
_audit_creation_method            'Materials Studio'
_symmetry_space_group_name_H-M    'P1'
_symmetry_Int_Tables_number       1
_symmetry_cell_setting            triclinic
loop_
_symmetry_equiv_pos_as_xyz
  x,y,z
_cell_length_a                    8.8594
_cell_length_b                    10.1584
_cell_length_c                    17.0876
_cell_angle_alpha                 96.0221
_cell_angle_beta                  91.8693
_cell_angle_gamma                 81.9681
loop_
_atom_site_label
_atom_site_type_symbol
_atom_site_fract_x
_atom_site_fract_y
_atom_site_fract_z
_atom_site_U_iso_or_equiv
_atom_site_adp_type
_atom_site_occupancy
C1     C     0.01327   0.85427   0.76097   0.00000  Uiso   1.00
C2     C     0.02055   0.00327   0.76045   0.00000  Uiso   1.00
C3     C     0.92529   0.10585   0.80131   0.00000  Uiso   1.00
C4     C     0.95041   0.23555   0.79312   0.00000  Uiso   1.00
C5     C     0.94400   0.46295   0.79949   0.00000  Uiso   1.00
C6     C     0.99483   0.79959   0.67512   0.00000  Uiso   1.00
C7     C     0.87796   0.73092   0.64426   0.00000  Uiso   1.00
C8     C     0.88145   0.68914   0.56425   0.00000  Uiso   1.00
C9     C     0.83516   0.60025   0.43816   0.00000  Uiso   1.00
C10    C     0.17107   0.79277   0.78755   0.00000  Uiso   1.00
C11    C     0.20238   0.71832   0.85120   0.00000  Uiso   1.00
C12    C     0.35425   0.67078   0.86583   0.00000  Uiso   1.00
C13    C     0.58159   0.57129   0.91430   0.00000  Uiso   1.00
C14    C     0.22729   0.90217   0.67375   0.00000  Uiso   1.00
C15    C     0.13680   0.02928   0.71307   0.00000  Uiso   1.00
C16    C     0.16209   0.15886   0.70482   0.00000  Uiso   1.00
C17    C     0.06688   0.26162   0.74566   0.00000  Uiso   1.00
C18    C     0.11108   0.82561   0.62775   0.00000  Uiso   1.00
C19    C     0.11475   0.78392   0.54777   0.00000  Uiso   1.00
C20    C     0.99791   0.71521   0.51679   0.00000  Uiso   1.00
C21    C     0.28733   0.81879   0.74018   0.00000  Uiso   1.00
C22    C     0.43917   0.77134   0.75471   0.00000  Uiso   1.00
C23    C     0.47071   0.69684   0.81837   0.00000  Uiso   1.00
H24    H     0.92276   0.83400   0.79784   0.00000  Uiso   1.00
H25    H     0.83533   0.08567   0.83796   0.00000  Uiso   1.00
H26    H     0.78802   0.71078   0.68094   0.00000  Uiso   1.00
H27    H     0.11239   0.69821   0.88784   0.00000  Uiso   1.00
H28    H     0.78963   0.37618   0.86152   0.00000  Uiso   1.00
H29    H     0.68990   0.58566   0.53043   0.00000  Uiso   1.00
H30    H     0.37389   0.55913   0.96674   0.00000  Uiso   1.00
H31    H     0.31780   0.92243   0.63687   0.00000  Uiso   1.00
H32    H     0.25206   0.17896   0.66815   0.00000  Uiso   1.00
H33    H     0.20474   0.80407   0.51113   0.00000  Uiso   1.00
H34    H     0.52910   0.79149   0.71804   0.00000  Uiso   1.00
H35    H     0.12785   0.45189   0.72370   0.00000  Uiso   1.00
H36    H     0.02812   0.66137   0.39261   0.00000  Uiso   1.00
H37    H     0.71212   0.63485   0.82892   0.00000  Uiso   1.00
O38    O     0.90833   0.58119   0.81608   0.00000  Uiso   1.00
O39    O     0.77750   0.54404   0.38171   0.00000  Uiso   1.00
O40    O     0.67488   0.50925   0.95413   0.00000  Uiso   1.00
N41    N     0.87827   0.35879   0.82481   0.00000  Uiso   1.00
N42    N     0.78501   0.61972   0.51525   0.00000  Uiso   1.00
N43    N     0.42449   0.59489   0.92315   0.00000  Uiso   1.00
N44    N     0.06027   0.39953   0.75064   0.00000  Uiso   1.00
N45    N     0.96701   0.66046   0.44109   0.00000  Uiso   1.00
N46    N     0.60649   0.63563   0.84899   0.00000  Uiso   1.00
C47    C     0.98673   0.14573   0.23903   0.00000  Uiso   1.00
C48    C     0.97945   0.99673   0.23955   0.00000  Uiso   1.00
C49    C     0.07471   0.89415   0.19869   0.00000  Uiso   1.00
C50    C     0.04959   0.76445   0.20688   0.00000  Uiso   1.00
C51    C     0.05600   0.53705   0.20051   0.00000  Uiso   1.00
C52    C     0.00517   0.20041   0.32488   0.00000  Uiso   1.00
C53    C     0.12204   0.26908   0.35574   0.00000  Uiso   1.00
C54    C     0.11855   0.31086   0.43575   0.00000  Uiso   1.00
C55    C     0.16484   0.39975   0.56184   0.00000  Uiso   1.00
C56    C     0.82893   0.20723   0.21245   0.00000  Uiso   1.00
C57    C     0.79762   0.28168   0.14880   0.00000  Uiso   1.00
C58    C     0.64575   0.32922   0.13417   0.00000  Uiso   1.00
C59    C     0.41841   0.42871   0.08570   0.00000  Uiso   1.00
C60    C     0.77271   0.09783   0.32625   0.00000  Uiso   1.00
C61    C     0.86320   0.97072   0.28693   0.00000  Uiso   1.00
C62    C     0.83791   0.84114   0.29518   0.00000  Uiso   1.00
C63    C     0.93312   0.73838   0.25434   0.00000  Uiso   1.00
C64    C     0.88892   0.17439   0.37225   0.00000  Uiso   1.00
C65    C     0.88525   0.21608   0.45223   0.00000  Uiso   1.00
C66    C     0.00209   0.28479   0.48321   0.00000  Uiso   1.00
C67    C     0.71267   0.18121   0.25982   0.00000  Uiso   1.00
C68    C     0.56083   0.22866   0.24529   0.00000  Uiso   1.00
C69    C     0.52929   0.30316   0.18163   0.00000  Uiso   1.00
H70    H     0.07724   0.16600   0.20216   0.00000  Uiso   1.00
H71    H     0.16467   0.91433   0.16204   0.00000  Uiso   1.00
H72    H     0.21198   0.28922   0.31906   0.00000  Uiso   1.00
H73    H     0.88761   0.30179   0.11216   0.00000  Uiso   1.00
H74    H     0.21037   0.62382   0.13848   0.00000  Uiso   1.00
H75    H     0.31010   0.41434   0.46957   0.00000  Uiso   1.00
H76    H     0.62611   0.44087   0.03326   0.00000  Uiso   1.00
H77    H     0.68220   0.07757   0.36313   0.00000  Uiso   1.00
H78    H     0.74794   0.82104   0.33185   0.00000  Uiso   1.00
H79    H     0.79526   0.19593   0.48887   0.00000  Uiso   1.00
H80    H     0.47090   0.20851   0.28196   0.00000  Uiso   1.00
H81    H     0.87215   0.54811   0.27630   0.00000  Uiso   1.00
H82    H     0.97188   0.33863   0.60739   0.00000  Uiso   1.00
H83    H     0.28788   0.36515   0.17108   0.00000  Uiso   1.00
O84    O     0.09167   0.41881   0.18392   0.00000  Uiso   1.00
O85    O     0.22250   0.45596   0.61829   0.00000  Uiso   1.00
O86    O     0.32512   0.49075   0.04587   0.00000  Uiso   1.00
N87    N     0.12173   0.64121   0.17519   0.00000  Uiso   1.00
N88    N     0.21499   0.38028   0.48475   0.00000  Uiso   1.00
N89    N     0.57551   0.40511   0.07685   0.00000  Uiso   1.00
N90    N     0.93973   0.60047   0.24936   0.00000  Uiso   1.00
N91    N     0.03299   0.33954   0.55891   0.00000  Uiso   1.00
N92    N     0.39351   0.36437   0.15101   0.00000  Uiso   1.00
