data_job_01053
_audit_creation_date              2018-12-19
_audit_creation_method            'Materials Studio'
_symmetry_space_group_name_H-M    'P1'
_symmetry_Int_Tables_number       1
_symmetry_cell_setting            triclinic
loop_
_symmetry_equiv_pos_as_xyz
  x,y,z
_cell_length_a                    31.9011
_cell_length_b                    12.0476
_cell_length_c                    14.5131
_cell_angle_alpha                 90.0000
_cell_angle_beta                  64.9811
_cell_angle_gamma                 90.0000
loop_
_atom_site_label
_atom_site_type_symbol
_atom_site_fract_x
_atom_site_fract_y
_atom_site_fract_z
_atom_site_U_iso_or_equiv
_atom_site_adp_type
_atom_site_occupancy
C1     C     0.09134   0.87519   0.20508   0.00000  Uiso   1.00
C2     C     0.12761   0.96391   0.19127   0.00000  Uiso   1.00
C3     C     0.12886   0.06942   0.15183   0.00000  Uiso   1.00
C4     C     0.16489   0.13831   0.14541   0.00000  Uiso   1.00
C5     C     0.21612   0.28144   0.11908   0.00000  Uiso   1.00
C6     C     0.11795   0.77358   0.14693   0.00000  Uiso   1.00
C7     C     0.11106   0.71905   0.07022   0.00000  Uiso   1.00
C8     C     0.13894   0.62771   0.02648   0.00000  Uiso   1.00
C9     C     0.17514   0.47529   0.93135   0.00000  Uiso   1.00
C10    C     0.07079   0.84334   0.31726   0.00000  Uiso   1.00
C11    C     0.02425   0.84744   0.38377   0.00000  Uiso   1.00
C12    C     0.01244   0.81480   0.48344   0.00000  Uiso   1.00
C13    C     0.97542   0.77071   0.65279   0.00000  Uiso   1.00
C14    C     0.15310   0.80990   0.26381   0.00000  Uiso   1.00
C15    C     0.16116   0.92844   0.22317   0.00000  Uiso   1.00
C16    C     0.19719   0.99718   0.21681   0.00000  Uiso   1.00
C17    C     0.19849   0.10278   0.17737   0.00000  Uiso   1.00
C18    C     0.15149   0.73811   0.17882   0.00000  Uiso   1.00
C19    C     0.17939   0.64681   0.13519   0.00000  Uiso   1.00
C20    C     0.17255   0.59218   0.05843   0.00000  Uiso   1.00
C21    C     0.10434   0.80787   0.34917   0.00000  Uiso   1.00
C22    C     0.09259   0.77521   0.44875   0.00000  Uiso   1.00
C23    C     0.04604   0.77927   0.51540   0.00000  Uiso   1.00
H24    H     0.06523   0.90280   0.18024   0.00000  Uiso   1.00
H25    H     0.10290   0.09683   0.12715   0.00000  Uiso   1.00
H26    H     0.08509   0.74651   0.04555   0.00000  Uiso   1.00
H27    H     0.99831   0.87489   0.35906   0.00000  Uiso   1.00
H28    H     0.15946   0.29631   0.08232   0.00000  Uiso   1.00
H29    H     0.12191   0.55762   0.91030   0.00000  Uiso   1.00
H30    H     0.93890   0.82832   0.57139   0.00000  Uiso   1.00
H31    H     0.17922   0.78228   0.28864   0.00000  Uiso   1.00
H32    H     0.22315   0.96971   0.24150   0.00000  Uiso   1.00
H33    H     0.20534   0.61939   0.15990   0.00000  Uiso   1.00
H34    H     0.11856   0.74777   0.47341   0.00000  Uiso   1.00
H35    H     0.25707   0.19313   0.17513   0.00000  Uiso   1.00
H36    H     0.21951   0.45443   0.00311   0.00000  Uiso   1.00
H37    H     0.03651   0.72514   0.66420   0.00000  Uiso   1.00
O38    O     0.23511   0.37018   0.09573   0.00000  Uiso   1.00
O39    O     0.18584   0.40103   0.87005   0.00000  Uiso   1.00
O40    O     0.94574   0.75620   0.73739   0.00000  Uiso   1.00
N41    N     0.17640   0.24631   0.11065   0.00000  Uiso   1.00
N42    N     0.14130   0.55569   0.94981   0.00000  Uiso   1.00
N43    N     0.97020   0.80875   0.56786   0.00000  Uiso   1.00
N44    N     0.22892   0.19079   0.16059   0.00000  Uiso   1.00
N45    N     0.19382   0.50017   0.99975   0.00000  Uiso   1.00
N46    N     0.02272   0.75323   0.61781   0.00000  Uiso   1.00
C47    C     0.59134   0.37519   0.20508   0.00000  Uiso   1.00
C48    C     0.62761   0.46391   0.19127   0.00000  Uiso   1.00
C49    C     0.62886   0.56942   0.15183   0.00000  Uiso   1.00
C50    C     0.66489   0.63831   0.14541   0.00000  Uiso   1.00
C51    C     0.71612   0.78144   0.11908   0.00000  Uiso   1.00
C52    C     0.61795   0.27358   0.14693   0.00000  Uiso   1.00
C53    C     0.61106   0.21905   0.07022   0.00000  Uiso   1.00
C54    C     0.63894   0.12771   0.02648   0.00000  Uiso   1.00
C55    C     0.67514   0.97529   0.93135   0.00000  Uiso   1.00
C56    C     0.57079   0.34334   0.31726   0.00000  Uiso   1.00
C57    C     0.52425   0.34744   0.38377   0.00000  Uiso   1.00
C58    C     0.51244   0.31480   0.48344   0.00000  Uiso   1.00
C59    C     0.47542   0.27071   0.65279   0.00000  Uiso   1.00
C60    C     0.65310   0.30990   0.26381   0.00000  Uiso   1.00
C61    C     0.66116   0.42844   0.22317   0.00000  Uiso   1.00
C62    C     0.69719   0.49718   0.21681   0.00000  Uiso   1.00
C63    C     0.69849   0.60278   0.17737   0.00000  Uiso   1.00
C64    C     0.65149   0.23811   0.17882   0.00000  Uiso   1.00
C65    C     0.67939   0.14681   0.13519   0.00000  Uiso   1.00
C66    C     0.67255   0.09218   0.05843   0.00000  Uiso   1.00
C67    C     0.60434   0.30787   0.34917   0.00000  Uiso   1.00
C68    C     0.59259   0.27521   0.44875   0.00000  Uiso   1.00
C69    C     0.54604   0.27927   0.51540   0.00000  Uiso   1.00
H70    H     0.56523   0.40280   0.18024   0.00000  Uiso   1.00
H71    H     0.60290   0.59683   0.12715   0.00000  Uiso   1.00
H72    H     0.58509   0.24651   0.04555   0.00000  Uiso   1.00
H73    H     0.49831   0.37489   0.35906   0.00000  Uiso   1.00
H74    H     0.65946   0.79631   0.08232   0.00000  Uiso   1.00
H75    H     0.62191   0.05762   0.91030   0.00000  Uiso   1.00
H76    H     0.43890   0.32832   0.57139   0.00000  Uiso   1.00
H77    H     0.67922   0.28228   0.28864   0.00000  Uiso   1.00
H78    H     0.72315   0.46971   0.24150   0.00000  Uiso   1.00
H79    H     0.70534   0.11939   0.15990   0.00000  Uiso   1.00
H80    H     0.61856   0.24777   0.47341   0.00000  Uiso   1.00
H81    H     0.75707   0.69313   0.17513   0.00000  Uiso   1.00
H82    H     0.71951   0.95443   0.00311   0.00000  Uiso   1.00
H83    H     0.53651   0.22514   0.66420   0.00000  Uiso   1.00
O84    O     0.73511   0.87018   0.09573   0.00000  Uiso   1.00
O85    O     0.68584   0.90103   0.87005   0.00000  Uiso   1.00
O86    O     0.44574   0.25620   0.73739   0.00000  Uiso   1.00
N87    N     0.67640   0.74631   0.11065   0.00000  Uiso   1.00
N88    N     0.64130   0.05569   0.94981   0.00000  Uiso   1.00
N89    N     0.47020   0.30875   0.56786   0.00000  Uiso   1.00
N90    N     0.72892   0.69079   0.16059   0.00000  Uiso   1.00
N91    N     0.69382   0.00017   0.99975   0.00000  Uiso   1.00
N92    N     0.52272   0.25323   0.61781   0.00000  Uiso   1.00
C93    C     0.90866   0.87519   0.29492   0.00000  Uiso   1.00
C94    C     0.87239   0.96391   0.30873   0.00000  Uiso   1.00
C95    C     0.87114   0.06942   0.34817   0.00000  Uiso   1.00
C96    C     0.83511   0.13831   0.35459   0.00000  Uiso   1.00
C97    C     0.78388   0.28144   0.38092   0.00000  Uiso   1.00
C98    C     0.88205   0.77358   0.35307   0.00000  Uiso   1.00
C99    C     0.88894   0.71905   0.42978   0.00000  Uiso   1.00
C100   C     0.86106   0.62771   0.47352   0.00000  Uiso   1.00
C101   C     0.82486   0.47529   0.56865   0.00000  Uiso   1.00
C102   C     0.92921   0.84334   0.18274   0.00000  Uiso   1.00
C103   C     0.97575   0.84744   0.11623   0.00000  Uiso   1.00
C104   C     0.98756   0.81480   0.01656   0.00000  Uiso   1.00
C105   C     0.02458   0.77071   0.84721   0.00000  Uiso   1.00
C106   C     0.84690   0.80990   0.23619   0.00000  Uiso   1.00
C107   C     0.83884   0.92844   0.27683   0.00000  Uiso   1.00
C108   C     0.80281   0.99718   0.28319   0.00000  Uiso   1.00
C109   C     0.80151   0.10278   0.32263   0.00000  Uiso   1.00
C110   C     0.84851   0.73811   0.32118   0.00000  Uiso   1.00
C111   C     0.82061   0.64681   0.36481   0.00000  Uiso   1.00
C112   C     0.82745   0.59218   0.44157   0.00000  Uiso   1.00
C113   C     0.89566   0.80787   0.15083   0.00000  Uiso   1.00
C114   C     0.90741   0.77521   0.05125   0.00000  Uiso   1.00
C115   C     0.95396   0.77927   0.98460   0.00000  Uiso   1.00
H116   H     0.93477   0.90280   0.31976   0.00000  Uiso   1.00
H117   H     0.89710   0.09683   0.37285   0.00000  Uiso   1.00
H118   H     0.91491   0.74651   0.45445   0.00000  Uiso   1.00
H119   H     0.00169   0.87489   0.14094   0.00000  Uiso   1.00
H120   H     0.84054   0.29631   0.41768   0.00000  Uiso   1.00
H121   H     0.87809   0.55762   0.58970   0.00000  Uiso   1.00
H122   H     0.06110   0.82832   0.92861   0.00000  Uiso   1.00
H123   H     0.82078   0.78228   0.21136   0.00000  Uiso   1.00
H124   H     0.77685   0.96971   0.25850   0.00000  Uiso   1.00
H125   H     0.79466   0.61939   0.34010   0.00000  Uiso   1.00
H126   H     0.88144   0.74777   0.02659   0.00000  Uiso   1.00
H127   H     0.74293   0.19313   0.32487   0.00000  Uiso   1.00
H128   H     0.78049   0.45443   0.49689   0.00000  Uiso   1.00
H129   H     0.96349   0.72514   0.83580   0.00000  Uiso   1.00
O130   O     0.76489   0.37018   0.40427   0.00000  Uiso   1.00
O131   O     0.81416   0.40103   0.62995   0.00000  Uiso   1.00
O132   O     0.05426   0.75620   0.76261   0.00000  Uiso   1.00
N133   N     0.82360   0.24631   0.38935   0.00000  Uiso   1.00
N134   N     0.85870   0.55569   0.55019   0.00000  Uiso   1.00
N135   N     0.02980   0.80875   0.93214   0.00000  Uiso   1.00
N136   N     0.77108   0.19079   0.33941   0.00000  Uiso   1.00
N137   N     0.80618   0.50017   0.50025   0.00000  Uiso   1.00
N138   N     0.97728   0.75323   0.88219   0.00000  Uiso   1.00
C139   C     0.40866   0.37519   0.29492   0.00000  Uiso   1.00
C140   C     0.37239   0.46391   0.30873   0.00000  Uiso   1.00
C141   C     0.37114   0.56942   0.34817   0.00000  Uiso   1.00
C142   C     0.33511   0.63831   0.35459   0.00000  Uiso   1.00
C143   C     0.28388   0.78144   0.38092   0.00000  Uiso   1.00
C144   C     0.38205   0.27358   0.35307   0.00000  Uiso   1.00
C145   C     0.38894   0.21905   0.42978   0.00000  Uiso   1.00
C146   C     0.36106   0.12771   0.47352   0.00000  Uiso   1.00
C147   C     0.32486   0.97529   0.56865   0.00000  Uiso   1.00
C148   C     0.42921   0.34334   0.18274   0.00000  Uiso   1.00
C149   C     0.47575   0.34744   0.11623   0.00000  Uiso   1.00
C150   C     0.48756   0.31480   0.01656   0.00000  Uiso   1.00
C151   C     0.52458   0.27071   0.84721   0.00000  Uiso   1.00
C152   C     0.34690   0.30990   0.23619   0.00000  Uiso   1.00
C153   C     0.33884   0.42844   0.27683   0.00000  Uiso   1.00
C154   C     0.30281   0.49718   0.28319   0.00000  Uiso   1.00
C155   C     0.30151   0.60278   0.32263   0.00000  Uiso   1.00
C156   C     0.34851   0.23811   0.32118   0.00000  Uiso   1.00
C157   C     0.32061   0.14681   0.36481   0.00000  Uiso   1.00
C158   C     0.32745   0.09218   0.44157   0.00000  Uiso   1.00
C159   C     0.39566   0.30787   0.15083   0.00000  Uiso   1.00
C160   C     0.40741   0.27521   0.05125   0.00000  Uiso   1.00
C161   C     0.45396   0.27927   0.98460   0.00000  Uiso   1.00
H162   H     0.43477   0.40280   0.31976   0.00000  Uiso   1.00
H163   H     0.39710   0.59683   0.37285   0.00000  Uiso   1.00
H164   H     0.41491   0.24651   0.45445   0.00000  Uiso   1.00
H165   H     0.50169   0.37489   0.14094   0.00000  Uiso   1.00
H166   H     0.34054   0.79631   0.41768   0.00000  Uiso   1.00
H167   H     0.37809   0.05762   0.58970   0.00000  Uiso   1.00
H168   H     0.56110   0.32832   0.92861   0.00000  Uiso   1.00
H169   H     0.32078   0.28228   0.21136   0.00000  Uiso   1.00
H170   H     0.27685   0.46971   0.25850   0.00000  Uiso   1.00
H171   H     0.29466   0.11939   0.34010   0.00000  Uiso   1.00
H172   H     0.38144   0.24777   0.02659   0.00000  Uiso   1.00
H173   H     0.24293   0.69313   0.32487   0.00000  Uiso   1.00
H174   H     0.28049   0.95443   0.49689   0.00000  Uiso   1.00
H175   H     0.46349   0.22514   0.83580   0.00000  Uiso   1.00
O176   O     0.26489   0.87018   0.40427   0.00000  Uiso   1.00
O177   O     0.31416   0.90103   0.62995   0.00000  Uiso   1.00
O178   O     0.55426   0.25620   0.76261   0.00000  Uiso   1.00
N179   N     0.32360   0.74631   0.38935   0.00000  Uiso   1.00
N180   N     0.35870   0.05569   0.55019   0.00000  Uiso   1.00
N181   N     0.52980   0.30875   0.93214   0.00000  Uiso   1.00
N182   N     0.27108   0.69079   0.33941   0.00000  Uiso   1.00
N183   N     0.30618   0.00017   0.50025   0.00000  Uiso   1.00
N184   N     0.47728   0.25323   0.88219   0.00000  Uiso   1.00
C185   C     0.90866   0.12481   0.79492   0.00000  Uiso   1.00
C186   C     0.87239   0.03609   0.80873   0.00000  Uiso   1.00
C187   C     0.87114   0.93058   0.84817   0.00000  Uiso   1.00
C188   C     0.83511   0.86169   0.85459   0.00000  Uiso   1.00
C189   C     0.78388   0.71856   0.88092   0.00000  Uiso   1.00
C190   C     0.88205   0.22642   0.85307   0.00000  Uiso   1.00
C191   C     0.88894   0.28095   0.92978   0.00000  Uiso   1.00
C192   C     0.86106   0.37229   0.97352   0.00000  Uiso   1.00
C193   C     0.82486   0.52471   0.06865   0.00000  Uiso   1.00
C194   C     0.92921   0.15666   0.68274   0.00000  Uiso   1.00
C195   C     0.97575   0.15256   0.61623   0.00000  Uiso   1.00
C196   C     0.98756   0.18520   0.51656   0.00000  Uiso   1.00
C197   C     0.02458   0.22929   0.34721   0.00000  Uiso   1.00
C198   C     0.84690   0.19010   0.73619   0.00000  Uiso   1.00
C199   C     0.83884   0.07156   0.77683   0.00000  Uiso   1.00
C200   C     0.80281   0.00282   0.78319   0.00000  Uiso   1.00
C201   C     0.80151   0.89722   0.82263   0.00000  Uiso   1.00
C202   C     0.84851   0.26189   0.82118   0.00000  Uiso   1.00
C203   C     0.82061   0.35319   0.86481   0.00000  Uiso   1.00
C204   C     0.82745   0.40782   0.94157   0.00000  Uiso   1.00
C205   C     0.89566   0.19213   0.65083   0.00000  Uiso   1.00
C206   C     0.90741   0.22479   0.55125   0.00000  Uiso   1.00
C207   C     0.95396   0.22073   0.48460   0.00000  Uiso   1.00
H208   H     0.93477   0.09720   0.81976   0.00000  Uiso   1.00
H209   H     0.89710   0.90317   0.87285   0.00000  Uiso   1.00
H210   H     0.91491   0.25349   0.95445   0.00000  Uiso   1.00
H211   H     0.00169   0.12511   0.64094   0.00000  Uiso   1.00
H212   H     0.84054   0.70369   0.91768   0.00000  Uiso   1.00
H213   H     0.87809   0.44238   0.08970   0.00000  Uiso   1.00
H214   H     0.06110   0.17168   0.42861   0.00000  Uiso   1.00
H215   H     0.82078   0.21772   0.71136   0.00000  Uiso   1.00
H216   H     0.77685   0.03029   0.75850   0.00000  Uiso   1.00
H217   H     0.79466   0.38061   0.84010   0.00000  Uiso   1.00
H218   H     0.88144   0.25223   0.52659   0.00000  Uiso   1.00
H219   H     0.74293   0.80687   0.82487   0.00000  Uiso   1.00
H220   H     0.78049   0.54557   0.99689   0.00000  Uiso   1.00
H221   H     0.96349   0.27486   0.33580   0.00000  Uiso   1.00
O222   O     0.76489   0.62982   0.90427   0.00000  Uiso   1.00
O223   O     0.81416   0.59897   0.12995   0.00000  Uiso   1.00
O224   O     0.05426   0.24380   0.26261   0.00000  Uiso   1.00
N225   N     0.82360   0.75369   0.88935   0.00000  Uiso   1.00
N226   N     0.85870   0.44431   0.05019   0.00000  Uiso   1.00
N227   N     0.02980   0.19125   0.43214   0.00000  Uiso   1.00
N228   N     0.77108   0.80921   0.83941   0.00000  Uiso   1.00
N229   N     0.80618   0.49983   0.00025   0.00000  Uiso   1.00
N230   N     0.97728   0.24677   0.38219   0.00000  Uiso   1.00
C231   C     0.40866   0.62481   0.79492   0.00000  Uiso   1.00
C232   C     0.37239   0.53609   0.80873   0.00000  Uiso   1.00
C233   C     0.37114   0.43058   0.84817   0.00000  Uiso   1.00
C234   C     0.33511   0.36169   0.85459   0.00000  Uiso   1.00
C235   C     0.28388   0.21856   0.88092   0.00000  Uiso   1.00
C236   C     0.38205   0.72642   0.85307   0.00000  Uiso   1.00
C237   C     0.38894   0.78095   0.92978   0.00000  Uiso   1.00
C238   C     0.36106   0.87229   0.97352   0.00000  Uiso   1.00
C239   C     0.32486   0.02471   0.06865   0.00000  Uiso   1.00
C240   C     0.42921   0.65666   0.68274   0.00000  Uiso   1.00
C241   C     0.47575   0.65256   0.61623   0.00000  Uiso   1.00
C242   C     0.48756   0.68520   0.51656   0.00000  Uiso   1.00
C243   C     0.52458   0.72929   0.34721   0.00000  Uiso   1.00
C244   C     0.34690   0.69010   0.73619   0.00000  Uiso   1.00
C245   C     0.33884   0.57156   0.77683   0.00000  Uiso   1.00
C246   C     0.30281   0.50282   0.78319   0.00000  Uiso   1.00
C247   C     0.30151   0.39722   0.82263   0.00000  Uiso   1.00
C248   C     0.34851   0.76189   0.82118   0.00000  Uiso   1.00
C249   C     0.32061   0.85319   0.86481   0.00000  Uiso   1.00
C250   C     0.32745   0.90782   0.94157   0.00000  Uiso   1.00
C251   C     0.39566   0.69213   0.65083   0.00000  Uiso   1.00
C252   C     0.40741   0.72479   0.55125   0.00000  Uiso   1.00
C253   C     0.45396   0.72073   0.48460   0.00000  Uiso   1.00
H254   H     0.43477   0.59720   0.81976   0.00000  Uiso   1.00
H255   H     0.39710   0.40317   0.87285   0.00000  Uiso   1.00
H256   H     0.41491   0.75349   0.95445   0.00000  Uiso   1.00
H257   H     0.50169   0.62511   0.64094   0.00000  Uiso   1.00
H258   H     0.34054   0.20369   0.91768   0.00000  Uiso   1.00
H259   H     0.37809   0.94238   0.08970   0.00000  Uiso   1.00
H260   H     0.56110   0.67168   0.42861   0.00000  Uiso   1.00
H261   H     0.32078   0.71772   0.71136   0.00000  Uiso   1.00
H262   H     0.27685   0.53029   0.75850   0.00000  Uiso   1.00
H263   H     0.29466   0.88061   0.84010   0.00000  Uiso   1.00
H264   H     0.38144   0.75223   0.52659   0.00000  Uiso   1.00
H265   H     0.24293   0.30687   0.82487   0.00000  Uiso   1.00
H266   H     0.28049   0.04557   0.99689   0.00000  Uiso   1.00
H267   H     0.46349   0.77486   0.33580   0.00000  Uiso   1.00
O268   O     0.26489   0.12982   0.90427   0.00000  Uiso   1.00
O269   O     0.31416   0.09897   0.12995   0.00000  Uiso   1.00
O270   O     0.55426   0.74380   0.26261   0.00000  Uiso   1.00
N271   N     0.32360   0.25369   0.88935   0.00000  Uiso   1.00
N272   N     0.35870   0.94431   0.05019   0.00000  Uiso   1.00
N273   N     0.52980   0.69125   0.43214   0.00000  Uiso   1.00
N274   N     0.27108   0.30921   0.83941   0.00000  Uiso   1.00
N275   N     0.30618   0.99983   0.00025   0.00000  Uiso   1.00
N276   N     0.47728   0.74677   0.38219   0.00000  Uiso   1.00
C277   C     0.09134   0.12481   0.70508   0.00000  Uiso   1.00
C278   C     0.12761   0.03609   0.69127   0.00000  Uiso   1.00
C279   C     0.12886   0.93058   0.65183   0.00000  Uiso   1.00
C280   C     0.16489   0.86169   0.64541   0.00000  Uiso   1.00
C281   C     0.21612   0.71856   0.61908   0.00000  Uiso   1.00
C282   C     0.11795   0.22642   0.64693   0.00000  Uiso   1.00
C283   C     0.11106   0.28095   0.57022   0.00000  Uiso   1.00
C284   C     0.13894   0.37229   0.52648   0.00000  Uiso   1.00
C285   C     0.17514   0.52471   0.43135   0.00000  Uiso   1.00
C286   C     0.07079   0.15666   0.81726   0.00000  Uiso   1.00
C287   C     0.02425   0.15256   0.88377   0.00000  Uiso   1.00
C288   C     0.01244   0.18520   0.98344   0.00000  Uiso   1.00
C289   C     0.97542   0.22929   0.15279   0.00000  Uiso   1.00
C290   C     0.15310   0.19010   0.76381   0.00000  Uiso   1.00
C291   C     0.16116   0.07156   0.72317   0.00000  Uiso   1.00
C292   C     0.19719   0.00282   0.71681   0.00000  Uiso   1.00
C293   C     0.19849   0.89722   0.67737   0.00000  Uiso   1.00
C294   C     0.15149   0.26189   0.67882   0.00000  Uiso   1.00
C295   C     0.17939   0.35319   0.63519   0.00000  Uiso   1.00
C296   C     0.17255   0.40782   0.55843   0.00000  Uiso   1.00
C297   C     0.10434   0.19213   0.84917   0.00000  Uiso   1.00
C298   C     0.09259   0.22479   0.94875   0.00000  Uiso   1.00
C299   C     0.04604   0.22073   0.01540   0.00000  Uiso   1.00
H300   H     0.06523   0.09720   0.68024   0.00000  Uiso   1.00
H301   H     0.10290   0.90317   0.62715   0.00000  Uiso   1.00
H302   H     0.08509   0.25349   0.54555   0.00000  Uiso   1.00
H303   H     0.99831   0.12511   0.85906   0.00000  Uiso   1.00
H304   H     0.15946   0.70369   0.58232   0.00000  Uiso   1.00
H305   H     0.12191   0.44238   0.41030   0.00000  Uiso   1.00
H306   H     0.93890   0.17168   0.07139   0.00000  Uiso   1.00
H307   H     0.17922   0.21772   0.78864   0.00000  Uiso   1.00
H308   H     0.22315   0.03029   0.74150   0.00000  Uiso   1.00
H309   H     0.20534   0.38061   0.65990   0.00000  Uiso   1.00
H310   H     0.11856   0.25223   0.97341   0.00000  Uiso   1.00
H311   H     0.25707   0.80687   0.67513   0.00000  Uiso   1.00
H312   H     0.21951   0.54557   0.50311   0.00000  Uiso   1.00
H313   H     0.03651   0.27486   0.16420   0.00000  Uiso   1.00
O314   O     0.23511   0.62982   0.59573   0.00000  Uiso   1.00
O315   O     0.18584   0.59897   0.37005   0.00000  Uiso   1.00
O316   O     0.94574   0.24380   0.23739   0.00000  Uiso   1.00
N317   N     0.17640   0.75369   0.61065   0.00000  Uiso   1.00
N318   N     0.14130   0.44431   0.44981   0.00000  Uiso   1.00
N319   N     0.97020   0.19125   0.06786   0.00000  Uiso   1.00
N320   N     0.22892   0.80921   0.66059   0.00000  Uiso   1.00
N321   N     0.19382   0.49983   0.49975   0.00000  Uiso   1.00
N322   N     0.02272   0.24677   0.11781   0.00000  Uiso   1.00
C323   C     0.59134   0.62481   0.70508   0.00000  Uiso   1.00
C324   C     0.62761   0.53609   0.69127   0.00000  Uiso   1.00
C325   C     0.62886   0.43058   0.65183   0.00000  Uiso   1.00
C326   C     0.66489   0.36169   0.64541   0.00000  Uiso   1.00
C327   C     0.71612   0.21856   0.61908   0.00000  Uiso   1.00
C328   C     0.61795   0.72642   0.64693   0.00000  Uiso   1.00
C329   C     0.61106   0.78095   0.57022   0.00000  Uiso   1.00
C330   C     0.63894   0.87229   0.52648   0.00000  Uiso   1.00
C331   C     0.67514   0.02471   0.43135   0.00000  Uiso   1.00
C332   C     0.57079   0.65666   0.81726   0.00000  Uiso   1.00
C333   C     0.52425   0.65256   0.88377   0.00000  Uiso   1.00
C334   C     0.51244   0.68520   0.98344   0.00000  Uiso   1.00
C335   C     0.47542   0.72929   0.15279   0.00000  Uiso   1.00
C336   C     0.65310   0.69010   0.76381   0.00000  Uiso   1.00
C337   C     0.66116   0.57156   0.72317   0.00000  Uiso   1.00
C338   C     0.69719   0.50282   0.71681   0.00000  Uiso   1.00
C339   C     0.69849   0.39722   0.67737   0.00000  Uiso   1.00
C340   C     0.65149   0.76189   0.67882   0.00000  Uiso   1.00
C341   C     0.67939   0.85319   0.63519   0.00000  Uiso   1.00
C342   C     0.67255   0.90782   0.55843   0.00000  Uiso   1.00
C343   C     0.60434   0.69213   0.84917   0.00000  Uiso   1.00
C344   C     0.59259   0.72479   0.94875   0.00000  Uiso   1.00
C345   C     0.54604   0.72073   0.01540   0.00000  Uiso   1.00
H346   H     0.56523   0.59720   0.68024   0.00000  Uiso   1.00
H347   H     0.60290   0.40317   0.62715   0.00000  Uiso   1.00
H348   H     0.58509   0.75349   0.54555   0.00000  Uiso   1.00
H349   H     0.49831   0.62511   0.85906   0.00000  Uiso   1.00
H350   H     0.65946   0.20369   0.58232   0.00000  Uiso   1.00
H351   H     0.62191   0.94238   0.41030   0.00000  Uiso   1.00
H352   H     0.43890   0.67168   0.07139   0.00000  Uiso   1.00
H353   H     0.67922   0.71772   0.78864   0.00000  Uiso   1.00
H354   H     0.72315   0.53029   0.74150   0.00000  Uiso   1.00
H355   H     0.70534   0.88061   0.65990   0.00000  Uiso   1.00
H356   H     0.61856   0.75223   0.97341   0.00000  Uiso   1.00
H357   H     0.75707   0.30687   0.67513   0.00000  Uiso   1.00
H358   H     0.71951   0.04557   0.50311   0.00000  Uiso   1.00
H359   H     0.53651   0.77486   0.16420   0.00000  Uiso   1.00
O360   O     0.73511   0.12982   0.59573   0.00000  Uiso   1.00
O361   O     0.68584   0.09897   0.37005   0.00000  Uiso   1.00
O362   O     0.44574   0.74380   0.23739   0.00000  Uiso   1.00
N363   N     0.67640   0.25369   0.61065   0.00000  Uiso   1.00
N364   N     0.64130   0.94431   0.44981   0.00000  Uiso   1.00
N365   N     0.47020   0.69125   0.06786   0.00000  Uiso   1.00
N366   N     0.72892   0.30921   0.66059   0.00000  Uiso   1.00
N367   N     0.69382   0.99983   0.49975   0.00000  Uiso   1.00
N368   N     0.52272   0.74677   0.11781   0.00000  Uiso   1.00
