data_job_01140
_audit_creation_date              2018-12-19
_audit_creation_method            'Materials Studio'
_symmetry_space_group_name_H-M    'P1'
_symmetry_Int_Tables_number       1
_symmetry_cell_setting            triclinic
loop_
_symmetry_equiv_pos_as_xyz
  x,y,z
_cell_length_a                    20.4613
_cell_length_b                    14.4803
_cell_length_c                    13.3907
_cell_angle_alpha                 90.0000
_cell_angle_beta                  142.9886
_cell_angle_gamma                 90.0000
loop_
_atom_site_label
_atom_site_type_symbol
_atom_site_fract_x
_atom_site_fract_y
_atom_site_fract_z
_atom_site_U_iso_or_equiv
_atom_site_adp_type
_atom_site_occupancy
C1     C     0.31506   0.66571   0.95929   0.00000  Uiso   1.00
C2     C     0.32454   0.58953   0.89274   0.00000  Uiso   1.00
C3     C     0.33022   0.60259   0.79713   0.00000  Uiso   1.00
C4     C     0.33866   0.52399   0.74856   0.00000  Uiso   1.00
C5     C     0.35304   0.41915   0.63836   0.00000  Uiso   1.00
C6     C     0.41060   0.65230   0.14682   0.00000  Uiso   1.00
C7     C     0.48861   0.71815   0.26484   0.00000  Uiso   1.00
C8     C     0.56948   0.69239   0.43016   0.00000  Uiso   1.00
C9     C     0.71742   0.68503   0.71444   0.00000  Uiso   1.00
C10    C     0.21339   0.64374   0.89572   0.00000  Uiso   1.00
C11    C     0.12560   0.70240   0.80265   0.00000  Uiso   1.00
C12    C     0.04045   0.66944   0.75660   0.00000  Uiso   1.00
C13    C     0.88219   0.64878   0.65101   0.00000  Uiso   1.00
C14    C     0.31994   0.50289   0.04304   0.00000  Uiso   1.00
C15    C     0.32720   0.50109   0.93823   0.00000  Uiso   1.00
C16    C     0.33563   0.42244   0.88979   0.00000  Uiso   1.00
C17    C     0.34132   0.43539   0.79412   0.00000  Uiso   1.00
C18    C     0.41325   0.56386   0.19232   0.00000  Uiso   1.00
C19    C     0.49402   0.53800   0.35750   0.00000  Uiso   1.00
C20    C     0.57215   0.60380   0.47574   0.00000  Uiso   1.00
C21    C     0.21604   0.55530   0.94121   0.00000  Uiso   1.00
C22    C     0.13101   0.52225   0.89531   0.00000  Uiso   1.00
C23    C     0.04311   0.58084   0.80217   0.00000  Uiso   1.00
H24    H     0.31299   0.73457   0.92389   0.00000  Uiso   1.00
H25    H     0.32817   0.67105   0.76196   0.00000  Uiso   1.00
H26    H     0.48653   0.78659   0.22960   0.00000  Uiso   1.00
H27    H     0.12358   0.77083   0.76748   0.00000  Uiso   1.00
H28    H     0.34621   0.56162   0.60255   0.00000  Uiso   1.00
H29    H     0.68010   0.80526   0.58859   0.00000  Uiso   1.00
H30    H     0.91474   0.77204   0.61412   0.00000  Uiso   1.00
H31    H     0.32201   0.43403   0.07846   0.00000  Uiso   1.00
H32    H     0.33768   0.35401   0.92501   0.00000  Uiso   1.00
H33    H     0.49605   0.46956   0.39265   0.00000  Uiso   1.00
H34    H     0.13309   0.45380   0.93053   0.00000  Uiso   1.00
H35    H     0.35394   0.30430   0.73489   0.00000  Uiso   1.00
H36    H     0.68783   0.54794   0.72094   0.00000  Uiso   1.00
H37    H     0.92247   0.51472   0.74646   0.00000  Uiso   1.00
O38    O     0.36026   0.38575   0.56504   0.00000  Uiso   1.00
O39    O     0.79829   0.70540   0.85868   0.00000  Uiso   1.00
O40    O     0.79416   0.66181   0.58019   0.00000  Uiso   1.00
N41    N     0.34586   0.51204   0.65473   0.00000  Uiso   1.00
N42    N     0.65804   0.73982   0.57662   0.00000  Uiso   1.00
N43    N     0.94250   0.70878   0.66560   0.00000  Uiso   1.00
N44    N     0.35001   0.37358   0.72594   0.00000  Uiso   1.00
N45    N     0.66219   0.60136   0.64783   0.00000  Uiso   1.00
N46    N     0.94665   0.57032   0.73681   0.00000  Uiso   1.00
C47    C     0.81506   0.16571   0.95929   0.00000  Uiso   1.00
C48    C     0.82454   0.08953   0.89274   0.00000  Uiso   1.00
C49    C     0.83022   0.10259   0.79713   0.00000  Uiso   1.00
C50    C     0.83866   0.02399   0.74856   0.00000  Uiso   1.00
C51    C     0.85304   0.91915   0.63836   0.00000  Uiso   1.00
C52    C     0.91060   0.15230   0.14682   0.00000  Uiso   1.00
C53    C     0.98861   0.21815   0.26484   0.00000  Uiso   1.00
C54    C     0.06948   0.19239   0.43016   0.00000  Uiso   1.00
C55    C     0.21742   0.18503   0.71444   0.00000  Uiso   1.00
C56    C     0.71339   0.14374   0.89572   0.00000  Uiso   1.00
C57    C     0.62560   0.20240   0.80265   0.00000  Uiso   1.00
C58    C     0.54045   0.16944   0.75660   0.00000  Uiso   1.00
C59    C     0.38219   0.14878   0.65101   0.00000  Uiso   1.00
C60    C     0.81994   0.00289   0.04304   0.00000  Uiso   1.00
C61    C     0.82720   0.00109   0.93823   0.00000  Uiso   1.00
C62    C     0.83563   0.92244   0.88979   0.00000  Uiso   1.00
C63    C     0.84132   0.93539   0.79412   0.00000  Uiso   1.00
C64    C     0.91325   0.06386   0.19232   0.00000  Uiso   1.00
C65    C     0.99402   0.03800   0.35750   0.00000  Uiso   1.00
C66    C     0.07215   0.10380   0.47574   0.00000  Uiso   1.00
C67    C     0.71604   0.05530   0.94121   0.00000  Uiso   1.00
C68    C     0.63101   0.02225   0.89531   0.00000  Uiso   1.00
C69    C     0.54311   0.08084   0.80217   0.00000  Uiso   1.00
H70    H     0.81299   0.23457   0.92389   0.00000  Uiso   1.00
H71    H     0.82817   0.17105   0.76196   0.00000  Uiso   1.00
H72    H     0.98653   0.28659   0.22960   0.00000  Uiso   1.00
H73    H     0.62358   0.27083   0.76748   0.00000  Uiso   1.00
H74    H     0.84621   0.06162   0.60255   0.00000  Uiso   1.00
H75    H     0.18010   0.30526   0.58859   0.00000  Uiso   1.00
H76    H     0.41474   0.27204   0.61412   0.00000  Uiso   1.00
H77    H     0.82201   0.93403   0.07846   0.00000  Uiso   1.00
H78    H     0.83768   0.85401   0.92501   0.00000  Uiso   1.00
H79    H     0.99605   0.96956   0.39265   0.00000  Uiso   1.00
H80    H     0.63309   0.95380   0.93053   0.00000  Uiso   1.00
H81    H     0.85394   0.80430   0.73489   0.00000  Uiso   1.00
H82    H     0.18783   0.04794   0.72094   0.00000  Uiso   1.00
H83    H     0.42247   0.01472   0.74646   0.00000  Uiso   1.00
O84    O     0.86026   0.88575   0.56504   0.00000  Uiso   1.00
O85    O     0.29829   0.20540   0.85868   0.00000  Uiso   1.00
O86    O     0.29416   0.16181   0.58019   0.00000  Uiso   1.00
N87    N     0.84586   0.01204   0.65473   0.00000  Uiso   1.00
N88    N     0.15804   0.23982   0.57662   0.00000  Uiso   1.00
N89    N     0.44250   0.20878   0.66560   0.00000  Uiso   1.00
N90    N     0.85001   0.87358   0.72594   0.00000  Uiso   1.00
N91    N     0.16219   0.10136   0.64783   0.00000  Uiso   1.00
N92    N     0.44665   0.07032   0.73681   0.00000  Uiso   1.00
C93    C     0.68494   0.66571   0.04071   0.00000  Uiso   1.00
C94    C     0.67546   0.58953   0.10726   0.00000  Uiso   1.00
C95    C     0.66978   0.60259   0.20287   0.00000  Uiso   1.00
C96    C     0.66134   0.52399   0.25144   0.00000  Uiso   1.00
C97    C     0.64696   0.41915   0.36164   0.00000  Uiso   1.00
C98    C     0.58940   0.65230   0.85318   0.00000  Uiso   1.00
C99    C     0.51139   0.71815   0.73516   0.00000  Uiso   1.00
C100   C     0.43052   0.69239   0.56984   0.00000  Uiso   1.00
C101   C     0.28258   0.68503   0.28556   0.00000  Uiso   1.00
C102   C     0.78661   0.64374   0.10428   0.00000  Uiso   1.00
C103   C     0.87440   0.70240   0.19735   0.00000  Uiso   1.00
C104   C     0.95955   0.66944   0.24340   0.00000  Uiso   1.00
C105   C     0.11781   0.64878   0.34899   0.00000  Uiso   1.00
C106   C     0.68006   0.50289   0.95696   0.00000  Uiso   1.00
C107   C     0.67280   0.50109   0.06177   0.00000  Uiso   1.00
C108   C     0.66437   0.42244   0.11021   0.00000  Uiso   1.00
C109   C     0.65868   0.43539   0.20588   0.00000  Uiso   1.00
C110   C     0.58675   0.56386   0.80768   0.00000  Uiso   1.00
C111   C     0.50598   0.53800   0.64250   0.00000  Uiso   1.00
C112   C     0.42785   0.60380   0.52426   0.00000  Uiso   1.00
C113   C     0.78396   0.55530   0.05879   0.00000  Uiso   1.00
C114   C     0.86899   0.52225   0.10469   0.00000  Uiso   1.00
C115   C     0.95689   0.58084   0.19783   0.00000  Uiso   1.00
H116   H     0.68701   0.73457   0.07611   0.00000  Uiso   1.00
H117   H     0.67183   0.67105   0.23804   0.00000  Uiso   1.00
H118   H     0.51347   0.78659   0.77040   0.00000  Uiso   1.00
H119   H     0.87642   0.77083   0.23252   0.00000  Uiso   1.00
H120   H     0.65379   0.56162   0.39745   0.00000  Uiso   1.00
H121   H     0.31990   0.80526   0.41141   0.00000  Uiso   1.00
H122   H     0.08526   0.77204   0.38588   0.00000  Uiso   1.00
H123   H     0.67799   0.43403   0.92154   0.00000  Uiso   1.00
H124   H     0.66232   0.35401   0.07499   0.00000  Uiso   1.00
H125   H     0.50395   0.46956   0.60735   0.00000  Uiso   1.00
H126   H     0.86691   0.45380   0.06947   0.00000  Uiso   1.00
H127   H     0.64606   0.30430   0.26511   0.00000  Uiso   1.00
H128   H     0.31217   0.54794   0.27906   0.00000  Uiso   1.00
H129   H     0.07753   0.51472   0.25354   0.00000  Uiso   1.00
O130   O     0.63974   0.38575   0.43496   0.00000  Uiso   1.00
O131   O     0.20171   0.70540   0.14132   0.00000  Uiso   1.00
O132   O     0.20584   0.66181   0.41981   0.00000  Uiso   1.00
N133   N     0.65414   0.51204   0.34527   0.00000  Uiso   1.00
N134   N     0.34196   0.73982   0.42338   0.00000  Uiso   1.00
N135   N     0.05750   0.70878   0.33440   0.00000  Uiso   1.00
N136   N     0.64999   0.37358   0.27406   0.00000  Uiso   1.00
N137   N     0.33781   0.60136   0.35217   0.00000  Uiso   1.00
N138   N     0.05335   0.57032   0.26319   0.00000  Uiso   1.00
C139   C     0.18494   0.16571   0.04071   0.00000  Uiso   1.00
C140   C     0.17546   0.08953   0.10726   0.00000  Uiso   1.00
C141   C     0.16978   0.10259   0.20287   0.00000  Uiso   1.00
C142   C     0.16134   0.02399   0.25144   0.00000  Uiso   1.00
C143   C     0.14696   0.91915   0.36164   0.00000  Uiso   1.00
C144   C     0.08940   0.15230   0.85318   0.00000  Uiso   1.00
C145   C     0.01139   0.21815   0.73516   0.00000  Uiso   1.00
C146   C     0.93052   0.19239   0.56984   0.00000  Uiso   1.00
C147   C     0.78258   0.18503   0.28556   0.00000  Uiso   1.00
C148   C     0.28661   0.14374   0.10428   0.00000  Uiso   1.00
C149   C     0.37440   0.20240   0.19735   0.00000  Uiso   1.00
C150   C     0.45955   0.16944   0.24340   0.00000  Uiso   1.00
C151   C     0.61781   0.14878   0.34899   0.00000  Uiso   1.00
C152   C     0.18006   0.00289   0.95696   0.00000  Uiso   1.00
C153   C     0.17280   0.00109   0.06177   0.00000  Uiso   1.00
C154   C     0.16437   0.92244   0.11021   0.00000  Uiso   1.00
C155   C     0.15868   0.93539   0.20588   0.00000  Uiso   1.00
C156   C     0.08675   0.06386   0.80768   0.00000  Uiso   1.00
C157   C     0.00598   0.03800   0.64250   0.00000  Uiso   1.00
C158   C     0.92785   0.10380   0.52426   0.00000  Uiso   1.00
C159   C     0.28396   0.05530   0.05879   0.00000  Uiso   1.00
C160   C     0.36899   0.02225   0.10469   0.00000  Uiso   1.00
C161   C     0.45689   0.08084   0.19783   0.00000  Uiso   1.00
H162   H     0.18701   0.23457   0.07611   0.00000  Uiso   1.00
H163   H     0.17183   0.17105   0.23804   0.00000  Uiso   1.00
H164   H     0.01347   0.28659   0.77040   0.00000  Uiso   1.00
H165   H     0.37642   0.27083   0.23252   0.00000  Uiso   1.00
H166   H     0.15379   0.06162   0.39745   0.00000  Uiso   1.00
H167   H     0.81990   0.30526   0.41141   0.00000  Uiso   1.00
H168   H     0.58526   0.27204   0.38588   0.00000  Uiso   1.00
H169   H     0.17799   0.93403   0.92154   0.00000  Uiso   1.00
H170   H     0.16232   0.85401   0.07499   0.00000  Uiso   1.00
H171   H     0.00395   0.96956   0.60735   0.00000  Uiso   1.00
H172   H     0.36691   0.95380   0.06947   0.00000  Uiso   1.00
H173   H     0.14606   0.80430   0.26511   0.00000  Uiso   1.00
H174   H     0.81217   0.04794   0.27906   0.00000  Uiso   1.00
H175   H     0.57753   0.01472   0.25354   0.00000  Uiso   1.00
O176   O     0.13974   0.88575   0.43496   0.00000  Uiso   1.00
O177   O     0.70171   0.20540   0.14132   0.00000  Uiso   1.00
O178   O     0.70584   0.16181   0.41981   0.00000  Uiso   1.00
N179   N     0.15414   0.01204   0.34527   0.00000  Uiso   1.00
N180   N     0.84196   0.23982   0.42338   0.00000  Uiso   1.00
N181   N     0.55750   0.20878   0.33440   0.00000  Uiso   1.00
N182   N     0.14999   0.87358   0.27406   0.00000  Uiso   1.00
N183   N     0.83781   0.10136   0.35217   0.00000  Uiso   1.00
N184   N     0.55335   0.07032   0.26319   0.00000  Uiso   1.00
