data_job_01125
_audit_creation_date              2018-12-19
_audit_creation_method            'Materials Studio'
_symmetry_space_group_name_H-M    'P1'
_symmetry_Int_Tables_number       1
_symmetry_cell_setting            triclinic
loop_
_symmetry_equiv_pos_as_xyz
  x,y,z
_cell_length_a                    18.2228
_cell_length_b                    23.6103
_cell_length_c                    11.8438
_cell_angle_alpha                 90.0000
_cell_angle_beta                  90.0000
_cell_angle_gamma                 90.0000
loop_
_atom_site_label
_atom_site_type_symbol
_atom_site_fract_x
_atom_site_fract_y
_atom_site_fract_z
_atom_site_U_iso_or_equiv
_atom_site_adp_type
_atom_site_occupancy
C1     C     0.08310   0.09356   0.55171   0.00000  Uiso   1.00
C2     C     0.03126   0.14419   0.55673   0.00000  Uiso   1.00
C3     C     0.95890   0.14294   0.59319   0.00000  Uiso   1.00
C4     C     0.92064   0.19378   0.59135   0.00000  Uiso   1.00
C5     C     0.83510   0.26475   0.60472   0.00000  Uiso   1.00
C6     C     0.10966   0.09005   0.42981   0.00000  Uiso   1.00
C7     C     0.10324   0.04326   0.35957   0.00000  Uiso   1.00
C8     C     0.13099   0.04852   0.25090   0.00000  Uiso   1.00
C9     C     0.16723   0.03541   0.06725   0.00000  Uiso   1.00
C10    C     0.15000   0.10985   0.62191   0.00000  Uiso   1.00
C11    C     0.17751   0.07971   0.71316   0.00000  Uiso   1.00
C12    C     0.23924   0.10163   0.76621   0.00000  Uiso   1.00
C13    C     0.33811   0.11927   0.88082   0.00000  Uiso   1.00
C14    C     0.14382   0.18609   0.48361   0.00000  Uiso   1.00
C15    C     0.06424   0.19445   0.51974   0.00000  Uiso   1.00
C16    C     0.02607   0.24531   0.51785   0.00000  Uiso   1.00
C17    C     0.95367   0.24413   0.55430   0.00000  Uiso   1.00
C18    C     0.14264   0.14030   0.39282   0.00000  Uiso   1.00
C19    C     0.17041   0.14563   0.28423   0.00000  Uiso   1.00
C20    C     0.16403   0.09887   0.21384   0.00000  Uiso   1.00
C21    C     0.18298   0.16011   0.58492   0.00000  Uiso   1.00
C22    C     0.24468   0.18208   0.63783   0.00000  Uiso   1.00
C23    C     0.27227   0.15198   0.72915   0.00000  Uiso   1.00
H24    H     0.05743   0.05443   0.58050   0.00000  Uiso   1.00
H25    H     0.93339   0.10403   0.62180   0.00000  Uiso   1.00
H26    H     0.07772   0.00437   0.38822   0.00000  Uiso   1.00
H27    H     0.15197   0.04081   0.74176   0.00000  Uiso   1.00
H28    H     0.81041   0.18118   0.65124   0.00000  Uiso   1.00
H29    H     0.11475   0.97103   0.15874   0.00000  Uiso   1.00
H30    H     0.27134   0.04788   0.90425   0.00000  Uiso   1.00
H31    H     0.16950   0.22522   0.45481   0.00000  Uiso   1.00
H32    H     0.05161   0.28420   0.48922   0.00000  Uiso   1.00
H33    H     0.19593   0.18453   0.25564   0.00000  Uiso   1.00
H34    H     0.27019   0.22098   0.60918   0.00000  Uiso   1.00
H35    H     0.90636   0.32741   0.54363   0.00000  Uiso   1.00
H36    H     0.21070   0.11726   0.05113   0.00000  Uiso   1.00
H37    H     0.36728   0.19411   0.79664   0.00000  Uiso   1.00
O38    O     0.77880   0.29001   0.62230   0.00000  Uiso   1.00
O39    O     0.17810   0.01430   0.97617   0.00000  Uiso   1.00
O40    O     0.38353   0.11512   0.95426   0.00000  Uiso   1.00
N41    N     0.84918   0.20751   0.62121   0.00000  Uiso   1.00
N42    N     0.13371   0.01103   0.16075   0.00000  Uiso   1.00
N43    N     0.28011   0.08287   0.85772   0.00000  Uiso   1.00
N44    N     0.90080   0.28619   0.56331   0.00000  Uiso   1.00
N45    N     0.18533   0.08972   0.10285   0.00000  Uiso   1.00
N46    N     0.33174   0.16156   0.79982   0.00000  Uiso   1.00
C47    C     0.41690   0.90644   0.55171   0.00000  Uiso   1.00
C48    C     0.46874   0.85581   0.55673   0.00000  Uiso   1.00
C49    C     0.54110   0.85706   0.59319   0.00000  Uiso   1.00
C50    C     0.57936   0.80622   0.59135   0.00000  Uiso   1.00
C51    C     0.66490   0.73525   0.60472   0.00000  Uiso   1.00
C52    C     0.39034   0.90995   0.42981   0.00000  Uiso   1.00
C53    C     0.39676   0.95674   0.35957   0.00000  Uiso   1.00
C54    C     0.36901   0.95148   0.25090   0.00000  Uiso   1.00
C55    C     0.33277   0.96459   0.06725   0.00000  Uiso   1.00
C56    C     0.35000   0.89015   0.62191   0.00000  Uiso   1.00
C57    C     0.32249   0.92029   0.71316   0.00000  Uiso   1.00
C58    C     0.26076   0.89837   0.76621   0.00000  Uiso   1.00
C59    C     0.16189   0.88073   0.88082   0.00000  Uiso   1.00
C60    C     0.35618   0.81391   0.48361   0.00000  Uiso   1.00
C61    C     0.43576   0.80555   0.51974   0.00000  Uiso   1.00
C62    C     0.47393   0.75469   0.51785   0.00000  Uiso   1.00
C63    C     0.54633   0.75587   0.55430   0.00000  Uiso   1.00
C64    C     0.35736   0.85970   0.39282   0.00000  Uiso   1.00
C65    C     0.32959   0.85437   0.28423   0.00000  Uiso   1.00
C66    C     0.33597   0.90113   0.21384   0.00000  Uiso   1.00
C67    C     0.31702   0.83989   0.58492   0.00000  Uiso   1.00
C68    C     0.25532   0.81792   0.63783   0.00000  Uiso   1.00
C69    C     0.22773   0.84802   0.72915   0.00000  Uiso   1.00
H70    H     0.44257   0.94557   0.58050   0.00000  Uiso   1.00
H71    H     0.56661   0.89597   0.62180   0.00000  Uiso   1.00
H72    H     0.42228   0.99563   0.38822   0.00000  Uiso   1.00
H73    H     0.34803   0.95919   0.74176   0.00000  Uiso   1.00
H74    H     0.68959   0.81882   0.65124   0.00000  Uiso   1.00
H75    H     0.38525   0.02897   0.15874   0.00000  Uiso   1.00
H76    H     0.22866   0.95212   0.90425   0.00000  Uiso   1.00
H77    H     0.33050   0.77478   0.45481   0.00000  Uiso   1.00
H78    H     0.44839   0.71580   0.48922   0.00000  Uiso   1.00
H79    H     0.30407   0.81547   0.25564   0.00000  Uiso   1.00
H80    H     0.22981   0.77902   0.60918   0.00000  Uiso   1.00
H81    H     0.59364   0.67259   0.54363   0.00000  Uiso   1.00
H82    H     0.28930   0.88274   0.05113   0.00000  Uiso   1.00
H83    H     0.13272   0.80589   0.79664   0.00000  Uiso   1.00
O84    O     0.72120   0.70999   0.62230   0.00000  Uiso   1.00
O85    O     0.32190   0.98570   0.97617   0.00000  Uiso   1.00
O86    O     0.11647   0.88488   0.95426   0.00000  Uiso   1.00
N87    N     0.65082   0.79249   0.62121   0.00000  Uiso   1.00
N88    N     0.36629   0.98897   0.16075   0.00000  Uiso   1.00
N89    N     0.21989   0.91713   0.85772   0.00000  Uiso   1.00
N90    N     0.59920   0.71381   0.56331   0.00000  Uiso   1.00
N91    N     0.31467   0.91028   0.10285   0.00000  Uiso   1.00
N92    N     0.16826   0.83844   0.79982   0.00000  Uiso   1.00
C93    C     0.41690   0.59356   0.94829   0.00000  Uiso   1.00
C94    C     0.46874   0.64419   0.94327   0.00000  Uiso   1.00
C95    C     0.54110   0.64294   0.90681   0.00000  Uiso   1.00
C96    C     0.57936   0.69378   0.90865   0.00000  Uiso   1.00
C97    C     0.66490   0.76475   0.89528   0.00000  Uiso   1.00
C98    C     0.39034   0.59005   0.07019   0.00000  Uiso   1.00
C99    C     0.39676   0.54326   0.14043   0.00000  Uiso   1.00
C100   C     0.36901   0.54852   0.24910   0.00000  Uiso   1.00
C101   C     0.33277   0.53541   0.43275   0.00000  Uiso   1.00
C102   C     0.35000   0.60985   0.87809   0.00000  Uiso   1.00
C103   C     0.32249   0.57971   0.78684   0.00000  Uiso   1.00
C104   C     0.26076   0.60163   0.73379   0.00000  Uiso   1.00
C105   C     0.16189   0.61927   0.61918   0.00000  Uiso   1.00
C106   C     0.35618   0.68609   0.01639   0.00000  Uiso   1.00
C107   C     0.43576   0.69445   0.98026   0.00000  Uiso   1.00
C108   C     0.47393   0.74531   0.98215   0.00000  Uiso   1.00
C109   C     0.54633   0.74413   0.94570   0.00000  Uiso   1.00
C110   C     0.35736   0.64030   0.10718   0.00000  Uiso   1.00
C111   C     0.32959   0.64563   0.21577   0.00000  Uiso   1.00
C112   C     0.33597   0.59887   0.28616   0.00000  Uiso   1.00
C113   C     0.31702   0.66011   0.91508   0.00000  Uiso   1.00
C114   C     0.25532   0.68208   0.86217   0.00000  Uiso   1.00
C115   C     0.22773   0.65198   0.77085   0.00000  Uiso   1.00
H116   H     0.44257   0.55443   0.91950   0.00000  Uiso   1.00
H117   H     0.56661   0.60403   0.87820   0.00000  Uiso   1.00
H118   H     0.42228   0.50437   0.11178   0.00000  Uiso   1.00
H119   H     0.34803   0.54081   0.75824   0.00000  Uiso   1.00
H120   H     0.68959   0.68118   0.84876   0.00000  Uiso   1.00
H121   H     0.38525   0.47103   0.34126   0.00000  Uiso   1.00
H122   H     0.22866   0.54788   0.59575   0.00000  Uiso   1.00
H123   H     0.33050   0.72522   0.04519   0.00000  Uiso   1.00
H124   H     0.44839   0.78420   0.01078   0.00000  Uiso   1.00
H125   H     0.30407   0.68453   0.24436   0.00000  Uiso   1.00
H126   H     0.22981   0.72098   0.89082   0.00000  Uiso   1.00
H127   H     0.59364   0.82741   0.95637   0.00000  Uiso   1.00
H128   H     0.28930   0.61726   0.44887   0.00000  Uiso   1.00
H129   H     0.13272   0.69411   0.70336   0.00000  Uiso   1.00
O130   O     0.72120   0.79001   0.87770   0.00000  Uiso   1.00
O131   O     0.32190   0.51430   0.52383   0.00000  Uiso   1.00
O132   O     0.11647   0.61512   0.54574   0.00000  Uiso   1.00
N133   N     0.65082   0.70751   0.87879   0.00000  Uiso   1.00
N134   N     0.36629   0.51103   0.33925   0.00000  Uiso   1.00
N135   N     0.21989   0.58287   0.64228   0.00000  Uiso   1.00
N136   N     0.59920   0.78619   0.93669   0.00000  Uiso   1.00
N137   N     0.31467   0.58972   0.39715   0.00000  Uiso   1.00
N138   N     0.16826   0.66156   0.70018   0.00000  Uiso   1.00
C139   C     0.08310   0.40644   0.94829   0.00000  Uiso   1.00
C140   C     0.03126   0.35581   0.94327   0.00000  Uiso   1.00
C141   C     0.95890   0.35706   0.90681   0.00000  Uiso   1.00
C142   C     0.92064   0.30622   0.90865   0.00000  Uiso   1.00
C143   C     0.83510   0.23525   0.89528   0.00000  Uiso   1.00
C144   C     0.10966   0.40995   0.07019   0.00000  Uiso   1.00
C145   C     0.10324   0.45674   0.14043   0.00000  Uiso   1.00
C146   C     0.13099   0.45148   0.24910   0.00000  Uiso   1.00
C147   C     0.16723   0.46459   0.43275   0.00000  Uiso   1.00
C148   C     0.15000   0.39015   0.87809   0.00000  Uiso   1.00
C149   C     0.17751   0.42029   0.78684   0.00000  Uiso   1.00
C150   C     0.23924   0.39837   0.73379   0.00000  Uiso   1.00
C151   C     0.33811   0.38073   0.61918   0.00000  Uiso   1.00
C152   C     0.14382   0.31391   0.01639   0.00000  Uiso   1.00
C153   C     0.06424   0.30555   0.98026   0.00000  Uiso   1.00
C154   C     0.02607   0.25469   0.98215   0.00000  Uiso   1.00
C155   C     0.95367   0.25587   0.94570   0.00000  Uiso   1.00
C156   C     0.14264   0.35970   0.10718   0.00000  Uiso   1.00
C157   C     0.17041   0.35437   0.21577   0.00000  Uiso   1.00
C158   C     0.16403   0.40113   0.28616   0.00000  Uiso   1.00
C159   C     0.18298   0.33989   0.91508   0.00000  Uiso   1.00
C160   C     0.24468   0.31792   0.86217   0.00000  Uiso   1.00
C161   C     0.27227   0.34802   0.77085   0.00000  Uiso   1.00
H162   H     0.05743   0.44557   0.91950   0.00000  Uiso   1.00
H163   H     0.93339   0.39597   0.87820   0.00000  Uiso   1.00
H164   H     0.07772   0.49563   0.11178   0.00000  Uiso   1.00
H165   H     0.15197   0.45919   0.75824   0.00000  Uiso   1.00
H166   H     0.81041   0.31882   0.84876   0.00000  Uiso   1.00
H167   H     0.11475   0.52897   0.34126   0.00000  Uiso   1.00
H168   H     0.27134   0.45212   0.59575   0.00000  Uiso   1.00
H169   H     0.16950   0.27478   0.04519   0.00000  Uiso   1.00
H170   H     0.05161   0.21580   0.01078   0.00000  Uiso   1.00
H171   H     0.19593   0.31547   0.24436   0.00000  Uiso   1.00
H172   H     0.27019   0.27902   0.89082   0.00000  Uiso   1.00
H173   H     0.90636   0.17259   0.95637   0.00000  Uiso   1.00
H174   H     0.21070   0.38274   0.44887   0.00000  Uiso   1.00
H175   H     0.36728   0.30589   0.70336   0.00000  Uiso   1.00
O176   O     0.77880   0.20999   0.87770   0.00000  Uiso   1.00
O177   O     0.17810   0.48570   0.52383   0.00000  Uiso   1.00
O178   O     0.38353   0.38488   0.54574   0.00000  Uiso   1.00
N179   N     0.84918   0.29249   0.87879   0.00000  Uiso   1.00
N180   N     0.13371   0.48897   0.33925   0.00000  Uiso   1.00
N181   N     0.28011   0.41713   0.64228   0.00000  Uiso   1.00
N182   N     0.90080   0.21381   0.93669   0.00000  Uiso   1.00
N183   N     0.18533   0.41028   0.39715   0.00000  Uiso   1.00
N184   N     0.33174   0.33844   0.70018   0.00000  Uiso   1.00
C185   C     0.91690   0.90644   0.44829   0.00000  Uiso   1.00
C186   C     0.96874   0.85581   0.44327   0.00000  Uiso   1.00
C187   C     0.04110   0.85706   0.40681   0.00000  Uiso   1.00
C188   C     0.07936   0.80622   0.40865   0.00000  Uiso   1.00
C189   C     0.16490   0.73525   0.39528   0.00000  Uiso   1.00
C190   C     0.89034   0.90995   0.57019   0.00000  Uiso   1.00
C191   C     0.89676   0.95674   0.64043   0.00000  Uiso   1.00
C192   C     0.86901   0.95148   0.74910   0.00000  Uiso   1.00
C193   C     0.83277   0.96459   0.93275   0.00000  Uiso   1.00
C194   C     0.85000   0.89015   0.37809   0.00000  Uiso   1.00
C195   C     0.82249   0.92029   0.28684   0.00000  Uiso   1.00
C196   C     0.76076   0.89837   0.23379   0.00000  Uiso   1.00
C197   C     0.66189   0.88073   0.11918   0.00000  Uiso   1.00
C198   C     0.85618   0.81391   0.51639   0.00000  Uiso   1.00
C199   C     0.93576   0.80555   0.48026   0.00000  Uiso   1.00
C200   C     0.97393   0.75469   0.48215   0.00000  Uiso   1.00
C201   C     0.04633   0.75587   0.44570   0.00000  Uiso   1.00
C202   C     0.85736   0.85970   0.60718   0.00000  Uiso   1.00
C203   C     0.82959   0.85437   0.71577   0.00000  Uiso   1.00
C204   C     0.83597   0.90113   0.78616   0.00000  Uiso   1.00
C205   C     0.81702   0.83989   0.41508   0.00000  Uiso   1.00
C206   C     0.75532   0.81792   0.36217   0.00000  Uiso   1.00
C207   C     0.72773   0.84802   0.27085   0.00000  Uiso   1.00
H208   H     0.94257   0.94557   0.41950   0.00000  Uiso   1.00
H209   H     0.06661   0.89597   0.37820   0.00000  Uiso   1.00
H210   H     0.92228   0.99563   0.61178   0.00000  Uiso   1.00
H211   H     0.84803   0.95919   0.25824   0.00000  Uiso   1.00
H212   H     0.18959   0.81882   0.34876   0.00000  Uiso   1.00
H213   H     0.88525   0.02897   0.84126   0.00000  Uiso   1.00
H214   H     0.72866   0.95212   0.09575   0.00000  Uiso   1.00
H215   H     0.83050   0.77478   0.54519   0.00000  Uiso   1.00
H216   H     0.94839   0.71580   0.51078   0.00000  Uiso   1.00
H217   H     0.80407   0.81547   0.74436   0.00000  Uiso   1.00
H218   H     0.72981   0.77902   0.39082   0.00000  Uiso   1.00
H219   H     0.09364   0.67259   0.45637   0.00000  Uiso   1.00
H220   H     0.78930   0.88274   0.94887   0.00000  Uiso   1.00
H221   H     0.63272   0.80589   0.20336   0.00000  Uiso   1.00
O222   O     0.22120   0.70999   0.37770   0.00000  Uiso   1.00
O223   O     0.82190   0.98570   0.02383   0.00000  Uiso   1.00
O224   O     0.61647   0.88488   0.04574   0.00000  Uiso   1.00
N225   N     0.15082   0.79249   0.37879   0.00000  Uiso   1.00
N226   N     0.86629   0.98897   0.83925   0.00000  Uiso   1.00
N227   N     0.71989   0.91713   0.14228   0.00000  Uiso   1.00
N228   N     0.09920   0.71381   0.43669   0.00000  Uiso   1.00
N229   N     0.81467   0.91028   0.89715   0.00000  Uiso   1.00
N230   N     0.66826   0.83844   0.20018   0.00000  Uiso   1.00
C231   C     0.58310   0.09356   0.44829   0.00000  Uiso   1.00
C232   C     0.53126   0.14419   0.44327   0.00000  Uiso   1.00
C233   C     0.45890   0.14294   0.40681   0.00000  Uiso   1.00
C234   C     0.42064   0.19378   0.40865   0.00000  Uiso   1.00
C235   C     0.33510   0.26475   0.39528   0.00000  Uiso   1.00
C236   C     0.60966   0.09005   0.57019   0.00000  Uiso   1.00
C237   C     0.60324   0.04326   0.64043   0.00000  Uiso   1.00
C238   C     0.63099   0.04852   0.74910   0.00000  Uiso   1.00
C239   C     0.66723   0.03541   0.93275   0.00000  Uiso   1.00
C240   C     0.65000   0.10985   0.37809   0.00000  Uiso   1.00
C241   C     0.67751   0.07971   0.28684   0.00000  Uiso   1.00
C242   C     0.73924   0.10163   0.23379   0.00000  Uiso   1.00
C243   C     0.83811   0.11927   0.11918   0.00000  Uiso   1.00
C244   C     0.64382   0.18609   0.51639   0.00000  Uiso   1.00
C245   C     0.56424   0.19445   0.48026   0.00000  Uiso   1.00
C246   C     0.52607   0.24531   0.48215   0.00000  Uiso   1.00
C247   C     0.45367   0.24413   0.44570   0.00000  Uiso   1.00
C248   C     0.64264   0.14030   0.60718   0.00000  Uiso   1.00
C249   C     0.67041   0.14563   0.71577   0.00000  Uiso   1.00
C250   C     0.66403   0.09887   0.78616   0.00000  Uiso   1.00
C251   C     0.68298   0.16011   0.41508   0.00000  Uiso   1.00
C252   C     0.74468   0.18208   0.36217   0.00000  Uiso   1.00
C253   C     0.77227   0.15198   0.27085   0.00000  Uiso   1.00
H254   H     0.55743   0.05443   0.41950   0.00000  Uiso   1.00
H255   H     0.43339   0.10403   0.37820   0.00000  Uiso   1.00
H256   H     0.57772   0.00437   0.61178   0.00000  Uiso   1.00
H257   H     0.65197   0.04081   0.25824   0.00000  Uiso   1.00
H258   H     0.31041   0.18118   0.34876   0.00000  Uiso   1.00
H259   H     0.61475   0.97103   0.84126   0.00000  Uiso   1.00
H260   H     0.77134   0.04788   0.09575   0.00000  Uiso   1.00
H261   H     0.66950   0.22522   0.54519   0.00000  Uiso   1.00
H262   H     0.55161   0.28420   0.51078   0.00000  Uiso   1.00
H263   H     0.69593   0.18453   0.74436   0.00000  Uiso   1.00
H264   H     0.77019   0.22098   0.39082   0.00000  Uiso   1.00
H265   H     0.40636   0.32741   0.45637   0.00000  Uiso   1.00
H266   H     0.71070   0.11726   0.94887   0.00000  Uiso   1.00
H267   H     0.86728   0.19411   0.20336   0.00000  Uiso   1.00
O268   O     0.27880   0.29001   0.37770   0.00000  Uiso   1.00
O269   O     0.67810   0.01430   0.02383   0.00000  Uiso   1.00
O270   O     0.88353   0.11512   0.04574   0.00000  Uiso   1.00
N271   N     0.34918   0.20751   0.37879   0.00000  Uiso   1.00
N272   N     0.63371   0.01103   0.83925   0.00000  Uiso   1.00
N273   N     0.78011   0.08287   0.14228   0.00000  Uiso   1.00
N274   N     0.40080   0.28619   0.43669   0.00000  Uiso   1.00
N275   N     0.68533   0.08972   0.89715   0.00000  Uiso   1.00
N276   N     0.83174   0.16156   0.20018   0.00000  Uiso   1.00
C277   C     0.58310   0.40644   0.05171   0.00000  Uiso   1.00
C278   C     0.53126   0.35581   0.05673   0.00000  Uiso   1.00
C279   C     0.45890   0.35706   0.09319   0.00000  Uiso   1.00
C280   C     0.42064   0.30622   0.09135   0.00000  Uiso   1.00
C281   C     0.33510   0.23525   0.10472   0.00000  Uiso   1.00
C282   C     0.60966   0.40995   0.92981   0.00000  Uiso   1.00
C283   C     0.60324   0.45674   0.85957   0.00000  Uiso   1.00
C284   C     0.63099   0.45148   0.75090   0.00000  Uiso   1.00
C285   C     0.66723   0.46459   0.56725   0.00000  Uiso   1.00
C286   C     0.65000   0.39015   0.12191   0.00000  Uiso   1.00
C287   C     0.67751   0.42029   0.21316   0.00000  Uiso   1.00
C288   C     0.73924   0.39837   0.26621   0.00000  Uiso   1.00
C289   C     0.83811   0.38073   0.38082   0.00000  Uiso   1.00
C290   C     0.64382   0.31391   0.98361   0.00000  Uiso   1.00
C291   C     0.56424   0.30555   0.01974   0.00000  Uiso   1.00
C292   C     0.52607   0.25469   0.01785   0.00000  Uiso   1.00
C293   C     0.45367   0.25587   0.05430   0.00000  Uiso   1.00
C294   C     0.64264   0.35970   0.89282   0.00000  Uiso   1.00
C295   C     0.67041   0.35437   0.78423   0.00000  Uiso   1.00
C296   C     0.66403   0.40113   0.71384   0.00000  Uiso   1.00
C297   C     0.68298   0.33989   0.08492   0.00000  Uiso   1.00
C298   C     0.74468   0.31792   0.13783   0.00000  Uiso   1.00
C299   C     0.77227   0.34802   0.22915   0.00000  Uiso   1.00
H300   H     0.55743   0.44557   0.08050   0.00000  Uiso   1.00
H301   H     0.43339   0.39597   0.12180   0.00000  Uiso   1.00
H302   H     0.57772   0.49563   0.88822   0.00000  Uiso   1.00
H303   H     0.65197   0.45919   0.24176   0.00000  Uiso   1.00
H304   H     0.31041   0.31882   0.15124   0.00000  Uiso   1.00
H305   H     0.61475   0.52897   0.65874   0.00000  Uiso   1.00
H306   H     0.77134   0.45212   0.40425   0.00000  Uiso   1.00
H307   H     0.66950   0.27478   0.95481   0.00000  Uiso   1.00
H308   H     0.55161   0.21580   0.98922   0.00000  Uiso   1.00
H309   H     0.69593   0.31547   0.75564   0.00000  Uiso   1.00
H310   H     0.77019   0.27902   0.10918   0.00000  Uiso   1.00
H311   H     0.40636   0.17259   0.04363   0.00000  Uiso   1.00
H312   H     0.71070   0.38274   0.55113   0.00000  Uiso   1.00
H313   H     0.86728   0.30589   0.29664   0.00000  Uiso   1.00
O314   O     0.27880   0.20999   0.12230   0.00000  Uiso   1.00
O315   O     0.67810   0.48570   0.47617   0.00000  Uiso   1.00
O316   O     0.88353   0.38488   0.45426   0.00000  Uiso   1.00
N317   N     0.34918   0.29249   0.12121   0.00000  Uiso   1.00
N318   N     0.63371   0.48897   0.66075   0.00000  Uiso   1.00
N319   N     0.78011   0.41713   0.35772   0.00000  Uiso   1.00
N320   N     0.40080   0.21381   0.06331   0.00000  Uiso   1.00
N321   N     0.68533   0.41028   0.60285   0.00000  Uiso   1.00
N322   N     0.83174   0.33844   0.29982   0.00000  Uiso   1.00
C323   C     0.91690   0.59356   0.05171   0.00000  Uiso   1.00
C324   C     0.96874   0.64419   0.05673   0.00000  Uiso   1.00
C325   C     0.04110   0.64294   0.09319   0.00000  Uiso   1.00
C326   C     0.07936   0.69378   0.09135   0.00000  Uiso   1.00
C327   C     0.16490   0.76475   0.10472   0.00000  Uiso   1.00
C328   C     0.89034   0.59005   0.92981   0.00000  Uiso   1.00
C329   C     0.89676   0.54326   0.85957   0.00000  Uiso   1.00
C330   C     0.86901   0.54852   0.75090   0.00000  Uiso   1.00
C331   C     0.83277   0.53541   0.56725   0.00000  Uiso   1.00
C332   C     0.85000   0.60985   0.12191   0.00000  Uiso   1.00
C333   C     0.82249   0.57971   0.21316   0.00000  Uiso   1.00
C334   C     0.76076   0.60163   0.26621   0.00000  Uiso   1.00
C335   C     0.66189   0.61927   0.38082   0.00000  Uiso   1.00
C336   C     0.85618   0.68609   0.98361   0.00000  Uiso   1.00
C337   C     0.93576   0.69445   0.01974   0.00000  Uiso   1.00
C338   C     0.97393   0.74531   0.01785   0.00000  Uiso   1.00
C339   C     0.04633   0.74413   0.05430   0.00000  Uiso   1.00
C340   C     0.85736   0.64030   0.89282   0.00000  Uiso   1.00
C341   C     0.82959   0.64563   0.78423   0.00000  Uiso   1.00
C342   C     0.83597   0.59887   0.71384   0.00000  Uiso   1.00
C343   C     0.81702   0.66011   0.08492   0.00000  Uiso   1.00
C344   C     0.75532   0.68208   0.13783   0.00000  Uiso   1.00
C345   C     0.72773   0.65198   0.22915   0.00000  Uiso   1.00
H346   H     0.94257   0.55443   0.08050   0.00000  Uiso   1.00
H347   H     0.06661   0.60403   0.12180   0.00000  Uiso   1.00
H348   H     0.92228   0.50437   0.88822   0.00000  Uiso   1.00
H349   H     0.84803   0.54081   0.24176   0.00000  Uiso   1.00
H350   H     0.18959   0.68118   0.15124   0.00000  Uiso   1.00
H351   H     0.88525   0.47103   0.65874   0.00000  Uiso   1.00
H352   H     0.72866   0.54788   0.40425   0.00000  Uiso   1.00
H353   H     0.83050   0.72522   0.95481   0.00000  Uiso   1.00
H354   H     0.94839   0.78420   0.98922   0.00000  Uiso   1.00
H355   H     0.80407   0.68453   0.75564   0.00000  Uiso   1.00
H356   H     0.72981   0.72098   0.10918   0.00000  Uiso   1.00
H357   H     0.09364   0.82741   0.04363   0.00000  Uiso   1.00
H358   H     0.78930   0.61726   0.55113   0.00000  Uiso   1.00
H359   H     0.63272   0.69411   0.29664   0.00000  Uiso   1.00
O360   O     0.22120   0.79001   0.12230   0.00000  Uiso   1.00
O361   O     0.82190   0.51430   0.47617   0.00000  Uiso   1.00
O362   O     0.61647   0.61512   0.45426   0.00000  Uiso   1.00
N363   N     0.15082   0.70751   0.12121   0.00000  Uiso   1.00
N364   N     0.86629   0.51103   0.66075   0.00000  Uiso   1.00
N365   N     0.71989   0.58287   0.35772   0.00000  Uiso   1.00
N366   N     0.09920   0.78619   0.06331   0.00000  Uiso   1.00
N367   N     0.81467   0.58972   0.60285   0.00000  Uiso   1.00
N368   N     0.66826   0.66156   0.29982   0.00000  Uiso   1.00
