data_job_03079
_audit_creation_date              2018-12-19
_audit_creation_method            'Materials Studio'
_symmetry_space_group_name_H-M    'P1'
_symmetry_Int_Tables_number       1
_symmetry_cell_setting            triclinic
loop_
_symmetry_equiv_pos_as_xyz
  x,y,z
_cell_length_a                    25.2577
_cell_length_b                    23.6235
_cell_length_c                    9.6584
_cell_angle_alpha                 90.0000
_cell_angle_beta                  90.0000
_cell_angle_gamma                 90.0000
loop_
_atom_site_label
_atom_site_type_symbol
_atom_site_fract_x
_atom_site_fract_y
_atom_site_fract_z
_atom_site_U_iso_or_equiv
_atom_site_adp_type
_atom_site_occupancy
C1     C     0.87919   0.65751   0.60680   0.00000  Uiso   1.00
C2     C     0.85211   0.71473   0.58870   0.00000  Uiso   1.00
C3     C     0.82394   0.73207   0.47286   0.00000  Uiso   1.00
C4     C     0.80217   0.78602   0.47648   0.00000  Uiso   1.00
C5     C     0.75921   0.86951   0.43080   0.00000  Uiso   1.00
C6     C     0.93709   0.67039   0.63856   0.00000  Uiso   1.00
C7     C     0.98036   0.65045   0.56465   0.00000  Uiso   1.00
C8     C     0.03012   0.66706   0.61026   0.00000  Uiso   1.00
C9     C     0.11909   0.68168   0.64204   0.00000  Uiso   1.00
C10    C     0.85620   0.63193   0.73870   0.00000  Uiso   1.00
C11    C     0.83147   0.57963   0.74900   0.00000  Uiso   1.00
C12    C     0.81314   0.56386   0.87893   0.00000  Uiso   1.00
C13    C     0.77652   0.51876   0.06619   0.00000  Uiso   1.00
C14    C     0.89062   0.72247   0.81922   0.00000  Uiso   1.00
C15    C     0.85833   0.75002   0.70408   0.00000  Uiso   1.00
C16    C     0.83659   0.80395   0.70787   0.00000  Uiso   1.00
C17    C     0.80839   0.82137   0.59206   0.00000  Uiso   1.00
C18    C     0.94330   0.70568   0.75393   0.00000  Uiso   1.00
C19    C     0.99301   0.72232   0.79966   0.00000  Uiso   1.00
C20    C     0.03634   0.70241   0.72584   0.00000  Uiso   1.00
C21    C     0.86241   0.66721   0.85408   0.00000  Uiso   1.00
C22    C     0.84412   0.65151   0.98401   0.00000  Uiso   1.00
C23    C     0.81937   0.59921   0.99451   0.00000  Uiso   1.00
H24    H     0.87436   0.63004   0.51698   0.00000  Uiso   1.00
H25    H     0.81915   0.70475   0.38359   0.00000  Uiso   1.00
H26    H     0.97554   0.62314   0.47538   0.00000  Uiso   1.00
H27    H     0.82668   0.55234   0.65970   0.00000  Uiso   1.00
H28    H     0.76070   0.80316   0.28657   0.00000  Uiso   1.00
H29    H     0.09046   0.63105   0.48014   0.00000  Uiso   1.00
H30    H     0.77655   0.48176   0.86881   0.00000  Uiso   1.00
H31    H     0.89546   0.74995   0.90904   0.00000  Uiso   1.00
H32    H     0.84140   0.83125   0.79717   0.00000  Uiso   1.00
H33    H     0.99780   0.74963   0.88895   0.00000  Uiso   1.00
H34    H     0.84893   0.67883   0.07327   0.00000  Uiso   1.00
H35    H     0.77876   0.90583   0.62224   0.00000  Uiso   1.00
H36    H     0.10853   0.73371   0.81581   0.00000  Uiso   1.00
H37    H     0.79461   0.58442   0.20448   0.00000  Uiso   1.00
O38    O     0.73381   0.90582   0.37372   0.00000  Uiso   1.00
O39    O     0.16644   0.68001   0.62768   0.00000  Uiso   1.00
O40    O     0.75459   0.48414   0.13761   0.00000  Uiso   1.00
N41    N     0.77236   0.81616   0.38093   0.00000  Uiso   1.00
N42    N     0.08067   0.65526   0.56189   0.00000  Uiso   1.00
N43    N     0.78720   0.51567   0.92528   0.00000  Uiso   1.00
N44    N     0.78208   0.87141   0.56156   0.00000  Uiso   1.00
N45    N     0.09039   0.71050   0.74252   0.00000  Uiso   1.00
N46    N     0.79691   0.57092   0.10590   0.00000  Uiso   1.00
C47    C     0.87919   0.15751   0.10680   0.00000  Uiso   1.00
C48    C     0.85211   0.21473   0.08870   0.00000  Uiso   1.00
C49    C     0.82394   0.23207   0.97286   0.00000  Uiso   1.00
C50    C     0.80217   0.28602   0.97648   0.00000  Uiso   1.00
C51    C     0.75921   0.36951   0.93080   0.00000  Uiso   1.00
C52    C     0.93709   0.17039   0.13856   0.00000  Uiso   1.00
C53    C     0.98036   0.15045   0.06465   0.00000  Uiso   1.00
C54    C     0.03012   0.16706   0.11026   0.00000  Uiso   1.00
C55    C     0.11909   0.18168   0.14204   0.00000  Uiso   1.00
C56    C     0.85620   0.13193   0.23870   0.00000  Uiso   1.00
C57    C     0.83147   0.07963   0.24900   0.00000  Uiso   1.00
C58    C     0.81314   0.06386   0.37893   0.00000  Uiso   1.00
C59    C     0.77652   0.01876   0.56619   0.00000  Uiso   1.00
C60    C     0.89062   0.22247   0.31922   0.00000  Uiso   1.00
C61    C     0.85833   0.25002   0.20408   0.00000  Uiso   1.00
C62    C     0.83659   0.30395   0.20787   0.00000  Uiso   1.00
C63    C     0.80839   0.32137   0.09206   0.00000  Uiso   1.00
C64    C     0.94330   0.20568   0.25393   0.00000  Uiso   1.00
C65    C     0.99301   0.22232   0.29966   0.00000  Uiso   1.00
C66    C     0.03634   0.20241   0.22584   0.00000  Uiso   1.00
C67    C     0.86241   0.16721   0.35408   0.00000  Uiso   1.00
C68    C     0.84412   0.15151   0.48401   0.00000  Uiso   1.00
C69    C     0.81937   0.09921   0.49451   0.00000  Uiso   1.00
H70    H     0.87436   0.13004   0.01698   0.00000  Uiso   1.00
H71    H     0.81915   0.20475   0.88359   0.00000  Uiso   1.00
H72    H     0.97554   0.12314   0.97538   0.00000  Uiso   1.00
H73    H     0.82668   0.05234   0.15970   0.00000  Uiso   1.00
H74    H     0.76070   0.30316   0.78657   0.00000  Uiso   1.00
H75    H     0.09046   0.13105   0.98014   0.00000  Uiso   1.00
H76    H     0.77655   0.98176   0.36881   0.00000  Uiso   1.00
H77    H     0.89546   0.24995   0.40904   0.00000  Uiso   1.00
H78    H     0.84140   0.33125   0.29717   0.00000  Uiso   1.00
H79    H     0.99780   0.24963   0.38895   0.00000  Uiso   1.00
H80    H     0.84893   0.17883   0.57327   0.00000  Uiso   1.00
H81    H     0.77876   0.40583   0.12224   0.00000  Uiso   1.00
H82    H     0.10853   0.23371   0.31581   0.00000  Uiso   1.00
H83    H     0.79461   0.08442   0.70448   0.00000  Uiso   1.00
O84    O     0.73381   0.40582   0.87372   0.00000  Uiso   1.00
O85    O     0.16644   0.18001   0.12768   0.00000  Uiso   1.00
O86    O     0.75459   0.98414   0.63761   0.00000  Uiso   1.00
N87    N     0.77236   0.31616   0.88093   0.00000  Uiso   1.00
N88    N     0.08067   0.15526   0.06189   0.00000  Uiso   1.00
N89    N     0.78720   0.01567   0.42528   0.00000  Uiso   1.00
N90    N     0.78208   0.37141   0.06156   0.00000  Uiso   1.00
N91    N     0.09039   0.21050   0.24252   0.00000  Uiso   1.00
N92    N     0.79691   0.07092   0.60590   0.00000  Uiso   1.00
C93    C     0.12081   0.34249   0.60680   0.00000  Uiso   1.00
C94    C     0.14789   0.28527   0.58870   0.00000  Uiso   1.00
C95    C     0.17606   0.26793   0.47286   0.00000  Uiso   1.00
C96    C     0.19783   0.21398   0.47648   0.00000  Uiso   1.00
C97    C     0.24079   0.13049   0.43080   0.00000  Uiso   1.00
C98    C     0.06291   0.32961   0.63856   0.00000  Uiso   1.00
C99    C     0.01964   0.34955   0.56465   0.00000  Uiso   1.00
C100   C     0.96988   0.33294   0.61026   0.00000  Uiso   1.00
C101   C     0.88091   0.31832   0.64204   0.00000  Uiso   1.00
C102   C     0.14380   0.36807   0.73870   0.00000  Uiso   1.00
C103   C     0.16853   0.42037   0.74900   0.00000  Uiso   1.00
C104   C     0.18686   0.43614   0.87893   0.00000  Uiso   1.00
C105   C     0.22348   0.48124   0.06619   0.00000  Uiso   1.00
C106   C     0.10938   0.27753   0.81922   0.00000  Uiso   1.00
C107   C     0.14167   0.24998   0.70408   0.00000  Uiso   1.00
C108   C     0.16341   0.19605   0.70787   0.00000  Uiso   1.00
C109   C     0.19161   0.17863   0.59206   0.00000  Uiso   1.00
C110   C     0.05670   0.29432   0.75393   0.00000  Uiso   1.00
C111   C     0.00699   0.27768   0.79966   0.00000  Uiso   1.00
C112   C     0.96366   0.29759   0.72584   0.00000  Uiso   1.00
C113   C     0.13759   0.33279   0.85408   0.00000  Uiso   1.00
C114   C     0.15588   0.34849   0.98401   0.00000  Uiso   1.00
C115   C     0.18063   0.40079   0.99451   0.00000  Uiso   1.00
H116   H     0.12564   0.36996   0.51698   0.00000  Uiso   1.00
H117   H     0.18085   0.29525   0.38359   0.00000  Uiso   1.00
H118   H     0.02446   0.37686   0.47538   0.00000  Uiso   1.00
H119   H     0.17332   0.44766   0.65970   0.00000  Uiso   1.00
H120   H     0.23930   0.19684   0.28657   0.00000  Uiso   1.00
H121   H     0.90954   0.36895   0.48014   0.00000  Uiso   1.00
H122   H     0.22345   0.51824   0.86881   0.00000  Uiso   1.00
H123   H     0.10454   0.25005   0.90904   0.00000  Uiso   1.00
H124   H     0.15860   0.16875   0.79717   0.00000  Uiso   1.00
H125   H     0.00220   0.25037   0.88895   0.00000  Uiso   1.00
H126   H     0.15107   0.32117   0.07327   0.00000  Uiso   1.00
H127   H     0.22124   0.09417   0.62224   0.00000  Uiso   1.00
H128   H     0.89147   0.26629   0.81581   0.00000  Uiso   1.00
H129   H     0.20539   0.41558   0.20448   0.00000  Uiso   1.00
O130   O     0.26619   0.09418   0.37372   0.00000  Uiso   1.00
O131   O     0.83356   0.31999   0.62768   0.00000  Uiso   1.00
O132   O     0.24541   0.51586   0.13761   0.00000  Uiso   1.00
N133   N     0.22764   0.18384   0.38093   0.00000  Uiso   1.00
N134   N     0.91933   0.34474   0.56189   0.00000  Uiso   1.00
N135   N     0.21280   0.48433   0.92528   0.00000  Uiso   1.00
N136   N     0.21792   0.12859   0.56156   0.00000  Uiso   1.00
N137   N     0.90961   0.28950   0.74252   0.00000  Uiso   1.00
N138   N     0.20309   0.42908   0.10590   0.00000  Uiso   1.00
C139   C     0.12081   0.84249   0.10680   0.00000  Uiso   1.00
C140   C     0.14789   0.78527   0.08870   0.00000  Uiso   1.00
C141   C     0.17606   0.76793   0.97286   0.00000  Uiso   1.00
C142   C     0.19783   0.71398   0.97648   0.00000  Uiso   1.00
C143   C     0.24079   0.63049   0.93080   0.00000  Uiso   1.00
C144   C     0.06291   0.82961   0.13856   0.00000  Uiso   1.00
C145   C     0.01964   0.84955   0.06465   0.00000  Uiso   1.00
C146   C     0.96988   0.83294   0.11026   0.00000  Uiso   1.00
C147   C     0.88091   0.81832   0.14204   0.00000  Uiso   1.00
C148   C     0.14380   0.86807   0.23870   0.00000  Uiso   1.00
C149   C     0.16853   0.92037   0.24900   0.00000  Uiso   1.00
C150   C     0.18686   0.93614   0.37893   0.00000  Uiso   1.00
C151   C     0.22348   0.98124   0.56619   0.00000  Uiso   1.00
C152   C     0.10938   0.77753   0.31922   0.00000  Uiso   1.00
C153   C     0.14167   0.74998   0.20408   0.00000  Uiso   1.00
C154   C     0.16341   0.69605   0.20787   0.00000  Uiso   1.00
C155   C     0.19161   0.67863   0.09206   0.00000  Uiso   1.00
C156   C     0.05670   0.79432   0.25393   0.00000  Uiso   1.00
C157   C     0.00699   0.77768   0.29966   0.00000  Uiso   1.00
C158   C     0.96366   0.79759   0.22584   0.00000  Uiso   1.00
C159   C     0.13759   0.83279   0.35408   0.00000  Uiso   1.00
C160   C     0.15588   0.84849   0.48401   0.00000  Uiso   1.00
C161   C     0.18063   0.90079   0.49451   0.00000  Uiso   1.00
H162   H     0.12564   0.86996   0.01698   0.00000  Uiso   1.00
H163   H     0.18085   0.79525   0.88359   0.00000  Uiso   1.00
H164   H     0.02446   0.87686   0.97538   0.00000  Uiso   1.00
H165   H     0.17332   0.94766   0.15970   0.00000  Uiso   1.00
H166   H     0.23930   0.69684   0.78657   0.00000  Uiso   1.00
H167   H     0.90954   0.86895   0.98014   0.00000  Uiso   1.00
H168   H     0.22345   0.01824   0.36881   0.00000  Uiso   1.00
H169   H     0.10454   0.75005   0.40904   0.00000  Uiso   1.00
H170   H     0.15860   0.66875   0.29717   0.00000  Uiso   1.00
H171   H     0.00220   0.75037   0.38895   0.00000  Uiso   1.00
H172   H     0.15107   0.82117   0.57327   0.00000  Uiso   1.00
H173   H     0.22124   0.59417   0.12224   0.00000  Uiso   1.00
H174   H     0.89147   0.76629   0.31581   0.00000  Uiso   1.00
H175   H     0.20539   0.91558   0.70448   0.00000  Uiso   1.00
O176   O     0.26619   0.59418   0.87372   0.00000  Uiso   1.00
O177   O     0.83356   0.81999   0.12768   0.00000  Uiso   1.00
O178   O     0.24541   0.01586   0.63761   0.00000  Uiso   1.00
N179   N     0.22764   0.68384   0.88093   0.00000  Uiso   1.00
N180   N     0.91933   0.84474   0.06189   0.00000  Uiso   1.00
N181   N     0.21280   0.98433   0.42528   0.00000  Uiso   1.00
N182   N     0.21792   0.62859   0.06156   0.00000  Uiso   1.00
N183   N     0.90961   0.78950   0.24252   0.00000  Uiso   1.00
N184   N     0.20309   0.92908   0.60590   0.00000  Uiso   1.00
C185   C     0.37919   0.84249   0.60680   0.00000  Uiso   1.00
C186   C     0.35211   0.78527   0.58870   0.00000  Uiso   1.00
C187   C     0.32394   0.76793   0.47286   0.00000  Uiso   1.00
C188   C     0.30217   0.71398   0.47648   0.00000  Uiso   1.00
C189   C     0.25921   0.63049   0.43080   0.00000  Uiso   1.00
C190   C     0.43709   0.82961   0.63856   0.00000  Uiso   1.00
C191   C     0.48036   0.84955   0.56465   0.00000  Uiso   1.00
C192   C     0.53012   0.83294   0.61026   0.00000  Uiso   1.00
C193   C     0.61909   0.81832   0.64204   0.00000  Uiso   1.00
C194   C     0.35620   0.86807   0.73870   0.00000  Uiso   1.00
C195   C     0.33147   0.92037   0.74900   0.00000  Uiso   1.00
C196   C     0.31314   0.93614   0.87893   0.00000  Uiso   1.00
C197   C     0.27652   0.98124   0.06619   0.00000  Uiso   1.00
C198   C     0.39062   0.77753   0.81922   0.00000  Uiso   1.00
C199   C     0.35833   0.74998   0.70408   0.00000  Uiso   1.00
C200   C     0.33659   0.69605   0.70787   0.00000  Uiso   1.00
C201   C     0.30839   0.67863   0.59206   0.00000  Uiso   1.00
C202   C     0.44330   0.79432   0.75393   0.00000  Uiso   1.00
C203   C     0.49301   0.77768   0.79966   0.00000  Uiso   1.00
C204   C     0.53634   0.79759   0.72584   0.00000  Uiso   1.00
C205   C     0.36241   0.83279   0.85408   0.00000  Uiso   1.00
C206   C     0.34412   0.84849   0.98401   0.00000  Uiso   1.00
C207   C     0.31937   0.90079   0.99451   0.00000  Uiso   1.00
H208   H     0.37436   0.86996   0.51698   0.00000  Uiso   1.00
H209   H     0.31915   0.79525   0.38359   0.00000  Uiso   1.00
H210   H     0.47554   0.87686   0.47538   0.00000  Uiso   1.00
H211   H     0.32668   0.94766   0.65970   0.00000  Uiso   1.00
H212   H     0.26070   0.69684   0.28657   0.00000  Uiso   1.00
H213   H     0.59046   0.86895   0.48014   0.00000  Uiso   1.00
H214   H     0.27655   0.01824   0.86881   0.00000  Uiso   1.00
H215   H     0.39546   0.75005   0.90904   0.00000  Uiso   1.00
H216   H     0.34140   0.66875   0.79717   0.00000  Uiso   1.00
H217   H     0.49780   0.75037   0.88895   0.00000  Uiso   1.00
H218   H     0.34893   0.82117   0.07327   0.00000  Uiso   1.00
H219   H     0.27876   0.59417   0.62224   0.00000  Uiso   1.00
H220   H     0.60853   0.76629   0.81581   0.00000  Uiso   1.00
H221   H     0.29461   0.91558   0.20448   0.00000  Uiso   1.00
O222   O     0.23381   0.59418   0.37372   0.00000  Uiso   1.00
O223   O     0.66644   0.81999   0.62768   0.00000  Uiso   1.00
O224   O     0.25459   0.01586   0.13761   0.00000  Uiso   1.00
N225   N     0.27236   0.68384   0.38093   0.00000  Uiso   1.00
N226   N     0.58067   0.84474   0.56189   0.00000  Uiso   1.00
N227   N     0.28720   0.98433   0.92528   0.00000  Uiso   1.00
N228   N     0.28208   0.62859   0.56156   0.00000  Uiso   1.00
N229   N     0.59039   0.78950   0.74252   0.00000  Uiso   1.00
N230   N     0.29691   0.92908   0.10590   0.00000  Uiso   1.00
C231   C     0.37919   0.34249   0.10680   0.00000  Uiso   1.00
C232   C     0.35211   0.28527   0.08870   0.00000  Uiso   1.00
C233   C     0.32394   0.26793   0.97286   0.00000  Uiso   1.00
C234   C     0.30217   0.21398   0.97648   0.00000  Uiso   1.00
C235   C     0.25921   0.13049   0.93080   0.00000  Uiso   1.00
C236   C     0.43709   0.32961   0.13856   0.00000  Uiso   1.00
C237   C     0.48036   0.34955   0.06465   0.00000  Uiso   1.00
C238   C     0.53012   0.33294   0.11026   0.00000  Uiso   1.00
C239   C     0.61909   0.31832   0.14204   0.00000  Uiso   1.00
C240   C     0.35620   0.36807   0.23870   0.00000  Uiso   1.00
C241   C     0.33147   0.42037   0.24900   0.00000  Uiso   1.00
C242   C     0.31314   0.43614   0.37893   0.00000  Uiso   1.00
C243   C     0.27652   0.48124   0.56619   0.00000  Uiso   1.00
C244   C     0.39062   0.27753   0.31922   0.00000  Uiso   1.00
C245   C     0.35833   0.24998   0.20408   0.00000  Uiso   1.00
C246   C     0.33659   0.19605   0.20787   0.00000  Uiso   1.00
C247   C     0.30839   0.17863   0.09206   0.00000  Uiso   1.00
C248   C     0.44330   0.29432   0.25393   0.00000  Uiso   1.00
C249   C     0.49301   0.27768   0.29966   0.00000  Uiso   1.00
C250   C     0.53634   0.29759   0.22584   0.00000  Uiso   1.00
C251   C     0.36241   0.33279   0.35408   0.00000  Uiso   1.00
C252   C     0.34412   0.34849   0.48401   0.00000  Uiso   1.00
C253   C     0.31937   0.40079   0.49451   0.00000  Uiso   1.00
H254   H     0.37436   0.36996   0.01698   0.00000  Uiso   1.00
H255   H     0.31915   0.29525   0.88359   0.00000  Uiso   1.00
H256   H     0.47554   0.37686   0.97538   0.00000  Uiso   1.00
H257   H     0.32668   0.44766   0.15970   0.00000  Uiso   1.00
H258   H     0.26070   0.19684   0.78657   0.00000  Uiso   1.00
H259   H     0.59046   0.36895   0.98014   0.00000  Uiso   1.00
H260   H     0.27655   0.51824   0.36881   0.00000  Uiso   1.00
H261   H     0.39546   0.25005   0.40904   0.00000  Uiso   1.00
H262   H     0.34140   0.16875   0.29717   0.00000  Uiso   1.00
H263   H     0.49780   0.25037   0.38895   0.00000  Uiso   1.00
H264   H     0.34893   0.32117   0.57327   0.00000  Uiso   1.00
H265   H     0.27876   0.09417   0.12224   0.00000  Uiso   1.00
H266   H     0.60853   0.26629   0.31581   0.00000  Uiso   1.00
H267   H     0.29461   0.41558   0.70448   0.00000  Uiso   1.00
O268   O     0.23381   0.09418   0.87372   0.00000  Uiso   1.00
O269   O     0.66644   0.31999   0.12768   0.00000  Uiso   1.00
O270   O     0.25459   0.51586   0.63761   0.00000  Uiso   1.00
N271   N     0.27236   0.18384   0.88093   0.00000  Uiso   1.00
N272   N     0.58067   0.34474   0.06189   0.00000  Uiso   1.00
N273   N     0.28720   0.48433   0.42528   0.00000  Uiso   1.00
N274   N     0.28208   0.12859   0.06156   0.00000  Uiso   1.00
N275   N     0.59039   0.28950   0.24252   0.00000  Uiso   1.00
N276   N     0.29691   0.42908   0.60590   0.00000  Uiso   1.00
C277   C     0.62081   0.15751   0.60680   0.00000  Uiso   1.00
C278   C     0.64789   0.21473   0.58870   0.00000  Uiso   1.00
C279   C     0.67606   0.23207   0.47286   0.00000  Uiso   1.00
C280   C     0.69783   0.28602   0.47648   0.00000  Uiso   1.00
C281   C     0.74079   0.36951   0.43080   0.00000  Uiso   1.00
C282   C     0.56291   0.17039   0.63856   0.00000  Uiso   1.00
C283   C     0.51964   0.15045   0.56465   0.00000  Uiso   1.00
C284   C     0.46988   0.16706   0.61026   0.00000  Uiso   1.00
C285   C     0.38091   0.18168   0.64204   0.00000  Uiso   1.00
C286   C     0.64380   0.13193   0.73870   0.00000  Uiso   1.00
C287   C     0.66853   0.07963   0.74900   0.00000  Uiso   1.00
C288   C     0.68686   0.06386   0.87893   0.00000  Uiso   1.00
C289   C     0.72348   0.01876   0.06619   0.00000  Uiso   1.00
C290   C     0.60938   0.22247   0.81922   0.00000  Uiso   1.00
C291   C     0.64167   0.25002   0.70408   0.00000  Uiso   1.00
C292   C     0.66341   0.30395   0.70787   0.00000  Uiso   1.00
C293   C     0.69161   0.32137   0.59206   0.00000  Uiso   1.00
C294   C     0.55670   0.20568   0.75393   0.00000  Uiso   1.00
C295   C     0.50699   0.22232   0.79966   0.00000  Uiso   1.00
C296   C     0.46366   0.20241   0.72584   0.00000  Uiso   1.00
C297   C     0.63759   0.16721   0.85408   0.00000  Uiso   1.00
C298   C     0.65588   0.15151   0.98401   0.00000  Uiso   1.00
C299   C     0.68063   0.09921   0.99451   0.00000  Uiso   1.00
H300   H     0.62564   0.13004   0.51698   0.00000  Uiso   1.00
H301   H     0.68085   0.20475   0.38359   0.00000  Uiso   1.00
H302   H     0.52446   0.12314   0.47538   0.00000  Uiso   1.00
H303   H     0.67332   0.05234   0.65970   0.00000  Uiso   1.00
H304   H     0.73930   0.30316   0.28657   0.00000  Uiso   1.00
H305   H     0.40954   0.13105   0.48014   0.00000  Uiso   1.00
H306   H     0.72345   0.98176   0.86881   0.00000  Uiso   1.00
H307   H     0.60454   0.24995   0.90904   0.00000  Uiso   1.00
H308   H     0.65860   0.33125   0.79717   0.00000  Uiso   1.00
H309   H     0.50220   0.24963   0.88895   0.00000  Uiso   1.00
H310   H     0.65107   0.17883   0.07327   0.00000  Uiso   1.00
H311   H     0.72124   0.40583   0.62224   0.00000  Uiso   1.00
H312   H     0.39147   0.23371   0.81581   0.00000  Uiso   1.00
H313   H     0.70539   0.08442   0.20448   0.00000  Uiso   1.00
O314   O     0.76619   0.40582   0.37372   0.00000  Uiso   1.00
O315   O     0.33356   0.18001   0.62768   0.00000  Uiso   1.00
O316   O     0.74541   0.98414   0.13761   0.00000  Uiso   1.00
N317   N     0.72764   0.31616   0.38093   0.00000  Uiso   1.00
N318   N     0.41933   0.15526   0.56189   0.00000  Uiso   1.00
N319   N     0.71280   0.01567   0.92528   0.00000  Uiso   1.00
N320   N     0.71792   0.37141   0.56156   0.00000  Uiso   1.00
N321   N     0.40961   0.21050   0.74252   0.00000  Uiso   1.00
N322   N     0.70309   0.07092   0.10590   0.00000  Uiso   1.00
C323   C     0.62081   0.65751   0.10680   0.00000  Uiso   1.00
C324   C     0.64789   0.71473   0.08870   0.00000  Uiso   1.00
C325   C     0.67606   0.73207   0.97286   0.00000  Uiso   1.00
C326   C     0.69783   0.78602   0.97648   0.00000  Uiso   1.00
C327   C     0.74079   0.86951   0.93080   0.00000  Uiso   1.00
C328   C     0.56291   0.67039   0.13856   0.00000  Uiso   1.00
C329   C     0.51964   0.65045   0.06465   0.00000  Uiso   1.00
C330   C     0.46988   0.66706   0.11026   0.00000  Uiso   1.00
C331   C     0.38091   0.68168   0.14204   0.00000  Uiso   1.00
C332   C     0.64380   0.63193   0.23870   0.00000  Uiso   1.00
C333   C     0.66853   0.57963   0.24900   0.00000  Uiso   1.00
C334   C     0.68686   0.56386   0.37893   0.00000  Uiso   1.00
C335   C     0.72348   0.51876   0.56619   0.00000  Uiso   1.00
C336   C     0.60938   0.72247   0.31922   0.00000  Uiso   1.00
C337   C     0.64167   0.75002   0.20408   0.00000  Uiso   1.00
C338   C     0.66341   0.80395   0.20787   0.00000  Uiso   1.00
C339   C     0.69161   0.82137   0.09206   0.00000  Uiso   1.00
C340   C     0.55670   0.70568   0.25393   0.00000  Uiso   1.00
C341   C     0.50699   0.72232   0.29966   0.00000  Uiso   1.00
C342   C     0.46366   0.70241   0.22584   0.00000  Uiso   1.00
C343   C     0.63759   0.66721   0.35408   0.00000  Uiso   1.00
C344   C     0.65588   0.65151   0.48401   0.00000  Uiso   1.00
C345   C     0.68063   0.59921   0.49451   0.00000  Uiso   1.00
H346   H     0.62564   0.63004   0.01698   0.00000  Uiso   1.00
H347   H     0.68085   0.70475   0.88359   0.00000  Uiso   1.00
H348   H     0.52446   0.62314   0.97538   0.00000  Uiso   1.00
H349   H     0.67332   0.55234   0.15970   0.00000  Uiso   1.00
H350   H     0.73930   0.80316   0.78657   0.00000  Uiso   1.00
H351   H     0.40954   0.63105   0.98014   0.00000  Uiso   1.00
H352   H     0.72345   0.48176   0.36881   0.00000  Uiso   1.00
H353   H     0.60454   0.74995   0.40904   0.00000  Uiso   1.00
H354   H     0.65860   0.83125   0.29717   0.00000  Uiso   1.00
H355   H     0.50220   0.74963   0.38895   0.00000  Uiso   1.00
H356   H     0.65107   0.67883   0.57327   0.00000  Uiso   1.00
H357   H     0.72124   0.90583   0.12224   0.00000  Uiso   1.00
H358   H     0.39147   0.73371   0.31581   0.00000  Uiso   1.00
H359   H     0.70539   0.58442   0.70448   0.00000  Uiso   1.00
O360   O     0.76619   0.90582   0.87372   0.00000  Uiso   1.00
O361   O     0.33356   0.68001   0.12768   0.00000  Uiso   1.00
O362   O     0.74541   0.48414   0.63761   0.00000  Uiso   1.00
N363   N     0.72764   0.81616   0.88093   0.00000  Uiso   1.00
N364   N     0.41933   0.65526   0.06189   0.00000  Uiso   1.00
N365   N     0.71280   0.51567   0.42528   0.00000  Uiso   1.00
N366   N     0.71792   0.87141   0.06156   0.00000  Uiso   1.00
N367   N     0.40961   0.71050   0.24252   0.00000  Uiso   1.00
N368   N     0.70309   0.57092   0.60590   0.00000  Uiso   1.00
