data_job_05915
_audit_creation_date              2018-12-19
_audit_creation_method            'Materials Studio'
_symmetry_space_group_name_H-M    'P1'
_symmetry_Int_Tables_number       1
_symmetry_cell_setting            triclinic
loop_
_symmetry_equiv_pos_as_xyz
  x,y,z
_cell_length_a                    15.6767
_cell_length_b                    15.2658
_cell_length_c                    14.1785
_cell_angle_alpha                 95.9365
_cell_angle_beta                  96.2505
_cell_angle_gamma                 94.4867
loop_
_atom_site_label
_atom_site_type_symbol
_atom_site_fract_x
_atom_site_fract_y
_atom_site_fract_z
_atom_site_U_iso_or_equiv
_atom_site_adp_type
_atom_site_occupancy
C1     C     0.30457   0.64041   0.96986   0.00000  Uiso   1.00
C2     C     0.32791   0.63734   0.86801   0.00000  Uiso   1.00
C3     C     0.39716   0.68559   0.83894   0.00000  Uiso   1.00
C4     C     0.40750   0.67350   0.74259   0.00000  Uiso   1.00
C5     C     0.45238   0.67763   0.59429   0.00000  Uiso   1.00
C6     C     0.21189   0.66497   0.96531   0.00000  Uiso   1.00
C7     C     0.18359   0.73645   0.01807   0.00000  Uiso   1.00
C8     C     0.09626   0.74760   0.00363   0.00000  Uiso   1.00
C9     C     0.96100   0.79459   0.00645   0.00000  Uiso   1.00
C10    C     0.30210   0.54539   0.99442   0.00000  Uiso   1.00
C11    C     0.34963   0.51633   0.07166   0.00000  Uiso   1.00
C12    C     0.33823   0.42680   0.08174   0.00000  Uiso   1.00
C13    C     0.34304   0.28813   0.12976   0.00000  Uiso   1.00
C14    C     0.19980   0.53311   0.85043   0.00000  Uiso   1.00
C15    C     0.27100   0.57907   0.80314   0.00000  Uiso   1.00
C16    C     0.28125   0.56689   0.70680   0.00000  Uiso   1.00
C17    C     0.35050   0.61511   0.67760   0.00000  Uiso   1.00
C18    C     0.15499   0.60670   0.90044   0.00000  Uiso   1.00
C19    C     0.06768   0.61774   0.88593   0.00000  Uiso   1.00
C20    C     0.03925   0.68922   0.93864   0.00000  Uiso   1.00
C21    C     0.24520   0.48711   0.92955   0.00000  Uiso   1.00
C22    C     0.23372   0.39762   0.93951   0.00000  Uiso   1.00
C23    C     0.28122   0.36842   0.01675   0.00000  Uiso   1.00
H24    H     0.34887   0.68578   0.02037   0.00000  Uiso   1.00
H25    H     0.44118   0.73069   0.88917   0.00000  Uiso   1.00
H26    H     0.22764   0.78153   0.06827   0.00000  Uiso   1.00
H27    H     0.39366   0.56144   0.12185   0.00000  Uiso   1.00
H28    H     0.51841   0.75481   0.71509   0.00000  Uiso   1.00
H29    H     0.06815   0.86198   0.09276   0.00000  Uiso   1.00
H30    H     0.41822   0.39789   0.20575   0.00000  Uiso   1.00
H31    H     0.15550   0.48774   0.79992   0.00000  Uiso   1.00
H32    H     0.23720   0.52178   0.65661   0.00000  Uiso   1.00
H33    H     0.02366   0.57263   0.83572   0.00000  Uiso   1.00
H34    H     0.18968   0.35254   0.88930   0.00000  Uiso   1.00
H35    H     0.35285   0.58526   0.52634   0.00000  Uiso   1.00
H36    H     0.90259   0.69243   0.90402   0.00000  Uiso   1.00
H37    H     0.25267   0.22834   0.01700   0.00000  Uiso   1.00
O38    O     0.49285   0.69602   0.53042   0.00000  Uiso   1.00
O39    O     0.90212   0.83662   0.02593   0.00000  Uiso   1.00
O40    O     0.36142   0.22774   0.17415   0.00000  Uiso   1.00
N41    N     0.46824   0.71022   0.69034   0.00000  Uiso   1.00
N42    N     0.04727   0.81043   0.04343   0.00000  Uiso   1.00
N43    N     0.37455   0.37655   0.14908   0.00000  Uiso   1.00
N44    N     0.37916   0.61898   0.58877   0.00000  Uiso   1.00
N45    N     0.95819   0.71919   0.94186   0.00000  Uiso   1.00
N46    N     0.28547   0.28531   0.04751   0.00000  Uiso   1.00
C47    C     0.97701   0.30583   0.64142   0.00000  Uiso   1.00
C48    C     0.88433   0.33036   0.63706   0.00000  Uiso   1.00
C49    C     0.85613   0.40196   0.68970   0.00000  Uiso   1.00
C50    C     0.76878   0.41305   0.67549   0.00000  Uiso   1.00
C51    C     0.63353   0.46001   0.67858   0.00000  Uiso   1.00
C52    C     0.97468   0.21092   0.66632   0.00000  Uiso   1.00
C53    C     0.02246   0.18210   0.74355   0.00000  Uiso   1.00
C54    C     0.01117   0.09264   0.75396   0.00000  Uiso   1.00
C55    C     0.01625   0.95416   0.80244   0.00000  Uiso   1.00
C56    C     0.00007   0.30244   0.53944   0.00000  Uiso   1.00
C57    C     0.06922   0.35054   0.50999   0.00000  Uiso   1.00
C58    C     0.07932   0.33812   0.41358   0.00000  Uiso   1.00
C59    C     0.12383   0.34173   0.26506   0.00000  Uiso   1.00
C60    C     0.87203   0.19819   0.52258   0.00000  Uiso   1.00
C61    C     0.82731   0.27189   0.57252   0.00000  Uiso   1.00
C62    C     0.73998   0.28288   0.55822   0.00000  Uiso   1.00
C63    C     0.71165   0.35448   0.61083   0.00000  Uiso   1.00
C64    C     0.91766   0.15246   0.60178   0.00000  Uiso   1.00
C65    C     0.90631   0.06302   0.61207   0.00000  Uiso   1.00
C66    C     0.95405   0.03407   0.68930   0.00000  Uiso   1.00
C67    C     0.94305   0.24397   0.47489   0.00000  Uiso   1.00
C68    C     0.95306   0.23146   0.37851   0.00000  Uiso   1.00
C69    C     0.02220   0.27955   0.34892   0.00000  Uiso   1.00
H70    H     0.02140   0.35134   0.69167   0.00000  Uiso   1.00
H71    H     0.90027   0.44718   0.73965   0.00000  Uiso   1.00
H72    H     0.06658   0.22736   0.79348   0.00000  Uiso   1.00
H73    H     0.11333   0.39578   0.55996   0.00000  Uiso   1.00
H74    H     0.74083   0.52765   0.76440   0.00000  Uiso   1.00
H75    H     0.09152   0.06413   0.87789   0.00000  Uiso   1.00
H76    H     0.19010   0.41927   0.38547   0.00000  Uiso   1.00
H77    H     0.82764   0.15267   0.47233   0.00000  Uiso   1.00
H78    H     0.69587   0.23762   0.50827   0.00000  Uiso   1.00
H79    H     0.86218   0.01780   0.56210   0.00000  Uiso   1.00
H80    H     0.90893   0.18622   0.32858   0.00000  Uiso   1.00
H81    H     0.57492   0.35756   0.57661   0.00000  Uiso   1.00
H82    H     0.92563   0.89404   0.69010   0.00000  Uiso   1.00
H83    H     0.02420   0.24918   0.19767   0.00000  Uiso   1.00
O84    O     0.57469   0.50205   0.69813   0.00000  Uiso   1.00
O85    O     0.03480   0.89393   0.84701   0.00000  Uiso   1.00
O86    O     0.16412   0.35987   0.20097   0.00000  Uiso   1.00
N87    N     0.71987   0.47597   0.71526   0.00000  Uiso   1.00
N88    N     0.04774   0.04261   0.82138   0.00000  Uiso   1.00
N89    N     0.13991   0.37462   0.36100   0.00000  Uiso   1.00
N90    N     0.63060   0.38445   0.61421   0.00000  Uiso   1.00
N91    N     0.95847   0.95108   0.72032   0.00000  Uiso   1.00
N92    N     0.05064   0.28310   0.25995   0.00000  Uiso   1.00
C93    C     0.64030   0.97488   0.30720   0.00000  Uiso   1.00
C94    C     0.63815   0.87997   0.33207   0.00000  Uiso   1.00
C95    C     0.68582   0.85126   0.40943   0.00000  Uiso   1.00
C96    C     0.67474   0.76177   0.41978   0.00000  Uiso   1.00
C97    C     0.68007   0.62330   0.46822   0.00000  Uiso   1.00
C98    C     0.66368   0.97163   0.20535   0.00000  Uiso   1.00
C99    C     0.73280   0.02000   0.17617   0.00000  Uiso   1.00
C100   C     0.74320   0.00768   0.07983   0.00000  Uiso   1.00
C101   C     0.78812   0.01157   0.93153   0.00000  Uiso   1.00
C102   C     0.54752   0.99913   0.30249   0.00000  Uiso   1.00
C103   C     0.51897   0.07062   0.35496   0.00000  Uiso   1.00
C104   C     0.43158   0.08147   0.34039   0.00000  Uiso   1.00
C105   C     0.29614   0.12804   0.34291   0.00000  Uiso   1.00
C106   C     0.53587   0.86702   0.18800   0.00000  Uiso   1.00
C107   C     0.58143   0.82139   0.26732   0.00000  Uiso   1.00
C108   C     0.57028   0.73192   0.27756   0.00000  Uiso   1.00
C109   C     0.61792   0.70308   0.35492   0.00000  Uiso   1.00
C110   C     0.60696   0.91305   0.14061   0.00000  Uiso   1.00
C111   C     0.61726   0.90067   0.04429   0.00000  Uiso   1.00
C112   C     0.68638   0.94899   0.01497   0.00000  Uiso   1.00
C113   C     0.49079   0.94054   0.23775   0.00000  Uiso   1.00
C114   C     0.40343   0.95128   0.22309   0.00000  Uiso   1.00
C115   C     0.37476   0.02278   0.27553   0.00000  Uiso   1.00
H116   H     0.68446   0.02049   0.35760   0.00000  Uiso   1.00
H117   H     0.72971   0.89661   0.45952   0.00000  Uiso   1.00
H118   H     0.77667   0.06534   0.22629   0.00000  Uiso   1.00
H119   H     0.56288   0.11594   0.40506   0.00000  Uiso   1.00
H120   H     0.75489   0.73343   0.54394   0.00000  Uiso   1.00
H121   H     0.85390   0.08921   0.05215   0.00000  Uiso   1.00
H122   H     0.40308   0.19593   0.42912   0.00000  Uiso   1.00
H123   H     0.49171   0.82141   0.13759   0.00000  Uiso   1.00
H124   H     0.52638   0.68660   0.22744   0.00000  Uiso   1.00
H125   H     0.57335   0.85533   0.99421   0.00000  Uiso   1.00
H126   H     0.35956   0.90593   0.17298   0.00000  Uiso   1.00
H127   H     0.58986   0.56297   0.35558   0.00000  Uiso   1.00
H128   H     0.68887   0.91876   0.86379   0.00000  Uiso   1.00
H129   H     0.23805   0.02548   0.24076   0.00000  Uiso   1.00
O130   O     0.69868   0.56311   0.51282   0.00000  Uiso   1.00
O131   O     0.82857   0.02989   0.86761   0.00000  Uiso   1.00
O132   O     0.23711   0.16991   0.36219   0.00000  Uiso   1.00
N133   N     0.71128   0.71182   0.48729   0.00000  Uiso   1.00
N134   N     0.80386   0.04444   0.02750   0.00000  Uiso   1.00
N135   N     0.38238   0.14423   0.37992   0.00000  Uiso   1.00
N136   N     0.62248   0.62010   0.38593   0.00000  Uiso   1.00
N137   N     0.71506   0.95272   0.92614   0.00000  Uiso   1.00
N138   N     0.29358   0.05251   0.27856   0.00000  Uiso   1.00
C139   C     0.69543   0.35959   0.03014   0.00000  Uiso   1.00
C140   C     0.67209   0.36266   0.13199   0.00000  Uiso   1.00
C141   C     0.60284   0.31441   0.16106   0.00000  Uiso   1.00
C142   C     0.59250   0.32650   0.25741   0.00000  Uiso   1.00
C143   C     0.54762   0.32237   0.40571   0.00000  Uiso   1.00
C144   C     0.78811   0.33503   0.03469   0.00000  Uiso   1.00
C145   C     0.81641   0.26355   0.98193   0.00000  Uiso   1.00
C146   C     0.90374   0.25240   0.99637   0.00000  Uiso   1.00
C147   C     0.03900   0.20541   0.99355   0.00000  Uiso   1.00
C148   C     0.69790   0.45461   0.00558   0.00000  Uiso   1.00
C149   C     0.65037   0.48367   0.92834   0.00000  Uiso   1.00
C150   C     0.66177   0.57320   0.91826   0.00000  Uiso   1.00
C151   C     0.65696   0.71187   0.87024   0.00000  Uiso   1.00
C152   C     0.80020   0.46689   0.14957   0.00000  Uiso   1.00
C153   C     0.72899   0.42094   0.19686   0.00000  Uiso   1.00
C154   C     0.71875   0.43311   0.29320   0.00000  Uiso   1.00
C155   C     0.64950   0.38489   0.32240   0.00000  Uiso   1.00
C156   C     0.84501   0.39330   0.09956   0.00000  Uiso   1.00
C157   C     0.93232   0.38226   0.11407   0.00000  Uiso   1.00
C158   C     0.96075   0.31078   0.06136   0.00000  Uiso   1.00
C159   C     0.75480   0.51289   0.07045   0.00000  Uiso   1.00
C160   C     0.76628   0.60238   0.06049   0.00000  Uiso   1.00
C161   C     0.71878   0.63158   0.98325   0.00000  Uiso   1.00
H162   H     0.65113   0.31422   0.97963   0.00000  Uiso   1.00
H163   H     0.55882   0.26931   0.11083   0.00000  Uiso   1.00
H164   H     0.77236   0.21847   0.93173   0.00000  Uiso   1.00
H165   H     0.60634   0.43856   0.87815   0.00000  Uiso   1.00
H166   H     0.48159   0.24519   0.28491   0.00000  Uiso   1.00
H167   H     0.93185   0.13802   0.90724   0.00000  Uiso   1.00
H168   H     0.58178   0.60211   0.79425   0.00000  Uiso   1.00
H169   H     0.84450   0.51226   0.20008   0.00000  Uiso   1.00
H170   H     0.76280   0.47822   0.34339   0.00000  Uiso   1.00
H171   H     0.97634   0.42737   0.16428   0.00000  Uiso   1.00
H172   H     0.81032   0.64746   0.11070   0.00000  Uiso   1.00
H173   H     0.64715   0.41474   0.47366   0.00000  Uiso   1.00
H174   H     0.09741   0.30757   0.09598   0.00000  Uiso   1.00
H175   H     0.74733   0.77166   0.98300   0.00000  Uiso   1.00
O176   O     0.50715   0.30398   0.46958   0.00000  Uiso   1.00
O177   O     0.09788   0.16338   0.97407   0.00000  Uiso   1.00
O178   O     0.63858   0.77226   0.82585   0.00000  Uiso   1.00
N179   N     0.53176   0.28978   0.30966   0.00000  Uiso   1.00
N180   N     0.95272   0.18957   0.95657   0.00000  Uiso   1.00
N181   N     0.62545   0.62345   0.85092   0.00000  Uiso   1.00
N182   N     0.62084   0.38102   0.41123   0.00000  Uiso   1.00
N183   N     0.04181   0.28081   0.05814   0.00000  Uiso   1.00
N184   N     0.71453   0.71469   0.95249   0.00000  Uiso   1.00
C185   C     0.02299   0.69417   0.35858   0.00000  Uiso   1.00
C186   C     0.11567   0.66964   0.36294   0.00000  Uiso   1.00
C187   C     0.14387   0.59804   0.31030   0.00000  Uiso   1.00
C188   C     0.23122   0.58695   0.32451   0.00000  Uiso   1.00
C189   C     0.36647   0.53999   0.32142   0.00000  Uiso   1.00
C190   C     0.02532   0.78908   0.33368   0.00000  Uiso   1.00
C191   C     0.97754   0.81790   0.25645   0.00000  Uiso   1.00
C192   C     0.98883   0.90736   0.24604   0.00000  Uiso   1.00
C193   C     0.98375   0.04584   0.19756   0.00000  Uiso   1.00
C194   C     0.99993   0.69756   0.46056   0.00000  Uiso   1.00
C195   C     0.93078   0.64946   0.49001   0.00000  Uiso   1.00
C196   C     0.92068   0.66188   0.58642   0.00000  Uiso   1.00
C197   C     0.87617   0.65827   0.73494   0.00000  Uiso   1.00
C198   C     0.12797   0.80181   0.47742   0.00000  Uiso   1.00
C199   C     0.17269   0.72811   0.42748   0.00000  Uiso   1.00
C200   C     0.26002   0.71712   0.44178   0.00000  Uiso   1.00
C201   C     0.28835   0.64552   0.38917   0.00000  Uiso   1.00
C202   C     0.08234   0.84754   0.39822   0.00000  Uiso   1.00
C203   C     0.09369   0.93698   0.38793   0.00000  Uiso   1.00
C204   C     0.04595   0.96593   0.31070   0.00000  Uiso   1.00
C205   C     0.05695   0.75603   0.52511   0.00000  Uiso   1.00
C206   C     0.04694   0.76854   0.62149   0.00000  Uiso   1.00
C207   C     0.97780   0.72045   0.65108   0.00000  Uiso   1.00
H208   H     0.97860   0.64866   0.30833   0.00000  Uiso   1.00
H209   H     0.09973   0.55282   0.26035   0.00000  Uiso   1.00
H210   H     0.93342   0.77264   0.20652   0.00000  Uiso   1.00
H211   H     0.88667   0.60422   0.44004   0.00000  Uiso   1.00
H212   H     0.25917   0.47235   0.23560   0.00000  Uiso   1.00
H213   H     0.90848   0.93587   0.12211   0.00000  Uiso   1.00
H214   H     0.80990   0.58073   0.61453   0.00000  Uiso   1.00
H215   H     0.17236   0.84733   0.52767   0.00000  Uiso   1.00
H216   H     0.30413   0.76238   0.49173   0.00000  Uiso   1.00
H217   H     0.13782   0.98220   0.43790   0.00000  Uiso   1.00
H218   H     0.09107   0.81378   0.67142   0.00000  Uiso   1.00
H219   H     0.42508   0.64244   0.42339   0.00000  Uiso   1.00
H220   H     0.07437   0.10596   0.30990   0.00000  Uiso   1.00
H221   H     0.97580   0.75082   0.80233   0.00000  Uiso   1.00
O222   O     0.42531   0.49795   0.30187   0.00000  Uiso   1.00
O223   O     0.96520   0.10607   0.15299   0.00000  Uiso   1.00
O224   O     0.83587   0.64013   0.79903   0.00000  Uiso   1.00
N225   N     0.28013   0.52403   0.28474   0.00000  Uiso   1.00
N226   N     0.95226   0.95739   0.17862   0.00000  Uiso   1.00
N227   N     0.86009   0.62538   0.63900   0.00000  Uiso   1.00
N228   N     0.36940   0.61555   0.38579   0.00000  Uiso   1.00
N229   N     0.04153   0.04892   0.27968   0.00000  Uiso   1.00
N230   N     0.94936   0.71690   0.74005   0.00000  Uiso   1.00
C231   C     0.35970   0.02512   0.69280   0.00000  Uiso   1.00
C232   C     0.36185   0.12003   0.66793   0.00000  Uiso   1.00
C233   C     0.31418   0.14874   0.59057   0.00000  Uiso   1.00
C234   C     0.32526   0.23823   0.58022   0.00000  Uiso   1.00
C235   C     0.31993   0.37670   0.53178   0.00000  Uiso   1.00
C236   C     0.33632   0.02837   0.79465   0.00000  Uiso   1.00
C237   C     0.26720   0.98000   0.82383   0.00000  Uiso   1.00
C238   C     0.25680   0.99232   0.92017   0.00000  Uiso   1.00
C239   C     0.21188   0.98843   0.06848   0.00000  Uiso   1.00
C240   C     0.45248   0.00087   0.69751   0.00000  Uiso   1.00
C241   C     0.48103   0.92938   0.64504   0.00000  Uiso   1.00
C242   C     0.56842   0.91853   0.65961   0.00000  Uiso   1.00
C243   C     0.70386   0.87196   0.65709   0.00000  Uiso   1.00
C244   C     0.46413   0.13298   0.81200   0.00000  Uiso   1.00
C245   C     0.41857   0.17861   0.73268   0.00000  Uiso   1.00
C246   C     0.42972   0.26808   0.72244   0.00000  Uiso   1.00
C247   C     0.38208   0.29692   0.64508   0.00000  Uiso   1.00
C248   C     0.39304   0.08695   0.85940   0.00000  Uiso   1.00
C249   C     0.38274   0.09933   0.95571   0.00000  Uiso   1.00
C250   C     0.31362   0.05101   0.98503   0.00000  Uiso   1.00
C251   C     0.50921   0.05946   0.76225   0.00000  Uiso   1.00
C252   C     0.59657   0.04872   0.77691   0.00000  Uiso   1.00
C253   C     0.62524   0.97722   0.72447   0.00000  Uiso   1.00
H254   H     0.31554   0.97951   0.64240   0.00000  Uiso   1.00
H255   H     0.27029   0.10339   0.54048   0.00000  Uiso   1.00
H256   H     0.22333   0.93466   0.77372   0.00000  Uiso   1.00
H257   H     0.43712   0.88406   0.59494   0.00000  Uiso   1.00
H258   H     0.24511   0.26657   0.45606   0.00000  Uiso   1.00
H259   H     0.14610   0.91079   0.94785   0.00000  Uiso   1.00
H260   H     0.59692   0.80407   0.57088   0.00000  Uiso   1.00
H261   H     0.50829   0.17859   0.86241   0.00000  Uiso   1.00
H262   H     0.47362   0.31340   0.77256   0.00000  Uiso   1.00
H263   H     0.42665   0.14467   0.00579   0.00000  Uiso   1.00
H264   H     0.64044   0.09407   0.82702   0.00000  Uiso   1.00
H265   H     0.41014   0.43703   0.64442   0.00000  Uiso   1.00
H266   H     0.31113   0.08124   0.13621   0.00000  Uiso   1.00
H267   H     0.76195   0.97452   0.75924   0.00000  Uiso   1.00
O268   O     0.30132   0.43689   0.48718   0.00000  Uiso   1.00
O269   O     0.17143   0.97011   0.13239   0.00000  Uiso   1.00
O270   O     0.76289   0.83009   0.63781   0.00000  Uiso   1.00
N271   N     0.28872   0.28818   0.51271   0.00000  Uiso   1.00
N272   N     0.19614   0.95556   0.97250   0.00000  Uiso   1.00
N273   N     0.61762   0.85577   0.62008   0.00000  Uiso   1.00
N274   N     0.37752   0.37990   0.61407   0.00000  Uiso   1.00
N275   N     0.28494   0.04728   0.07386   0.00000  Uiso   1.00
N276   N     0.70642   0.94749   0.72144   0.00000  Uiso   1.00
