data_job_04651
_audit_creation_date              2018-12-19
_audit_creation_method            'Materials Studio'
_symmetry_space_group_name_H-M    'P1'
_symmetry_Int_Tables_number       1
_symmetry_cell_setting            triclinic
loop_
_symmetry_equiv_pos_as_xyz
  x,y,z
_cell_length_a                    10.0988
_cell_length_b                    37.7589
_cell_length_c                    7.5254
_cell_angle_alpha                 90.0000
_cell_angle_beta                  111.8580
_cell_angle_gamma                 90.0000
loop_
_atom_site_label
_atom_site_type_symbol
_atom_site_fract_x
_atom_site_fract_y
_atom_site_fract_z
_atom_site_U_iso_or_equiv
_atom_site_adp_type
_atom_site_occupancy
C1     C     0.88278   0.09417   0.27003   0.00000  Uiso   1.00
C2     C     0.80624   0.12621   0.31001   0.00000  Uiso   1.00
C3     C     0.74197   0.15316   0.18139   0.00000  Uiso   1.00
C4     C     0.67755   0.18015   0.24548   0.00000  Uiso   1.00
C5     C     0.55879   0.22992   0.27930   0.00000  Uiso   1.00
C6     C     0.03281   0.09459   0.42334   0.00000  Uiso   1.00
C7     C     0.15903   0.09494   0.39000   0.00000  Uiso   1.00
C8     C     0.28532   0.09530   0.54950   0.00000  Uiso   1.00
C9     C     0.51830   0.09595   0.75926   0.00000  Uiso   1.00
C10    C     0.80920   0.06169   0.31148   0.00000  Uiso   1.00
C11    C     0.74745   0.03438   0.18409   0.00000  Uiso   1.00
C12    C     0.68552   0.00704   0.24942   0.00000  Uiso   1.00
C13    C     0.57132   0.95661   0.28549   0.00000  Uiso   1.00
C14    C     0.88264   0.09416   0.61258   0.00000  Uiso   1.00
C15    C     0.80618   0.12621   0.49608   0.00000  Uiso   1.00
C16    C     0.74183   0.15316   0.56038   0.00000  Uiso   1.00
C17    C     0.67747   0.18014   0.43187   0.00000  Uiso   1.00
C18    C     0.03274   0.09459   0.60940   0.00000  Uiso   1.00
C19    C     0.15888   0.09494   0.76898   0.00000  Uiso   1.00
C20    C     0.28526   0.09530   0.73589   0.00000  Uiso   1.00
C21    C     0.80913   0.06169   0.49753   0.00000  Uiso   1.00
C22    C     0.74729   0.03438   0.56308   0.00000  Uiso   1.00
C23    C     0.68545   0.00704   0.43582   0.00000  Uiso   1.00
H24    H     0.88284   0.09417   0.12518   0.00000  Uiso   1.00
H25    H     0.74206   0.15316   0.03742   0.00000  Uiso   1.00
H26    H     0.15905   0.09494   0.24600   0.00000  Uiso   1.00
H27    H     0.74752   0.03440   0.04012   0.00000  Uiso   1.00
H28    H     0.58600   0.21856   0.02220   0.00000  Uiso   1.00
H29    H     0.46523   0.09580   0.46199   0.00000  Uiso   1.00
H30    H     0.59746   0.96813   0.02786   0.00000  Uiso   1.00
H31    H     0.88259   0.09416   0.75744   0.00000  Uiso   1.00
H32    H     0.74179   0.15315   0.70437   0.00000  Uiso   1.00
H33    H     0.15878   0.09493   0.91295   0.00000  Uiso   1.00
H34    H     0.74726   0.03439   0.70707   0.00000  Uiso   1.00
H35    H     0.58579   0.21856   0.56352   0.00000  Uiso   1.00
H36    H     0.46502   0.09580   0.00332   0.00000  Uiso   1.00
H37    H     0.59725   0.96812   0.56919   0.00000  Uiso   1.00
O38    O     0.49332   0.25737   0.24657   0.00000  Uiso   1.00
O39    O     0.64683   0.09631   0.82355   0.00000  Uiso   1.00
O40    O     0.50833   0.92880   0.25398   0.00000  Uiso   1.00
N41    N     0.60525   0.21046   0.15687   0.00000  Uiso   1.00
N42    N     0.42728   0.09569   0.56805   0.00000  Uiso   1.00
N43    N     0.61602   0.97632   0.16219   0.00000  Uiso   1.00
N44    N     0.60513   0.21046   0.44815   0.00000  Uiso   1.00
N45    N     0.42716   0.09569   0.85933   0.00000  Uiso   1.00
N46    N     0.61590   0.97632   0.45347   0.00000  Uiso   1.00
C47    C     0.04603   0.90497   0.19430   0.00000  Uiso   1.00
C48    C     0.12259   0.87293   0.15433   0.00000  Uiso   1.00
C49    C     0.18688   0.84598   0.28298   0.00000  Uiso   1.00
C50    C     0.25133   0.81900   0.21891   0.00000  Uiso   1.00
C51    C     0.37015   0.76924   0.18513   0.00000  Uiso   1.00
C52    C     0.89600   0.90454   0.04097   0.00000  Uiso   1.00
C53    C     0.76978   0.90418   0.07431   0.00000  Uiso   1.00
C54    C     0.64348   0.90381   0.91481   0.00000  Uiso   1.00
C55    C     0.41050   0.90315   0.70504   0.00000  Uiso   1.00
C56    C     0.11957   0.93745   0.15283   0.00000  Uiso   1.00
C57    C     0.18130   0.96476   0.28020   0.00000  Uiso   1.00
C58    C     0.24321   0.99211   0.21486   0.00000  Uiso   1.00
C59    C     0.35736   0.04254   0.17876   0.00000  Uiso   1.00
C60    C     0.04617   0.90497   0.85175   0.00000  Uiso   1.00
C61    C     0.12266   0.87293   0.96827   0.00000  Uiso   1.00
C62    C     0.18704   0.84598   0.90399   0.00000  Uiso   1.00
C63    C     0.25142   0.81900   0.03252   0.00000  Uiso   1.00
C64    C     0.89607   0.90454   0.85492   0.00000  Uiso   1.00
C65    C     0.76993   0.90418   0.69533   0.00000  Uiso   1.00
C66    C     0.64356   0.90381   0.72842   0.00000  Uiso   1.00
C67    C     0.11965   0.93745   0.96678   0.00000  Uiso   1.00
C68    C     0.18146   0.96476   0.90122   0.00000  Uiso   1.00
C69    C     0.24328   0.99211   0.02846   0.00000  Uiso   1.00
H70    H     0.04595   0.90497   0.33914   0.00000  Uiso   1.00
H71    H     0.18679   0.84599   0.42695   0.00000  Uiso   1.00
H72    H     0.76975   0.90418   0.21831   0.00000  Uiso   1.00
H73    H     0.18122   0.96475   0.42417   0.00000  Uiso   1.00
H74    H     0.34291   0.78059   0.44222   0.00000  Uiso   1.00
H75    H     0.46357   0.90330   0.00230   0.00000  Uiso   1.00
H76    H     0.33122   0.03103   0.43639   0.00000  Uiso   1.00
H77    H     0.04622   0.90497   0.70689   0.00000  Uiso   1.00
H78    H     0.18708   0.84599   0.76001   0.00000  Uiso   1.00
H79    H     0.77004   0.90418   0.55137   0.00000  Uiso   1.00
H80    H     0.18150   0.96475   0.75723   0.00000  Uiso   1.00
H81    H     0.34315   0.78059   0.90090   0.00000  Uiso   1.00
H82    H     0.46379   0.90330   0.46099   0.00000  Uiso   1.00
H83    H     0.33145   0.03103   0.89508   0.00000  Uiso   1.00
O84    O     0.43564   0.74178   0.21789   0.00000  Uiso   1.00
O85    O     0.28198   0.90278   0.64074   0.00000  Uiso   1.00
O86    O     0.42032   0.07035   0.21026   0.00000  Uiso   1.00
N87    N     0.32366   0.78869   0.30754   0.00000  Uiso   1.00
N88    N     0.50152   0.90341   0.89625   0.00000  Uiso   1.00
N89    N     0.31267   0.02283   0.30207   0.00000  Uiso   1.00
N90    N     0.32379   0.78869   0.01627   0.00000  Uiso   1.00
N91    N     0.50165   0.90341   0.60497   0.00000  Uiso   1.00
N92    N     0.31280   0.02283   0.01079   0.00000  Uiso   1.00
C93    C     0.11722   0.59417   0.72997   0.00000  Uiso   1.00
C94    C     0.19376   0.62621   0.68999   0.00000  Uiso   1.00
C95    C     0.25803   0.65316   0.81861   0.00000  Uiso   1.00
C96    C     0.32245   0.68015   0.75452   0.00000  Uiso   1.00
C97    C     0.44121   0.72992   0.72070   0.00000  Uiso   1.00
C98    C     0.96719   0.59459   0.57666   0.00000  Uiso   1.00
C99    C     0.84097   0.59494   0.61000   0.00000  Uiso   1.00
C100   C     0.71468   0.59530   0.45050   0.00000  Uiso   1.00
C101   C     0.48170   0.59595   0.24074   0.00000  Uiso   1.00
C102   C     0.19080   0.56169   0.68852   0.00000  Uiso   1.00
C103   C     0.25255   0.53438   0.81591   0.00000  Uiso   1.00
C104   C     0.31448   0.50704   0.75058   0.00000  Uiso   1.00
C105   C     0.42868   0.45661   0.71451   0.00000  Uiso   1.00
C106   C     0.11736   0.59416   0.38742   0.00000  Uiso   1.00
C107   C     0.19382   0.62621   0.50392   0.00000  Uiso   1.00
C108   C     0.25817   0.65316   0.43962   0.00000  Uiso   1.00
C109   C     0.32253   0.68014   0.56813   0.00000  Uiso   1.00
C110   C     0.96726   0.59459   0.39060   0.00000  Uiso   1.00
C111   C     0.84112   0.59494   0.23102   0.00000  Uiso   1.00
C112   C     0.71474   0.59530   0.26411   0.00000  Uiso   1.00
C113   C     0.19087   0.56169   0.50247   0.00000  Uiso   1.00
C114   C     0.25271   0.53438   0.43692   0.00000  Uiso   1.00
C115   C     0.31455   0.50704   0.56418   0.00000  Uiso   1.00
H116   H     0.11716   0.59417   0.87482   0.00000  Uiso   1.00
H117   H     0.25794   0.65316   0.96258   0.00000  Uiso   1.00
H118   H     0.84095   0.59494   0.75400   0.00000  Uiso   1.00
H119   H     0.25248   0.53440   0.95988   0.00000  Uiso   1.00
H120   H     0.41400   0.71856   0.97780   0.00000  Uiso   1.00
H121   H     0.53477   0.59580   0.53801   0.00000  Uiso   1.00
H122   H     0.40254   0.46813   0.97214   0.00000  Uiso   1.00
H123   H     0.11741   0.59416   0.24256   0.00000  Uiso   1.00
H124   H     0.25821   0.65315   0.29563   0.00000  Uiso   1.00
H125   H     0.84122   0.59493   0.08705   0.00000  Uiso   1.00
H126   H     0.25274   0.53439   0.29293   0.00000  Uiso   1.00
H127   H     0.41421   0.71856   0.43648   0.00000  Uiso   1.00
H128   H     0.53498   0.59580   0.99668   0.00000  Uiso   1.00
H129   H     0.40275   0.46812   0.43081   0.00000  Uiso   1.00
O130   O     0.50668   0.75737   0.75343   0.00000  Uiso   1.00
O131   O     0.35317   0.59631   0.17645   0.00000  Uiso   1.00
O132   O     0.49167   0.42880   0.74602   0.00000  Uiso   1.00
N133   N     0.39475   0.71046   0.84313   0.00000  Uiso   1.00
N134   N     0.57272   0.59569   0.43195   0.00000  Uiso   1.00
N135   N     0.38398   0.47632   0.83781   0.00000  Uiso   1.00
N136   N     0.39487   0.71046   0.55185   0.00000  Uiso   1.00
N137   N     0.57284   0.59569   0.14067   0.00000  Uiso   1.00
N138   N     0.38410   0.47632   0.54653   0.00000  Uiso   1.00
C139   C     0.95397   0.40497   0.80570   0.00000  Uiso   1.00
C140   C     0.87741   0.37293   0.84567   0.00000  Uiso   1.00
C141   C     0.81312   0.34598   0.71702   0.00000  Uiso   1.00
C142   C     0.74867   0.31900   0.78109   0.00000  Uiso   1.00
C143   C     0.62985   0.26924   0.81487   0.00000  Uiso   1.00
C144   C     0.10400   0.40454   0.95903   0.00000  Uiso   1.00
C145   C     0.23022   0.40418   0.92569   0.00000  Uiso   1.00
C146   C     0.35652   0.40381   0.08519   0.00000  Uiso   1.00
C147   C     0.58950   0.40315   0.29496   0.00000  Uiso   1.00
C148   C     0.88043   0.43745   0.84717   0.00000  Uiso   1.00
C149   C     0.81870   0.46476   0.71980   0.00000  Uiso   1.00
C150   C     0.75679   0.49211   0.78514   0.00000  Uiso   1.00
C151   C     0.64264   0.54254   0.82124   0.00000  Uiso   1.00
C152   C     0.95383   0.40497   0.14825   0.00000  Uiso   1.00
C153   C     0.87734   0.37293   0.03173   0.00000  Uiso   1.00
C154   C     0.81296   0.34598   0.09601   0.00000  Uiso   1.00
C155   C     0.74858   0.31900   0.96748   0.00000  Uiso   1.00
C156   C     0.10393   0.40454   0.14508   0.00000  Uiso   1.00
C157   C     0.23007   0.40418   0.30467   0.00000  Uiso   1.00
C158   C     0.35644   0.40381   0.27158   0.00000  Uiso   1.00
C159   C     0.88035   0.43745   0.03322   0.00000  Uiso   1.00
C160   C     0.81854   0.46476   0.09878   0.00000  Uiso   1.00
C161   C     0.75672   0.49211   0.97154   0.00000  Uiso   1.00
H162   H     0.95405   0.40497   0.66086   0.00000  Uiso   1.00
H163   H     0.81321   0.34599   0.57305   0.00000  Uiso   1.00
H164   H     0.23025   0.40418   0.78169   0.00000  Uiso   1.00
H165   H     0.81878   0.46475   0.57583   0.00000  Uiso   1.00
H166   H     0.65709   0.28059   0.55778   0.00000  Uiso   1.00
H167   H     0.53643   0.40330   0.99770   0.00000  Uiso   1.00
H168   H     0.66878   0.53103   0.56361   0.00000  Uiso   1.00
H169   H     0.95378   0.40497   0.29311   0.00000  Uiso   1.00
H170   H     0.81292   0.34599   0.23999   0.00000  Uiso   1.00
H171   H     0.22996   0.40418   0.44863   0.00000  Uiso   1.00
H172   H     0.81850   0.46475   0.24277   0.00000  Uiso   1.00
H173   H     0.65685   0.28059   0.09910   0.00000  Uiso   1.00
H174   H     0.53621   0.40330   0.53901   0.00000  Uiso   1.00
H175   H     0.66855   0.53103   0.10492   0.00000  Uiso   1.00
O176   O     0.56436   0.24178   0.78211   0.00000  Uiso   1.00
O177   O     0.71802   0.40278   0.35926   0.00000  Uiso   1.00
O178   O     0.57968   0.57035   0.78974   0.00000  Uiso   1.00
N179   N     0.67634   0.28869   0.69246   0.00000  Uiso   1.00
N180   N     0.49848   0.40341   0.10375   0.00000  Uiso   1.00
N181   N     0.68733   0.52283   0.69793   0.00000  Uiso   1.00
N182   N     0.67621   0.28869   0.98373   0.00000  Uiso   1.00
N183   N     0.49835   0.40341   0.39503   0.00000  Uiso   1.00
N184   N     0.68720   0.52283   0.98921   0.00000  Uiso   1.00
