data_job_06830
_audit_creation_date              2018-12-19
_audit_creation_method            'Materials Studio'
_symmetry_space_group_name_H-M    'P1'
_symmetry_Int_Tables_number       1
_symmetry_cell_setting            triclinic
loop_
_symmetry_equiv_pos_as_xyz
  x,y,z
_cell_length_a                    24.3638
_cell_length_b                    20.4061
_cell_length_c                    22.5027
_cell_angle_alpha                 108.7320
_cell_angle_beta                  112.8290
_cell_angle_gamma                 101.2820
loop_
_atom_site_label
_atom_site_type_symbol
_atom_site_fract_x
_atom_site_fract_y
_atom_site_fract_z
_atom_site_U_iso_or_equiv
_atom_site_adp_type
_atom_site_occupancy
C1     C     0.70641   0.25360   0.37984   0.00000  Uiso   1.00
C2     C     0.68785   0.17268   0.32939   0.00000  Uiso   1.00
C3     C     0.69060   0.11514   0.34921   0.00000  Uiso   1.00
C4     C     0.67155   0.04506   0.29507   0.00000  Uiso   1.00
C5     C     0.64597   0.92125   0.22760   0.00000  Uiso   1.00
C6     C     0.75715   0.29935   0.37039   0.00000  Uiso   1.00
C7     C     0.81815   0.34833   0.42468   0.00000  Uiso   1.00
C8     C     0.85743   0.38488   0.40505   0.00000  Uiso   1.00
C9     C     0.93942   0.45778   0.40124   0.00000  Uiso   1.00
C10    C     0.64770   0.27357   0.34970   0.00000  Uiso   1.00
C11    C     0.61668   0.30090   0.38660   0.00000  Uiso   1.00
C12    C     0.56382   0.31576   0.34956   0.00000  Uiso   1.00
C13    C     0.47586   0.34863   0.31362   0.00000  Uiso   1.00
C14    C     0.66769   0.23144   0.24844   0.00000  Uiso   1.00
C15    C     0.66683   0.16065   0.25802   0.00000  Uiso   1.00
C16    C     0.64777   0.09062   0.20383   0.00000  Uiso   1.00
C17    C     0.65048   0.03299   0.22357   0.00000  Uiso   1.00
C18    C     0.73612   0.28732   0.29902   0.00000  Uiso   1.00
C19    C     0.77532   0.32381   0.27930   0.00000  Uiso   1.00
C20    C     0.83637   0.37282   0.33355   0.00000  Uiso   1.00
C21    C     0.62667   0.26154   0.27832   0.00000  Uiso   1.00
C22    C     0.57385   0.27637   0.24122   0.00000  Uiso   1.00
C23    C     0.54275   0.30370   0.27806   0.00000  Uiso   1.00
H24    H     0.72278   0.26297   0.43541   0.00000  Uiso   1.00
H25    H     0.70688   0.12448   0.40446   0.00000  Uiso   1.00
H26    H     0.83441   0.35764   0.47991   0.00000  Uiso   1.00
H27    H     0.63297   0.31020   0.44184   0.00000  Uiso   1.00
H28    H     0.68000   0.96564   0.33867   0.00000  Uiso   1.00
H29    H     0.94889   0.45728   0.49778   0.00000  Uiso   1.00
H30    H     0.52411   0.35726   0.41749   0.00000  Uiso   1.00
H31    H     0.65132   0.22207   0.19287   0.00000  Uiso   1.00
H32    H     0.63150   0.08133   0.14860   0.00000  Uiso   1.00
H33    H     0.75903   0.31448   0.22406   0.00000  Uiso   1.00
H34    H     0.55759   0.26705   0.18599   0.00000  Uiso   1.00
H35    H     0.61882   0.93061   0.13101   0.00000  Uiso   1.00
H36    H     0.88772   0.42226   0.29012   0.00000  Uiso   1.00
H37    H     0.46293   0.32223   0.20983   0.00000  Uiso   1.00
O38    O     0.63768   0.85629   0.21010   0.00000  Uiso   1.00
O39    O     0.99045   0.50131   0.41885   0.00000  Uiso   1.00
O40    O     0.43315   0.37008   0.31351   0.00000  Uiso   1.00
N41    N     0.66831   0.97671   0.29587   0.00000  Uiso   1.00
N42    N     0.91971   0.43635   0.44462   0.00000  Uiso   1.00
N43    N     0.52259   0.34286   0.36957   0.00000  Uiso   1.00
N44    N     0.63539   0.95786   0.18413   0.00000  Uiso   1.00
N45    N     0.88679   0.41750   0.33288   0.00000  Uiso   1.00
N46    N     0.48967   0.32401   0.25783   0.00000  Uiso   1.00
C47    C     0.30484   0.68549   0.36547   0.00000  Uiso   1.00
C48    C     0.25935   0.64930   0.28482   0.00000  Uiso   1.00
C49    C     0.27707   0.64455   0.23239   0.00000  Uiso   1.00
C50    C     0.22828   0.60928   0.16161   0.00000  Uiso   1.00
C51    C     0.16740   0.55758   0.03907   0.00000  Uiso   1.00
C52    C     0.28186   0.74426   0.39881   0.00000  Uiso   1.00
C53    C     0.31850   0.81936   0.44222   0.00000  Uiso   1.00
C54    C     0.28865   0.86401   0.46740   0.00000  Uiso   1.00
C55    C     0.26273   0.95974   0.52187   0.00000  Uiso   1.00
C56    C     0.29235   0.62578   0.39054   0.00000  Uiso   1.00
C57    C     0.33782   0.60127   0.42702   0.00000  Uiso   1.00
C58    C     0.31681   0.54619   0.44525   0.00000  Uiso   1.00
C59    C     0.30718   0.45796   0.48688   0.00000  Uiso   1.00
C60    C     0.18669   0.63128   0.33301   0.00000  Uiso   1.00
C61    C     0.19517   0.61985   0.26719   0.00000  Uiso   1.00
C62    C     0.14634   0.58457   0.19648   0.00000  Uiso   1.00
C63    C     0.16399   0.57977   0.14395   0.00000  Uiso   1.00
C64    C     0.21768   0.71481   0.38118   0.00000  Uiso   1.00
C65    C     0.18777   0.75937   0.40631   0.00000  Uiso   1.00
C66    C     0.22436   0.83452   0.44974   0.00000  Uiso   1.00
C67    C     0.22817   0.59633   0.37290   0.00000  Uiso   1.00
C68    C     0.20709   0.54128   0.39109   0.00000  Uiso   1.00
C69    C     0.25251   0.51669   0.42759   0.00000  Uiso   1.00
H70    H     0.35481   0.70842   0.37920   0.00000  Uiso   1.00
H71    H     0.32674   0.66735   0.24606   0.00000  Uiso   1.00
H72    H     0.36816   0.84213   0.45586   0.00000  Uiso   1.00
H73    H     0.38748   0.62407   0.44065   0.00000  Uiso   1.00
H74    H     0.26732   0.60886   0.09067   0.00000  Uiso   1.00
H75    H     0.35467   0.97737   0.53307   0.00000  Uiso   1.00
H76    H     0.39539   0.51756   0.50100   0.00000  Uiso   1.00
H77    H     0.13672   0.60835   0.31928   0.00000  Uiso   1.00
H78    H     0.09668   0.56179   0.18285   0.00000  Uiso   1.00
H79    H     0.13811   0.73656   0.39265   0.00000  Uiso   1.00
H80    H     0.15742   0.51851   0.37744   0.00000  Uiso   1.00
H81    H     0.08059   0.52318   0.03937   0.00000  Uiso   1.00
H82    H     0.16795   0.89169   0.48177   0.00000  Uiso   1.00
H83    H     0.20867   0.43188   0.44970   0.00000  Uiso   1.00
O84    O     0.15155   0.53721   0.97635   0.00000  Uiso   1.00
O85    O     0.26616   0.02069   0.55678   0.00000  Uiso   1.00
O86    O     0.31959   0.41742   0.51470   0.00000  Uiso   1.00
N87    N     0.22887   0.59507   0.09732   0.00000  Uiso   1.00
N88    N     0.31053   0.93961   0.51093   0.00000  Uiso   1.00
N89    N     0.34861   0.50974   0.48096   0.00000  Uiso   1.00
N90    N     0.12839   0.54897   0.06971   0.00000  Uiso   1.00
N91    N     0.21006   0.89351   0.48332   0.00000  Uiso   1.00
N92    N     0.24814   0.46363   0.45336   0.00000  Uiso   1.00
C93    C     0.41592   0.45485   0.75465   0.00000  Uiso   1.00
C94    C     0.34314   0.42276   0.71983   0.00000  Uiso   1.00
C95    C     0.30438   0.46322   0.72602   0.00000  Uiso   1.00
C96    C     0.23890   0.42356   0.69007   0.00000  Uiso   1.00
C97    C     0.12980   0.38550   0.64222   0.00000  Uiso   1.00
C98    C     0.44054   0.41402   0.79922   0.00000  Uiso   1.00
C99    C     0.48368   0.44713   0.87215   0.00000  Uiso   1.00
C100   C     0.50019   0.40010   0.90303   0.00000  Uiso   1.00
C101   C     0.54234   0.34846   0.97842   0.00000  Uiso   1.00
C102   C     0.43163   0.43020   0.69362   0.00000  Uiso   1.00
C103   C     0.46730   0.47692   0.67777   0.00000  Uiso   1.00
C104   C     0.47632   0.44351   0.61974   0.00000  Uiso   1.00
C105   C     0.50464   0.41700   0.53116   0.00000  Uiso   1.00
C106   C     0.36854   0.31246   0.67980   0.00000  Uiso   1.00
C107   C     0.31740   0.34542   0.67918   0.00000  Uiso   1.00
C108   C     0.25196   0.30569   0.64321   0.00000  Uiso   1.00
C109   C     0.21311   0.34609   0.64934   0.00000  Uiso   1.00
C110   C     0.41480   0.33668   0.75857   0.00000  Uiso   1.00
C111   C     0.43126   0.28959   0.78934   0.00000  Uiso   1.00
C112   C     0.47441   0.32263   0.86230   0.00000  Uiso   1.00
C113   C     0.40589   0.35286   0.65296   0.00000  Uiso   1.00
C114   C     0.41487   0.31938   0.59495   0.00000  Uiso   1.00
C115   C     0.45054   0.36603   0.57901   0.00000  Uiso   1.00
H116   H     0.43596   0.51506   0.78631   0.00000  Uiso   1.00
H117   H     0.32432   0.52308   0.75749   0.00000  Uiso   1.00
H118   H     0.50359   0.50698   0.90360   0.00000  Uiso   1.00
H119   H     0.48720   0.53676   0.70924   0.00000  Uiso   1.00
H120   H     0.18919   0.49785   0.70764   0.00000  Uiso   1.00
H121   H     0.56722   0.46392   0.01571   0.00000  Uiso   1.00
H122   H     0.53267   0.52671   0.60586   0.00000  Uiso   1.00
H123   H     0.34851   0.25225   0.64815   0.00000  Uiso   1.00
H124   H     0.23206   0.24584   0.61175   0.00000  Uiso   1.00
H125   H     0.41134   0.22975   0.75786   0.00000  Uiso   1.00
H126   H     0.39495   0.25953   0.56350   0.00000  Uiso   1.00
H127   H     0.11431   0.27283   0.58935   0.00000  Uiso   1.00
H128   H     0.49235   0.23890   0.89742   0.00000  Uiso   1.00
H129   H     0.45779   0.30170   0.48758   0.00000  Uiso   1.00
O130   O     0.07673   0.38586   0.62706   0.00000  Uiso   1.00
O131   O     0.57270   0.34135   0.03123   0.00000  Uiso   1.00
O132   O     0.52736   0.42374   0.49353   0.00000  Uiso   1.00
N133   N     0.18755   0.44577   0.68478   0.00000  Uiso   1.00
N134   N     0.54098   0.41405   0.97281   0.00000  Uiso   1.00
N135   N     0.50869   0.47276   0.58965   0.00000  Uiso   1.00
N136   N     0.14726   0.32469   0.62113   0.00000  Uiso   1.00
N137   N     0.50068   0.29297   0.90916   0.00000  Uiso   1.00
N138   N     0.46840   0.35168   0.52600   0.00000  Uiso   1.00
C139   C     0.25023   0.95950   0.91042   0.00000  Uiso   1.00
C140   C     0.21719   0.92599   0.82870   0.00000  Uiso   1.00
C141   C     0.21746   0.96512   0.78843   0.00000  Uiso   1.00
C142   C     0.18440   0.92429   0.71431   0.00000  Uiso   1.00
C143   C     0.13802   0.88400   0.59238   0.00000  Uiso   1.00
C144   C     0.29476   0.91838   0.93199   0.00000  Uiso   1.00
C145   C     0.36025   0.95112   0.97856   0.00000  Uiso   1.00
C146   C     0.39248   0.90388   0.99138   0.00000  Uiso   1.00
C147   C     0.46652   0.85179   0.02984   0.00000  Uiso   1.00
C148   C     0.19818   0.93675   0.92943   0.00000  Uiso   1.00
C149   C     0.18247   0.98493   0.97388   0.00000  Uiso   1.00
C150   C     0.13339   0.95316   0.98457   0.00000  Uiso   1.00
C151   C     0.05747   0.92958   0.01907   0.00000  Uiso   1.00
C152   C     0.19103   0.81742   0.85039   0.00000  Uiso   1.00
C153   C     0.18504   0.84882   0.79610   0.00000  Uiso   1.00
C154   C     0.15196   0.80792   0.72201   0.00000  Uiso   1.00
C155   C     0.15218   0.84698   0.68164   0.00000  Uiso   1.00
C156   C     0.26261   0.84121   0.89938   0.00000  Uiso   1.00
C157   C     0.29475   0.79392   0.91214   0.00000  Uiso   1.00
C158   C     0.36027   0.82657   0.95872   0.00000  Uiso   1.00
C159   C     0.16602   0.85958   0.89682   0.00000  Uiso   1.00
C160   C     0.11696   0.82773   0.90745   0.00000  Uiso   1.00
C161   C     0.10118   0.87584   0.95190   0.00000  Uiso   1.00
H162   H     0.27527   0.01958   0.93581   0.00000  Uiso   1.00
H163   H     0.24236   0.02484   0.81369   0.00000  Uiso   1.00
H164   H     0.38512   0.01084   0.00379   0.00000  Uiso   1.00
H165   H     0.20737   0.04464   0.99911   0.00000  Uiso   1.00
H166   H     0.19171   0.99663   0.66392   0.00000  Uiso   1.00
H167   H     0.49273   0.96712   0.06478   0.00000  Uiso   1.00
H168   H     0.11789   0.03840   0.05490   0.00000  Uiso   1.00
H169   H     0.16599   0.75733   0.82500   0.00000  Uiso   1.00
H170   H     0.12708   0.74820   0.69679   0.00000  Uiso   1.00
H171   H     0.26984   0.73421   0.88690   0.00000  Uiso   1.00
H172   H     0.09209   0.76801   0.88221   0.00000  Uiso   1.00
H173   H     0.09815   0.77210   0.56903   0.00000  Uiso   1.00
H174   H     0.39916   0.74259   0.96990   0.00000  Uiso   1.00
H175   H     0.02433   0.81387   0.96002   0.00000  Uiso   1.00
O176   O     0.12132   0.88309   0.53414   0.00000  Uiso   1.00
O177   O     0.51624   0.84437   0.06006   0.00000  Uiso   1.00
O178   O     0.02447   0.93789   0.04710   0.00000  Uiso   1.00
N179   N     0.17502   0.94504   0.65918   0.00000  Uiso   1.00
N180   N     0.45645   0.91745   0.03395   0.00000  Uiso   1.00
N181   N     0.10603   0.98409   0.02474   0.00000  Uiso   1.00
N182   N     0.12467   0.82423   0.60812   0.00000  Uiso   1.00
N183   N     0.40611   0.79663   0.98290   0.00000  Uiso   1.00
N184   N     0.05568   0.86327   0.97368   0.00000  Uiso   1.00
C185   C     0.80375   0.75247   0.15250   0.00000  Uiso   1.00
C186   C     0.77457   0.67175   0.13721   0.00000  Uiso   1.00
C187   C     0.79739   0.61599   0.11671   0.00000  Uiso   1.00
C188   C     0.76396   0.54576   0.10529   0.00000  Uiso   1.00
C189   C     0.72693   0.42253   0.08026   0.00000  Uiso   1.00
C190   C     0.81786   0.79955   0.22850   0.00000  Uiso   1.00
C191   C     0.87707   0.85125   0.28474   0.00000  Uiso   1.00
C192   C     0.88007   0.88862   0.35017   0.00000  Uiso   1.00
C193   C     0.91023   0.96385   0.46684   0.00000  Uiso   1.00
C194   C     0.75033   0.76860   0.10287   0.00000  Uiso   1.00
C195   C     0.75276   0.79430   0.05350   0.00000  Uiso   1.00
C196   C     0.69891   0.80562   0.01316   0.00000  Uiso   1.00
C197   C     0.62422   0.83279   0.93478   0.00000  Uiso   1.00
C198   C     0.70380   0.72690   0.16867   0.00000  Uiso   1.00
C199   C     0.72028   0.65786   0.14600   0.00000  Uiso   1.00
C200   C     0.68681   0.58770   0.13461   0.00000  Uiso   1.00
C201   C     0.70957   0.53184   0.11409   0.00000  Uiso   1.00
C202   C     0.76357   0.78566   0.23729   0.00000  Uiso   1.00
C203   C     0.76648   0.82296   0.30264   0.00000  Uiso   1.00
C204   C     0.82568   0.87470   0.35897   0.00000  Uiso   1.00
C205   C     0.69603   0.75471   0.11165   0.00000  Uiso   1.00
C206   C     0.64217   0.76600   0.07139   0.00000  Uiso   1.00
C207   C     0.64452   0.79170   0.02196   0.00000  Uiso   1.00
H208   H     0.84602   0.76329   0.14566   0.00000  Uiso   1.00
H209   H     0.83941   0.62676   0.10993   0.00000  Uiso   1.00
H210   H     0.91907   0.86199   0.27793   0.00000  Uiso   1.00
H211   H     0.79478   0.80504   0.04671   0.00000  Uiso   1.00
H212   H     0.80816   0.46927   0.07421   0.00000  Uiso   1.00
H213   H     0.97612   0.96530   0.42844   0.00000  Uiso   1.00
H214   H     0.71403   0.84520   0.94088   0.00000  Uiso   1.00
H215   H     0.66153   0.71609   0.17551   0.00000  Uiso   1.00
H216   H     0.64479   0.57696   0.14141   0.00000  Uiso   1.00
H217   H     0.72446   0.81220   0.30942   0.00000  Uiso   1.00
H218   H     0.60017   0.75524   0.07820   0.00000  Uiso   1.00
H219   H     0.65020   0.42886   0.09976   0.00000  Uiso   1.00
H220   H     0.81816   0.92489   0.45400   0.00000  Uiso   1.00
H221   H     0.55607   0.80478   0.96644   0.00000  Uiso   1.00
O222   O     0.72152   0.35841   0.06404   0.00000  Uiso   1.00
O223   O     0.94187   0.00918   0.52877   0.00000  Uiso   1.00
O224   O     0.59801   0.85160   0.88911   0.00000  Uiso   1.00
N225   N     0.77327   0.47885   0.08489   0.00000  Uiso   1.00
N226   N     0.93031   0.94260   0.41608   0.00000  Uiso   1.00
N227   N     0.68528   0.83033   0.96027   0.00000  Uiso   1.00
N228   N     0.68828   0.45710   0.09864   0.00000  Uiso   1.00
N229   N     0.84531   0.92085   0.42983   0.00000  Uiso   1.00
N230   N     0.60029   0.80858   0.97402   0.00000  Uiso   1.00
C231   C     0.96202   0.30789   0.88697   0.00000  Uiso   1.00
C232   C     0.89464   0.25255   0.83000   0.00000  Uiso   1.00
C233   C     0.83909   0.25094   0.83421   0.00000  Uiso   1.00
C234   C     0.78215   0.19594   0.77647   0.00000  Uiso   1.00
C235   C     0.67772   0.11786   0.69709   0.00000  Uiso   1.00
C236   C     0.98799   0.34470   0.84925   0.00000  Uiso   1.00
C237   C     0.01093   0.42057   0.86964   0.00000  Uiso   1.00
C238   C     0.03259   0.44314   0.82811   0.00000  Uiso   1.00
C239   C     0.07312   0.50813   0.77864   0.00000  Uiso   1.00
C240   C     0.00184   0.26144   0.90627   0.00000  Uiso   1.00
C241   C     0.03644   0.26733   0.97461   0.00000  Uiso   1.00
C242   C     0.06977   0.21981   0.98110   0.00000  Uiso   1.00
C243   C     0.13180   0.15554   0.02016   0.00000  Uiso   1.00
C244   C     0.95970   0.21306   0.77696   0.00000  Uiso   1.00
C245   C     0.89338   0.20104   0.77025   0.00000  Uiso   1.00
C246   C     0.83652   0.14602   0.71249   0.00000  Uiso   1.00
C247   C     0.78089   0.14434   0.71661   0.00000  Uiso   1.00
C248   C     0.98673   0.29320   0.78950   0.00000  Uiso   1.00
C249   C     0.00836   0.31565   0.74793   0.00000  Uiso   1.00
C250   C     0.03132   0.39154   0.76825   0.00000  Uiso   1.00
C251   C     0.00057   0.20993   0.84652   0.00000  Uiso   1.00
C252   C     0.03386   0.16241   0.85290   0.00000  Uiso   1.00
C253   C     0.06850   0.16821   0.92124   0.00000  Uiso   1.00
H254   H     0.96300   0.34799   0.93349   0.00000  Uiso   1.00
H255   H     0.84008   0.29082   0.88045   0.00000  Uiso   1.00
H256   H     0.01191   0.46042   0.91589   0.00000  Uiso   1.00
H257   H     0.03740   0.30719   0.02084   0.00000  Uiso   1.00
H258   H     0.70324   0.20473   0.79529   0.00000  Uiso   1.00
H259   H     0.06556   0.56234   0.87002   0.00000  Uiso   1.00
H260   H     0.11933   0.23924   0.09134   0.00000  Uiso   1.00
H261   H     0.95871   0.17296   0.73044   0.00000  Uiso   1.00
H262   H     0.83555   0.10617   0.66626   0.00000  Uiso   1.00
H263   H     0.00738   0.27578   0.70170   0.00000  Uiso   1.00
H264   H     0.03288   0.12255   0.80665   0.00000  Uiso   1.00
H265   H     0.69957   0.05487   0.62144   0.00000  Uiso   1.00
H266   H     0.06189   0.41249   0.69618   0.00000  Uiso   1.00
H267   H     0.11566   0.08938   0.91749   0.00000  Uiso   1.00
O268   O     0.62046   0.08904   0.66980   0.00000  Uiso   1.00
O269   O     0.09582   0.55822   0.76786   0.00000  Uiso   1.00
O270   O     0.16636   0.13431   0.05821   0.00000  Uiso   1.00
N271   N     0.71928   0.17861   0.76319   0.00000  Uiso   1.00
N272   N     0.05802   0.51296   0.83305   0.00000  Uiso   1.00
N273   N     0.10830   0.21090   0.03996   0.00000  Uiso   1.00
N274   N     0.71730   0.09797   0.66964   0.00000  Uiso   1.00
N275   N     0.05604   0.43232   0.73951   0.00000  Uiso   1.00
N276   N     0.10632   0.13026   0.94642   0.00000  Uiso   1.00
C277   C     0.29359   0.74640   0.62016   0.00000  Uiso   1.00
C278   C     0.31215   0.82732   0.67061   0.00000  Uiso   1.00
C279   C     0.30940   0.88486   0.65079   0.00000  Uiso   1.00
C280   C     0.32845   0.95494   0.70493   0.00000  Uiso   1.00
C281   C     0.35403   0.07875   0.77240   0.00000  Uiso   1.00
C282   C     0.24285   0.70065   0.62961   0.00000  Uiso   1.00
C283   C     0.18185   0.65167   0.57532   0.00000  Uiso   1.00
C284   C     0.14257   0.61512   0.59495   0.00000  Uiso   1.00
C285   C     0.06058   0.54222   0.59876   0.00000  Uiso   1.00
C286   C     0.35230   0.72643   0.65030   0.00000  Uiso   1.00
C287   C     0.38332   0.69910   0.61340   0.00000  Uiso   1.00
C288   C     0.43618   0.68424   0.65044   0.00000  Uiso   1.00
C289   C     0.52414   0.65137   0.68638   0.00000  Uiso   1.00
C290   C     0.33231   0.76856   0.75156   0.00000  Uiso   1.00
C291   C     0.33317   0.83935   0.74198   0.00000  Uiso   1.00
C292   C     0.35223   0.90938   0.79617   0.00000  Uiso   1.00
C293   C     0.34952   0.96701   0.77643   0.00000  Uiso   1.00
C294   C     0.26388   0.71268   0.70098   0.00000  Uiso   1.00
C295   C     0.22468   0.67619   0.72070   0.00000  Uiso   1.00
C296   C     0.16363   0.62718   0.66645   0.00000  Uiso   1.00
C297   C     0.37333   0.73846   0.72168   0.00000  Uiso   1.00
C298   C     0.42615   0.72363   0.75878   0.00000  Uiso   1.00
C299   C     0.45725   0.69630   0.72194   0.00000  Uiso   1.00
H300   H     0.27722   0.73703   0.56459   0.00000  Uiso   1.00
H301   H     0.29312   0.87552   0.59554   0.00000  Uiso   1.00
H302   H     0.16559   0.64236   0.52009   0.00000  Uiso   1.00
H303   H     0.36703   0.68980   0.55816   0.00000  Uiso   1.00
H304   H     0.32000   0.03436   0.66133   0.00000  Uiso   1.00
H305   H     0.05111   0.54272   0.50222   0.00000  Uiso   1.00
H306   H     0.47589   0.64274   0.58251   0.00000  Uiso   1.00
H307   H     0.34868   0.77793   0.80713   0.00000  Uiso   1.00
H308   H     0.36850   0.91867   0.85140   0.00000  Uiso   1.00
H309   H     0.24097   0.68552   0.77594   0.00000  Uiso   1.00
H310   H     0.44241   0.73295   0.81401   0.00000  Uiso   1.00
H311   H     0.38118   0.06939   0.86899   0.00000  Uiso   1.00
H312   H     0.11228   0.57774   0.70988   0.00000  Uiso   1.00
H313   H     0.53707   0.67777   0.79017   0.00000  Uiso   1.00
O314   O     0.36232   0.14371   0.78990   0.00000  Uiso   1.00
O315   O     0.00955   0.49869   0.58115   0.00000  Uiso   1.00
O316   O     0.56685   0.62992   0.68649   0.00000  Uiso   1.00
N317   N     0.33169   0.02329   0.70413   0.00000  Uiso   1.00
N318   N     0.08029   0.56365   0.55538   0.00000  Uiso   1.00
N319   N     0.47741   0.65714   0.63043   0.00000  Uiso   1.00
N320   N     0.36461   0.04214   0.81587   0.00000  Uiso   1.00
N321   N     0.11321   0.58250   0.66712   0.00000  Uiso   1.00
N322   N     0.51033   0.67599   0.74217   0.00000  Uiso   1.00
C323   C     0.69516   0.31451   0.63453   0.00000  Uiso   1.00
C324   C     0.74065   0.35070   0.71518   0.00000  Uiso   1.00
C325   C     0.72293   0.35545   0.76761   0.00000  Uiso   1.00
C326   C     0.77172   0.39072   0.83839   0.00000  Uiso   1.00
C327   C     0.83260   0.44242   0.96093   0.00000  Uiso   1.00
C328   C     0.71814   0.25574   0.60119   0.00000  Uiso   1.00
C329   C     0.68150   0.18064   0.55778   0.00000  Uiso   1.00
C330   C     0.71135   0.13599   0.53260   0.00000  Uiso   1.00
C331   C     0.73727   0.04026   0.47813   0.00000  Uiso   1.00
C332   C     0.70765   0.37422   0.60946   0.00000  Uiso   1.00
C333   C     0.66218   0.39873   0.57298   0.00000  Uiso   1.00
C334   C     0.68319   0.45381   0.55475   0.00000  Uiso   1.00
C335   C     0.69282   0.54204   0.51312   0.00000  Uiso   1.00
C336   C     0.81331   0.36872   0.66699   0.00000  Uiso   1.00
C337   C     0.80483   0.38015   0.73281   0.00000  Uiso   1.00
C338   C     0.85366   0.41543   0.80352   0.00000  Uiso   1.00
C339   C     0.83601   0.42023   0.85605   0.00000  Uiso   1.00
C340   C     0.78232   0.28519   0.61882   0.00000  Uiso   1.00
C341   C     0.81223   0.24063   0.59369   0.00000  Uiso   1.00
C342   C     0.77564   0.16548   0.55026   0.00000  Uiso   1.00
C343   C     0.77183   0.40367   0.62710   0.00000  Uiso   1.00
C344   C     0.79291   0.45872   0.60891   0.00000  Uiso   1.00
C345   C     0.74749   0.48331   0.57241   0.00000  Uiso   1.00
H346   H     0.64519   0.29158   0.62080   0.00000  Uiso   1.00
H347   H     0.67326   0.33265   0.75394   0.00000  Uiso   1.00
H348   H     0.63184   0.15787   0.54414   0.00000  Uiso   1.00
H349   H     0.61252   0.37593   0.55935   0.00000  Uiso   1.00
H350   H     0.73268   0.39114   0.90933   0.00000  Uiso   1.00
H351   H     0.64533   0.02263   0.46693   0.00000  Uiso   1.00
H352   H     0.60461   0.48244   0.49900   0.00000  Uiso   1.00
H353   H     0.86328   0.39165   0.68072   0.00000  Uiso   1.00
H354   H     0.90332   0.43821   0.81715   0.00000  Uiso   1.00
H355   H     0.86189   0.26344   0.60735   0.00000  Uiso   1.00
H356   H     0.84258   0.48149   0.62256   0.00000  Uiso   1.00
H357   H     0.91941   0.47682   0.96063   0.00000  Uiso   1.00
H358   H     0.83205   0.10831   0.51823   0.00000  Uiso   1.00
H359   H     0.79133   0.56812   0.55030   0.00000  Uiso   1.00
O360   O     0.84845   0.46279   0.02365   0.00000  Uiso   1.00
O361   O     0.73384   0.97931   0.44322   0.00000  Uiso   1.00
O362   O     0.68041   0.58258   0.48530   0.00000  Uiso   1.00
N363   N     0.77113   0.40493   0.90268   0.00000  Uiso   1.00
N364   N     0.68947   0.06039   0.48907   0.00000  Uiso   1.00
N365   N     0.65139   0.49026   0.51904   0.00000  Uiso   1.00
N366   N     0.87161   0.45103   0.93029   0.00000  Uiso   1.00
N367   N     0.78994   0.10649   0.51668   0.00000  Uiso   1.00
N368   N     0.75186   0.53637   0.54664   0.00000  Uiso   1.00
C369   C     0.58408   0.54515   0.24535   0.00000  Uiso   1.00
C370   C     0.65686   0.57724   0.28017   0.00000  Uiso   1.00
C371   C     0.69562   0.53678   0.27398   0.00000  Uiso   1.00
C372   C     0.76110   0.57644   0.30993   0.00000  Uiso   1.00
C373   C     0.87020   0.61450   0.35778   0.00000  Uiso   1.00
C374   C     0.55946   0.58598   0.20078   0.00000  Uiso   1.00
C375   C     0.51632   0.55287   0.12785   0.00000  Uiso   1.00
C376   C     0.49981   0.59990   0.09697   0.00000  Uiso   1.00
C377   C     0.45766   0.65154   0.02158   0.00000  Uiso   1.00
C378   C     0.56837   0.56980   0.30638   0.00000  Uiso   1.00
C379   C     0.53270   0.52308   0.32223   0.00000  Uiso   1.00
C380   C     0.52368   0.55649   0.38026   0.00000  Uiso   1.00
C381   C     0.49536   0.58300   0.46884   0.00000  Uiso   1.00
C382   C     0.63146   0.68754   0.32020   0.00000  Uiso   1.00
C383   C     0.68260   0.65458   0.32082   0.00000  Uiso   1.00
C384   C     0.74804   0.69431   0.35679   0.00000  Uiso   1.00
C385   C     0.78689   0.65391   0.35066   0.00000  Uiso   1.00
C386   C     0.58520   0.66332   0.24143   0.00000  Uiso   1.00
C387   C     0.56874   0.71041   0.21066   0.00000  Uiso   1.00
C388   C     0.52559   0.67737   0.13770   0.00000  Uiso   1.00
C389   C     0.59411   0.64714   0.34704   0.00000  Uiso   1.00
C390   C     0.58513   0.68062   0.40505   0.00000  Uiso   1.00
C391   C     0.54946   0.63397   0.42099   0.00000  Uiso   1.00
H392   H     0.56404   0.48494   0.21369   0.00000  Uiso   1.00
H393   H     0.67568   0.47692   0.24251   0.00000  Uiso   1.00
H394   H     0.49641   0.49302   0.09640   0.00000  Uiso   1.00
H395   H     0.51280   0.46324   0.29076   0.00000  Uiso   1.00
H396   H     0.81081   0.50215   0.29236   0.00000  Uiso   1.00
H397   H     0.43278   0.53608   0.98429   0.00000  Uiso   1.00
H398   H     0.46733   0.47329   0.39414   0.00000  Uiso   1.00
H399   H     0.65149   0.74775   0.35185   0.00000  Uiso   1.00
H400   H     0.76794   0.75416   0.38825   0.00000  Uiso   1.00
H401   H     0.58866   0.77025   0.24214   0.00000  Uiso   1.00
H402   H     0.60505   0.74047   0.43650   0.00000  Uiso   1.00
H403   H     0.88569   0.72717   0.41065   0.00000  Uiso   1.00
H404   H     0.50765   0.76110   0.10258   0.00000  Uiso   1.00
H405   H     0.54221   0.69830   0.51242   0.00000  Uiso   1.00
O406   O     0.92327   0.61414   0.37294   0.00000  Uiso   1.00
O407   O     0.42730   0.65865   0.96877   0.00000  Uiso   1.00
O408   O     0.47264   0.57626   0.50647   0.00000  Uiso   1.00
N409   N     0.81245   0.55423   0.31522   0.00000  Uiso   1.00
N410   N     0.45902   0.58595   0.02719   0.00000  Uiso   1.00
N411   N     0.49131   0.52724   0.41035   0.00000  Uiso   1.00
N412   N     0.85274   0.67531   0.37887   0.00000  Uiso   1.00
N413   N     0.49932   0.70703   0.09084   0.00000  Uiso   1.00
N414   N     0.53160   0.64832   0.47400   0.00000  Uiso   1.00
C415   C     0.74977   0.04050   0.08958   0.00000  Uiso   1.00
C416   C     0.78281   0.07401   0.17130   0.00000  Uiso   1.00
C417   C     0.78254   0.03488   0.21157   0.00000  Uiso   1.00
C418   C     0.81560   0.07571   0.28569   0.00000  Uiso   1.00
C419   C     0.86198   0.11600   0.40762   0.00000  Uiso   1.00
C420   C     0.70524   0.08162   0.06801   0.00000  Uiso   1.00
C421   C     0.63975   0.04888   0.02144   0.00000  Uiso   1.00
C422   C     0.60752   0.09612   0.00862   0.00000  Uiso   1.00
C423   C     0.53348   0.14821   0.97016   0.00000  Uiso   1.00
C424   C     0.80182   0.06325   0.07057   0.00000  Uiso   1.00
C425   C     0.81753   0.01507   0.02612   0.00000  Uiso   1.00
C426   C     0.86661   0.04684   0.01543   0.00000  Uiso   1.00
C427   C     0.94253   0.07042   0.98093   0.00000  Uiso   1.00
C428   C     0.80897   0.18258   0.14961   0.00000  Uiso   1.00
C429   C     0.81496   0.15118   0.20390   0.00000  Uiso   1.00
C430   C     0.84804   0.19208   0.27799   0.00000  Uiso   1.00
C431   C     0.84782   0.15302   0.31836   0.00000  Uiso   1.00
C432   C     0.73739   0.15879   0.10062   0.00000  Uiso   1.00
C433   C     0.70525   0.20608   0.08786   0.00000  Uiso   1.00
C434   C     0.63973   0.17343   0.04128   0.00000  Uiso   1.00
C435   C     0.83398   0.14042   0.10318   0.00000  Uiso   1.00
C436   C     0.88304   0.17227   0.09255   0.00000  Uiso   1.00
C437   C     0.89882   0.12416   0.04810   0.00000  Uiso   1.00
H438   H     0.72473   0.98042   0.06419   0.00000  Uiso   1.00
H439   H     0.75764   0.97516   0.18631   0.00000  Uiso   1.00
H440   H     0.61488   0.98916   0.99621   0.00000  Uiso   1.00
H441   H     0.79263   0.95536   0.00089   0.00000  Uiso   1.00
H442   H     0.80829   0.00337   0.33608   0.00000  Uiso   1.00
H443   H     0.50727   0.03288   0.93522   0.00000  Uiso   1.00
H444   H     0.88211   0.96160   0.94510   0.00000  Uiso   1.00
H445   H     0.83401   0.24267   0.17500   0.00000  Uiso   1.00
H446   H     0.87292   0.25180   0.30321   0.00000  Uiso   1.00
H447   H     0.73016   0.26579   0.11310   0.00000  Uiso   1.00
H448   H     0.90791   0.23199   0.11779   0.00000  Uiso   1.00
H449   H     0.90185   0.22790   0.43097   0.00000  Uiso   1.00
H450   H     0.60084   0.25741   0.03010   0.00000  Uiso   1.00
H451   H     0.97567   0.18613   0.03998   0.00000  Uiso   1.00
O452   O     0.87868   0.11691   0.46586   0.00000  Uiso   1.00
O453   O     0.48376   0.15563   0.93994   0.00000  Uiso   1.00
O454   O     0.97553   0.06211   0.95290   0.00000  Uiso   1.00
N455   N     0.82498   0.05496   0.34082   0.00000  Uiso   1.00
N456   N     0.54355   0.08255   0.96605   0.00000  Uiso   1.00
N457   N     0.89397   0.01591   0.97526   0.00000  Uiso   1.00
N458   N     0.87533   0.17577   0.39188   0.00000  Uiso   1.00
N459   N     0.59389   0.20337   0.01710   0.00000  Uiso   1.00
N460   N     0.94432   0.13673   0.02632   0.00000  Uiso   1.00
C461   C     0.19625   0.24753   0.84750   0.00000  Uiso   1.00
C462   C     0.22543   0.32825   0.86279   0.00000  Uiso   1.00
C463   C     0.20261   0.38401   0.88329   0.00000  Uiso   1.00
C464   C     0.23604   0.45424   0.89471   0.00000  Uiso   1.00
C465   C     0.27307   0.57747   0.91974   0.00000  Uiso   1.00
C466   C     0.18214   0.20045   0.77150   0.00000  Uiso   1.00
C467   C     0.12293   0.14875   0.71526   0.00000  Uiso   1.00
C468   C     0.11993   0.11138   0.64983   0.00000  Uiso   1.00
C469   C     0.08977   0.03615   0.53316   0.00000  Uiso   1.00
C470   C     0.24967   0.23140   0.89713   0.00000  Uiso   1.00
C471   C     0.24724   0.20570   0.94650   0.00000  Uiso   1.00
C472   C     0.30109   0.19438   0.98684   0.00000  Uiso   1.00
C473   C     0.37578   0.16721   0.06522   0.00000  Uiso   1.00
C474   C     0.29620   0.27310   0.83133   0.00000  Uiso   1.00
C475   C     0.27972   0.34214   0.85400   0.00000  Uiso   1.00
C476   C     0.31319   0.41230   0.86539   0.00000  Uiso   1.00
C477   C     0.29043   0.46816   0.88591   0.00000  Uiso   1.00
C478   C     0.23643   0.21434   0.76271   0.00000  Uiso   1.00
C479   C     0.23352   0.17704   0.69736   0.00000  Uiso   1.00
C480   C     0.17432   0.12530   0.64103   0.00000  Uiso   1.00
C481   C     0.30397   0.24529   0.88835   0.00000  Uiso   1.00
C482   C     0.35783   0.23400   0.92861   0.00000  Uiso   1.00
C483   C     0.35548   0.20830   0.97804   0.00000  Uiso   1.00
H484   H     0.15398   0.23671   0.85434   0.00000  Uiso   1.00
H485   H     0.16059   0.37324   0.89007   0.00000  Uiso   1.00
H486   H     0.08093   0.13801   0.72207   0.00000  Uiso   1.00
H487   H     0.20522   0.19496   0.95329   0.00000  Uiso   1.00
H488   H     0.19184   0.53073   0.92579   0.00000  Uiso   1.00
H489   H     0.02388   0.03470   0.57156   0.00000  Uiso   1.00
H490   H     0.28597   0.15480   0.05912   0.00000  Uiso   1.00
H491   H     0.33847   0.28391   0.82449   0.00000  Uiso   1.00
H492   H     0.35521   0.42304   0.85859   0.00000  Uiso   1.00
H493   H     0.27554   0.18780   0.69058   0.00000  Uiso   1.00
H494   H     0.39983   0.24476   0.92180   0.00000  Uiso   1.00
H495   H     0.34980   0.57114   0.90024   0.00000  Uiso   1.00
H496   H     0.18184   0.07511   0.54600   0.00000  Uiso   1.00
H497   H     0.44393   0.19522   0.03356   0.00000  Uiso   1.00
O498   O     0.27848   0.64159   0.93596   0.00000  Uiso   1.00
O499   O     0.05813   0.99082   0.47123   0.00000  Uiso   1.00
O500   O     0.40199   0.14840   0.11089   0.00000  Uiso   1.00
N501   N     0.22673   0.52115   0.91511   0.00000  Uiso   1.00
N502   N     0.06969   0.05740   0.58392   0.00000  Uiso   1.00
N503   N     0.31472   0.16967   0.03973   0.00000  Uiso   1.00
N504   N     0.31172   0.54290   0.90136   0.00000  Uiso   1.00
N505   N     0.15469   0.07915   0.57017   0.00000  Uiso   1.00
N506   N     0.39971   0.19142   0.02598   0.00000  Uiso   1.00
C507   C     0.03798   0.69211   0.11303   0.00000  Uiso   1.00
C508   C     0.10536   0.74745   0.17000   0.00000  Uiso   1.00
C509   C     0.16091   0.74906   0.16579   0.00000  Uiso   1.00
C510   C     0.21785   0.80406   0.22353   0.00000  Uiso   1.00
C511   C     0.32228   0.88214   0.30291   0.00000  Uiso   1.00
C512   C     0.01201   0.65530   0.15075   0.00000  Uiso   1.00
C513   C     0.98907   0.57943   0.13036   0.00000  Uiso   1.00
C514   C     0.96741   0.55686   0.17189   0.00000  Uiso   1.00
C515   C     0.92688   0.49187   0.22136   0.00000  Uiso   1.00
C516   C     0.99816   0.73856   0.09373   0.00000  Uiso   1.00
C517   C     0.96356   0.73267   0.02539   0.00000  Uiso   1.00
C518   C     0.93023   0.78019   0.01890   0.00000  Uiso   1.00
C519   C     0.86820   0.84446   0.97984   0.00000  Uiso   1.00
C520   C     0.04030   0.78694   0.22304   0.00000  Uiso   1.00
C521   C     0.10662   0.79896   0.22975   0.00000  Uiso   1.00
C522   C     0.16348   0.85398   0.28751   0.00000  Uiso   1.00
C523   C     0.21911   0.85566   0.28339   0.00000  Uiso   1.00
C524   C     0.01327   0.70680   0.21050   0.00000  Uiso   1.00
C525   C     0.99164   0.68435   0.25207   0.00000  Uiso   1.00
C526   C     0.96868   0.60846   0.23175   0.00000  Uiso   1.00
C527   C     0.99943   0.79007   0.15348   0.00000  Uiso   1.00
C528   C     0.96614   0.83759   0.14710   0.00000  Uiso   1.00
C529   C     0.93150   0.83179   0.07876   0.00000  Uiso   1.00
H530   H     0.03700   0.65201   0.06651   0.00000  Uiso   1.00
H531   H     0.15992   0.70918   0.11955   0.00000  Uiso   1.00
H532   H     0.98809   0.53958   0.08411   0.00000  Uiso   1.00
H533   H     0.96260   0.69281   0.97916   0.00000  Uiso   1.00
H534   H     0.29676   0.79527   0.20471   0.00000  Uiso   1.00
H535   H     0.93444   0.43766   0.12998   0.00000  Uiso   1.00
H536   H     0.88067   0.76076   0.90866   0.00000  Uiso   1.00
H537   H     0.04129   0.82704   0.26956   0.00000  Uiso   1.00
H538   H     0.16445   0.89383   0.33374   0.00000  Uiso   1.00
H539   H     0.99262   0.72422   0.29830   0.00000  Uiso   1.00
H540   H     0.96712   0.87745   0.19335   0.00000  Uiso   1.00
H541   H     0.30043   0.94513   0.37856   0.00000  Uiso   1.00
H542   H     0.93811   0.58751   0.30382   0.00000  Uiso   1.00
H543   H     0.88434   0.91062   0.08251   0.00000  Uiso   1.00
O544   O     0.37954   0.91096   0.33020   0.00000  Uiso   1.00
O545   O     0.90418   0.44178   0.23214   0.00000  Uiso   1.00
O546   O     0.83364   0.86569   0.94179   0.00000  Uiso   1.00
N547   N     0.28072   0.82139   0.23681   0.00000  Uiso   1.00
N548   N     0.94198   0.48704   0.16695   0.00000  Uiso   1.00
N549   N     0.89170   0.78910   0.96004   0.00000  Uiso   1.00
N550   N     0.28270   0.90203   0.33036   0.00000  Uiso   1.00
N551   N     0.94396   0.56768   0.26049   0.00000  Uiso   1.00
N552   N     0.89368   0.86974   0.05358   0.00000  Uiso   1.00
