data_job_05821
_audit_creation_date              2018-12-19
_audit_creation_method            'Materials Studio'
_symmetry_space_group_name_H-M    'P1'
_symmetry_Int_Tables_number       1
_symmetry_cell_setting            triclinic
loop_
_symmetry_equiv_pos_as_xyz
  x,y,z
_cell_length_a                    22.6369
_cell_length_b                    12.1735
_cell_length_c                    33.2866
_cell_angle_alpha                 90.0000
_cell_angle_beta                  112.3624
_cell_angle_gamma                 90.0000
loop_
_atom_site_label
_atom_site_type_symbol
_atom_site_fract_x
_atom_site_fract_y
_atom_site_fract_z
_atom_site_U_iso_or_equiv
_atom_site_adp_type
_atom_site_occupancy
C1     C     0.57046   0.83117   0.11290   0.00000  Uiso   1.00
C2     C     0.61159   0.73030   0.13183   0.00000  Uiso   1.00
C3     C     0.64830   0.67461   0.11321   0.00000  Uiso   1.00
C4     C     0.68252   0.58422   0.13562   0.00000  Uiso   1.00
C5     C     0.74673   0.43264   0.15898   0.00000  Uiso   1.00
C6     C     0.50309   0.80123   0.10902   0.00000  Uiso   1.00
C7     C     0.44858   0.80520   0.07124   0.00000  Uiso   1.00
C8     C     0.39146   0.77453   0.07445   0.00000  Uiso   1.00
C9     C     0.28723   0.73316   0.06242   0.00000  Uiso   1.00
C10    C     0.59360   0.91982   0.14779   0.00000  Uiso   1.00
C11    C     0.61517   0.02352   0.14260   0.00000  Uiso   1.00
C12    C     0.63424   0.09270   0.17845   0.00000  Uiso   1.00
C13    C     0.67053   0.23545   0.22660   0.00000  Uiso   1.00
C14    C     0.56595   0.76966   0.18579   0.00000  Uiso   1.00
C15    C     0.60914   0.69689   0.17142   0.00000  Uiso   1.00
C16    C     0.64331   0.60656   0.19387   0.00000  Uiso   1.00
C17    C     0.68007   0.55075   0.17529   0.00000  Uiso   1.00
C18    C     0.50064   0.76782   0.14862   0.00000  Uiso   1.00
C19    C     0.44359   0.73715   0.15189   0.00000  Uiso   1.00
C20    C     0.38901   0.74107   0.11412   0.00000  Uiso   1.00
C21    C     0.59115   0.88641   0.18739   0.00000  Uiso   1.00
C22    C     0.61019   0.95546   0.22325   0.00000  Uiso   1.00
C23    C     0.63179   0.05923   0.21811   0.00000  Uiso   1.00
H24    H     0.57236   0.85718   0.08207   0.00000  Uiso   1.00
H25    H     0.65018   0.70048   0.08257   0.00000  Uiso   1.00
H26    H     0.45049   0.83107   0.04060   0.00000  Uiso   1.00
H27    H     0.61706   0.04934   0.11195   0.00000  Uiso   1.00
H28    H     0.73535   0.51200   0.10058   0.00000  Uiso   1.00
H29    H     0.31430   0.78738   0.01209   0.00000  Uiso   1.00
H30    H     0.66554   0.24765   0.16254   0.00000  Uiso   1.00
H31    H     0.56404   0.74365   0.21662   0.00000  Uiso   1.00
H32    H     0.64141   0.58073   0.22451   0.00000  Uiso   1.00
H33    H     0.44171   0.71131   0.18254   0.00000  Uiso   1.00
H34    H     0.60828   0.92958   0.25389   0.00000  Uiso   1.00
H35    H     0.72823   0.41480   0.21578   0.00000  Uiso   1.00
H36    H     0.30717   0.69018   0.12729   0.00000  Uiso   1.00
H37    H     0.65841   0.15045   0.27774   0.00000  Uiso   1.00
O38    O     0.78282   0.35825   0.16093   0.00000  Uiso   1.00
O39    O     0.23041   0.71956   0.04484   0.00000  Uiso   1.00
O40    O     0.69123   0.32341   0.24223   0.00000  Uiso   1.00
N41    N     0.72307   0.51150   0.12661   0.00000  Uiso   1.00
N42    N     0.32941   0.76894   0.04388   0.00000  Uiso   1.00
N43    N     0.65777   0.19927   0.18454   0.00000  Uiso   1.00
N44    N     0.71924   0.45920   0.18860   0.00000  Uiso   1.00
N45    N     0.32558   0.71664   0.10587   0.00000  Uiso   1.00
N46    N     0.65394   0.14697   0.24653   0.00000  Uiso   1.00
C47    C     0.07108   0.35531   0.61331   0.00000  Uiso   1.00
C48    C     0.11203   0.25432   0.63234   0.00000  Uiso   1.00
C49    C     0.14898   0.19858   0.61393   0.00000  Uiso   1.00
C50    C     0.18297   0.10807   0.63640   0.00000  Uiso   1.00
C51    C     0.24698   0.95631   0.65993   0.00000  Uiso   1.00
C52    C     0.00354   0.32553   0.60912   0.00000  Uiso   1.00
C53    C     0.94928   0.32969   0.57117   0.00000  Uiso   1.00
C54    C     0.89195   0.29915   0.57409   0.00000  Uiso   1.00
C55    C     0.78753   0.25803   0.56158   0.00000  Uiso   1.00
C56    C     0.09400   0.44385   0.64827   0.00000  Uiso   1.00
C57    C     0.11577   0.54751   0.64324   0.00000  Uiso   1.00
C58    C     0.13459   0.61659   0.67911   0.00000  Uiso   1.00
C59    C     0.17061   0.75918   0.72738   0.00000  Uiso   1.00
C60    C     0.06575   0.29369   0.68597   0.00000  Uiso   1.00
C61    C     0.10913   0.22085   0.67181   0.00000  Uiso   1.00
C62    C     0.14308   0.13040   0.69431   0.00000  Uiso   1.00
C63    C     0.18008   0.07454   0.67593   0.00000  Uiso   1.00
C64    C     0.00065   0.29207   0.64858   0.00000  Uiso   1.00
C65    C     0.94339   0.26152   0.65156   0.00000  Uiso   1.00
C66    C     0.88905   0.26562   0.61363   0.00000  Uiso   1.00
C67    C     0.09111   0.41038   0.68773   0.00000  Uiso   1.00
C68    C     0.10989   0.47933   0.72362   0.00000  Uiso   1.00
C69    C     0.13169   0.58306   0.71865   0.00000  Uiso   1.00
H70    H     0.07332   0.38137   0.58259   0.00000  Uiso   1.00
H71    H     0.15120   0.22450   0.58339   0.00000  Uiso   1.00
H72    H     0.95153   0.35560   0.54064   0.00000  Uiso   1.00
H73    H     0.11801   0.57338   0.61269   0.00000  Uiso   1.00
H74    H     0.23624   0.03579   0.60166   0.00000  Uiso   1.00
H75    H     0.81523   0.31227   0.51154   0.00000  Uiso   1.00
H76    H     0.16627   0.77150   0.66347   0.00000  Uiso   1.00
H77    H     0.06349   0.26764   0.71669   0.00000  Uiso   1.00
H78    H     0.14083   0.10452   0.72485   0.00000  Uiso   1.00
H79    H     0.94117   0.23563   0.68210   0.00000  Uiso   1.00
H80    H     0.10764   0.45340   0.75415   0.00000  Uiso   1.00
H81    H     0.22783   0.93841   0.71648   0.00000  Uiso   1.00
H82    H     0.80682   0.21490   0.62635   0.00000  Uiso   1.00
H83    H     0.15786   0.67412   0.77829   0.00000  Uiso   1.00
O84    O     0.28307   0.88183   0.66201   0.00000  Uiso   1.00
O85    O     0.73073   0.24458   0.54377   0.00000  Uiso   1.00
O86    O     0.19128   0.84707   0.74310   0.00000  Uiso   1.00
N87    N     0.22366   0.03527   0.62757   0.00000  Uiso   1.00
N88    N     0.83004   0.29375   0.54331   0.00000  Uiso   1.00
N89    N     0.15822   0.72309   0.68535   0.00000  Uiso   1.00
N90    N     0.21913   0.98288   0.68935   0.00000  Uiso   1.00
N91    N     0.82552   0.24135   0.60509   0.00000  Uiso   1.00
N92    N     0.15369   0.67070   0.74713   0.00000  Uiso   1.00
C93    C     0.42954   0.33117   0.38710   0.00000  Uiso   1.00
C94    C     0.38841   0.23030   0.36817   0.00000  Uiso   1.00
C95    C     0.35170   0.17461   0.38679   0.00000  Uiso   1.00
C96    C     0.31748   0.08422   0.36438   0.00000  Uiso   1.00
C97    C     0.25327   0.93264   0.34102   0.00000  Uiso   1.00
C98    C     0.49691   0.30123   0.39098   0.00000  Uiso   1.00
C99    C     0.55142   0.30520   0.42876   0.00000  Uiso   1.00
C100   C     0.60854   0.27453   0.42555   0.00000  Uiso   1.00
C101   C     0.71277   0.23316   0.43758   0.00000  Uiso   1.00
C102   C     0.40640   0.41982   0.35221   0.00000  Uiso   1.00
C103   C     0.38483   0.52352   0.35740   0.00000  Uiso   1.00
C104   C     0.36576   0.59270   0.32155   0.00000  Uiso   1.00
C105   C     0.32947   0.73545   0.27340   0.00000  Uiso   1.00
C106   C     0.43405   0.26966   0.31421   0.00000  Uiso   1.00
C107   C     0.39086   0.19689   0.32858   0.00000  Uiso   1.00
C108   C     0.35669   0.10656   0.30613   0.00000  Uiso   1.00
C109   C     0.31993   0.05075   0.32471   0.00000  Uiso   1.00
C110   C     0.49936   0.26782   0.35138   0.00000  Uiso   1.00
C111   C     0.55641   0.23715   0.34811   0.00000  Uiso   1.00
C112   C     0.61099   0.24107   0.38588   0.00000  Uiso   1.00
C113   C     0.40885   0.38641   0.31261   0.00000  Uiso   1.00
C114   C     0.38981   0.45546   0.27675   0.00000  Uiso   1.00
C115   C     0.36821   0.55923   0.28189   0.00000  Uiso   1.00
H116   H     0.42764   0.35718   0.41793   0.00000  Uiso   1.00
H117   H     0.34982   0.20048   0.41743   0.00000  Uiso   1.00
H118   H     0.54951   0.33107   0.45940   0.00000  Uiso   1.00
H119   H     0.38294   0.54934   0.38805   0.00000  Uiso   1.00
H120   H     0.26465   0.01200   0.39942   0.00000  Uiso   1.00
H121   H     0.68570   0.28738   0.48791   0.00000  Uiso   1.00
H122   H     0.33446   0.74765   0.33746   0.00000  Uiso   1.00
H123   H     0.43596   0.24365   0.28338   0.00000  Uiso   1.00
H124   H     0.35859   0.08073   0.27549   0.00000  Uiso   1.00
H125   H     0.55829   0.21131   0.31746   0.00000  Uiso   1.00
H126   H     0.39172   0.42958   0.24611   0.00000  Uiso   1.00
H127   H     0.27177   0.91480   0.28422   0.00000  Uiso   1.00
H128   H     0.69283   0.19018   0.37271   0.00000  Uiso   1.00
H129   H     0.34159   0.65045   0.22226   0.00000  Uiso   1.00
O130   O     0.21718   0.85825   0.33907   0.00000  Uiso   1.00
O131   O     0.76959   0.21956   0.45516   0.00000  Uiso   1.00
O132   O     0.30877   0.82341   0.25777   0.00000  Uiso   1.00
N133   N     0.27693   0.01150   0.37339   0.00000  Uiso   1.00
N134   N     0.67059   0.26894   0.45612   0.00000  Uiso   1.00
N135   N     0.34223   0.69927   0.31546   0.00000  Uiso   1.00
N136   N     0.28076   0.95920   0.31140   0.00000  Uiso   1.00
N137   N     0.67442   0.21664   0.39413   0.00000  Uiso   1.00
N138   N     0.34606   0.64697   0.25347   0.00000  Uiso   1.00
C139   C     0.92892   0.85531   0.88669   0.00000  Uiso   1.00
C140   C     0.88797   0.75432   0.86766   0.00000  Uiso   1.00
C141   C     0.85102   0.69858   0.88607   0.00000  Uiso   1.00
C142   C     0.81703   0.60807   0.86360   0.00000  Uiso   1.00
C143   C     0.75302   0.45631   0.84007   0.00000  Uiso   1.00
C144   C     0.99646   0.82553   0.89088   0.00000  Uiso   1.00
C145   C     0.05072   0.82969   0.92883   0.00000  Uiso   1.00
C146   C     0.10805   0.79915   0.92591   0.00000  Uiso   1.00
C147   C     0.21247   0.75803   0.93842   0.00000  Uiso   1.00
C148   C     0.90600   0.94385   0.85173   0.00000  Uiso   1.00
C149   C     0.88423   0.04751   0.85676   0.00000  Uiso   1.00
C150   C     0.86541   0.11659   0.82089   0.00000  Uiso   1.00
C151   C     0.82939   0.25918   0.77262   0.00000  Uiso   1.00
C152   C     0.93425   0.79369   0.81403   0.00000  Uiso   1.00
C153   C     0.89087   0.72085   0.82819   0.00000  Uiso   1.00
C154   C     0.85692   0.63040   0.80569   0.00000  Uiso   1.00
C155   C     0.81992   0.57454   0.82407   0.00000  Uiso   1.00
C156   C     0.99935   0.79207   0.85142   0.00000  Uiso   1.00
C157   C     0.05661   0.76152   0.84844   0.00000  Uiso   1.00
C158   C     0.11095   0.76562   0.88637   0.00000  Uiso   1.00
C159   C     0.90889   0.91038   0.81227   0.00000  Uiso   1.00
C160   C     0.89011   0.97933   0.77638   0.00000  Uiso   1.00
C161   C     0.86831   0.08306   0.78135   0.00000  Uiso   1.00
H162   H     0.92668   0.88137   0.91741   0.00000  Uiso   1.00
H163   H     0.84880   0.72450   0.91661   0.00000  Uiso   1.00
H164   H     0.04847   0.85560   0.95936   0.00000  Uiso   1.00
H165   H     0.88199   0.07338   0.88731   0.00000  Uiso   1.00
H166   H     0.76376   0.53579   0.89834   0.00000  Uiso   1.00
H167   H     0.18477   0.81227   0.98846   0.00000  Uiso   1.00
H168   H     0.83373   0.27150   0.83653   0.00000  Uiso   1.00
H169   H     0.93651   0.76764   0.78331   0.00000  Uiso   1.00
H170   H     0.85917   0.60452   0.77515   0.00000  Uiso   1.00
H171   H     0.05883   0.73563   0.81790   0.00000  Uiso   1.00
H172   H     0.89236   0.95340   0.74585   0.00000  Uiso   1.00
H173   H     0.77217   0.43841   0.78352   0.00000  Uiso   1.00
H174   H     0.19318   0.71490   0.87365   0.00000  Uiso   1.00
H175   H     0.84214   0.17412   0.72171   0.00000  Uiso   1.00
O176   O     0.71693   0.38183   0.83799   0.00000  Uiso   1.00
O177   O     0.26927   0.74458   0.95623   0.00000  Uiso   1.00
O178   O     0.80872   0.34707   0.75690   0.00000  Uiso   1.00
N179   N     0.77634   0.53527   0.87243   0.00000  Uiso   1.00
N180   N     0.16996   0.79375   0.95669   0.00000  Uiso   1.00
N181   N     0.84178   0.22309   0.81465   0.00000  Uiso   1.00
N182   N     0.78087   0.48288   0.81065   0.00000  Uiso   1.00
N183   N     0.17448   0.74135   0.89491   0.00000  Uiso   1.00
N184   N     0.84631   0.17070   0.75287   0.00000  Uiso   1.00
C185   C     0.42954   0.16883   0.88710   0.00000  Uiso   1.00
C186   C     0.38841   0.26970   0.86817   0.00000  Uiso   1.00
C187   C     0.35170   0.32539   0.88679   0.00000  Uiso   1.00
C188   C     0.31748   0.41578   0.86438   0.00000  Uiso   1.00
C189   C     0.25327   0.56736   0.84102   0.00000  Uiso   1.00
C190   C     0.49691   0.19877   0.89098   0.00000  Uiso   1.00
C191   C     0.55142   0.19480   0.92876   0.00000  Uiso   1.00
C192   C     0.60854   0.22547   0.92555   0.00000  Uiso   1.00
C193   C     0.71277   0.26684   0.93758   0.00000  Uiso   1.00
C194   C     0.40640   0.08018   0.85221   0.00000  Uiso   1.00
C195   C     0.38483   0.97648   0.85740   0.00000  Uiso   1.00
C196   C     0.36576   0.90730   0.82155   0.00000  Uiso   1.00
C197   C     0.32947   0.76455   0.77340   0.00000  Uiso   1.00
C198   C     0.43405   0.23034   0.81421   0.00000  Uiso   1.00
C199   C     0.39086   0.30311   0.82858   0.00000  Uiso   1.00
C200   C     0.35669   0.39344   0.80613   0.00000  Uiso   1.00
C201   C     0.31993   0.44925   0.82471   0.00000  Uiso   1.00
C202   C     0.49936   0.23218   0.85138   0.00000  Uiso   1.00
C203   C     0.55641   0.26285   0.84811   0.00000  Uiso   1.00
C204   C     0.61099   0.25893   0.88588   0.00000  Uiso   1.00
C205   C     0.40885   0.11359   0.81261   0.00000  Uiso   1.00
C206   C     0.38981   0.04454   0.77675   0.00000  Uiso   1.00
C207   C     0.36821   0.94077   0.78189   0.00000  Uiso   1.00
H208   H     0.42764   0.14282   0.91793   0.00000  Uiso   1.00
H209   H     0.34982   0.29952   0.91743   0.00000  Uiso   1.00
H210   H     0.54951   0.16893   0.95940   0.00000  Uiso   1.00
H211   H     0.38294   0.95066   0.88805   0.00000  Uiso   1.00
H212   H     0.26465   0.48800   0.89942   0.00000  Uiso   1.00
H213   H     0.68570   0.21262   0.98791   0.00000  Uiso   1.00
H214   H     0.33446   0.75235   0.83746   0.00000  Uiso   1.00
H215   H     0.43596   0.25635   0.78338   0.00000  Uiso   1.00
H216   H     0.35859   0.41927   0.77549   0.00000  Uiso   1.00
H217   H     0.55829   0.28869   0.81746   0.00000  Uiso   1.00
H218   H     0.39172   0.07042   0.74611   0.00000  Uiso   1.00
H219   H     0.27177   0.58520   0.78422   0.00000  Uiso   1.00
H220   H     0.69283   0.30982   0.87271   0.00000  Uiso   1.00
H221   H     0.34159   0.84955   0.72226   0.00000  Uiso   1.00
O222   O     0.21718   0.64175   0.83907   0.00000  Uiso   1.00
O223   O     0.76959   0.28044   0.95516   0.00000  Uiso   1.00
O224   O     0.30877   0.67659   0.75777   0.00000  Uiso   1.00
N225   N     0.27693   0.48850   0.87339   0.00000  Uiso   1.00
N226   N     0.67059   0.23106   0.95612   0.00000  Uiso   1.00
N227   N     0.34223   0.80073   0.81546   0.00000  Uiso   1.00
N228   N     0.28076   0.54080   0.81140   0.00000  Uiso   1.00
N229   N     0.67442   0.28336   0.89413   0.00000  Uiso   1.00
N230   N     0.34606   0.85303   0.75347   0.00000  Uiso   1.00
C231   C     0.92892   0.64469   0.38669   0.00000  Uiso   1.00
C232   C     0.88797   0.74568   0.36766   0.00000  Uiso   1.00
C233   C     0.85102   0.80142   0.38607   0.00000  Uiso   1.00
C234   C     0.81703   0.89193   0.36360   0.00000  Uiso   1.00
C235   C     0.75302   0.04369   0.34007   0.00000  Uiso   1.00
C236   C     0.99646   0.67447   0.39088   0.00000  Uiso   1.00
C237   C     0.05072   0.67031   0.42883   0.00000  Uiso   1.00
C238   C     0.10805   0.70085   0.42591   0.00000  Uiso   1.00
C239   C     0.21247   0.74197   0.43842   0.00000  Uiso   1.00
C240   C     0.90600   0.55615   0.35173   0.00000  Uiso   1.00
C241   C     0.88423   0.45249   0.35676   0.00000  Uiso   1.00
C242   C     0.86541   0.38341   0.32089   0.00000  Uiso   1.00
C243   C     0.82939   0.24082   0.27262   0.00000  Uiso   1.00
C244   C     0.93425   0.70631   0.31403   0.00000  Uiso   1.00
C245   C     0.89087   0.77915   0.32819   0.00000  Uiso   1.00
C246   C     0.85692   0.86960   0.30569   0.00000  Uiso   1.00
C247   C     0.81992   0.92546   0.32407   0.00000  Uiso   1.00
C248   C     0.99935   0.70793   0.35142   0.00000  Uiso   1.00
C249   C     0.05661   0.73848   0.34844   0.00000  Uiso   1.00
C250   C     0.11095   0.73438   0.38637   0.00000  Uiso   1.00
C251   C     0.90889   0.58962   0.31227   0.00000  Uiso   1.00
C252   C     0.89011   0.52067   0.27638   0.00000  Uiso   1.00
C253   C     0.86831   0.41694   0.28135   0.00000  Uiso   1.00
H254   H     0.92668   0.61863   0.41741   0.00000  Uiso   1.00
H255   H     0.84880   0.77550   0.41661   0.00000  Uiso   1.00
H256   H     0.04847   0.64440   0.45936   0.00000  Uiso   1.00
H257   H     0.88199   0.42662   0.38731   0.00000  Uiso   1.00
H258   H     0.76376   0.96421   0.39834   0.00000  Uiso   1.00
H259   H     0.18477   0.68773   0.48846   0.00000  Uiso   1.00
H260   H     0.83373   0.22850   0.33653   0.00000  Uiso   1.00
H261   H     0.93651   0.73236   0.28331   0.00000  Uiso   1.00
H262   H     0.85917   0.89548   0.27515   0.00000  Uiso   1.00
H263   H     0.05883   0.76437   0.31790   0.00000  Uiso   1.00
H264   H     0.89236   0.54660   0.24585   0.00000  Uiso   1.00
H265   H     0.77217   0.06159   0.28352   0.00000  Uiso   1.00
H266   H     0.19318   0.78510   0.37365   0.00000  Uiso   1.00
H267   H     0.84214   0.32588   0.22171   0.00000  Uiso   1.00
O268   O     0.71693   0.11817   0.33799   0.00000  Uiso   1.00
O269   O     0.26927   0.75542   0.45623   0.00000  Uiso   1.00
O270   O     0.80872   0.15293   0.25690   0.00000  Uiso   1.00
N271   N     0.77634   0.96473   0.37243   0.00000  Uiso   1.00
N272   N     0.16996   0.70625   0.45669   0.00000  Uiso   1.00
N273   N     0.84178   0.27691   0.31465   0.00000  Uiso   1.00
N274   N     0.78087   0.01712   0.31065   0.00000  Uiso   1.00
N275   N     0.17448   0.75865   0.39491   0.00000  Uiso   1.00
N276   N     0.84631   0.32930   0.25287   0.00000  Uiso   1.00
C277   C     0.57046   0.66883   0.61290   0.00000  Uiso   1.00
C278   C     0.61159   0.76970   0.63183   0.00000  Uiso   1.00
C279   C     0.64830   0.82539   0.61321   0.00000  Uiso   1.00
C280   C     0.68252   0.91578   0.63562   0.00000  Uiso   1.00
C281   C     0.74673   0.06736   0.65898   0.00000  Uiso   1.00
C282   C     0.50309   0.69877   0.60902   0.00000  Uiso   1.00
C283   C     0.44858   0.69480   0.57124   0.00000  Uiso   1.00
C284   C     0.39146   0.72547   0.57445   0.00000  Uiso   1.00
C285   C     0.28723   0.76684   0.56242   0.00000  Uiso   1.00
C286   C     0.59360   0.58018   0.64779   0.00000  Uiso   1.00
C287   C     0.61517   0.47648   0.64260   0.00000  Uiso   1.00
C288   C     0.63424   0.40730   0.67845   0.00000  Uiso   1.00
C289   C     0.67053   0.26455   0.72660   0.00000  Uiso   1.00
C290   C     0.56595   0.73034   0.68579   0.00000  Uiso   1.00
C291   C     0.60914   0.80311   0.67142   0.00000  Uiso   1.00
C292   C     0.64331   0.89344   0.69387   0.00000  Uiso   1.00
C293   C     0.68007   0.94925   0.67529   0.00000  Uiso   1.00
C294   C     0.50064   0.73218   0.64862   0.00000  Uiso   1.00
C295   C     0.44359   0.76285   0.65189   0.00000  Uiso   1.00
C296   C     0.38901   0.75893   0.61412   0.00000  Uiso   1.00
C297   C     0.59115   0.61359   0.68739   0.00000  Uiso   1.00
C298   C     0.61019   0.54454   0.72325   0.00000  Uiso   1.00
C299   C     0.63179   0.44077   0.71811   0.00000  Uiso   1.00
H300   H     0.57236   0.64282   0.58207   0.00000  Uiso   1.00
H301   H     0.65018   0.79952   0.58257   0.00000  Uiso   1.00
H302   H     0.45049   0.66893   0.54060   0.00000  Uiso   1.00
H303   H     0.61706   0.45066   0.61195   0.00000  Uiso   1.00
H304   H     0.73535   0.98800   0.60058   0.00000  Uiso   1.00
H305   H     0.31430   0.71262   0.51209   0.00000  Uiso   1.00
H306   H     0.66554   0.25235   0.66254   0.00000  Uiso   1.00
H307   H     0.56404   0.75635   0.71662   0.00000  Uiso   1.00
H308   H     0.64141   0.91927   0.72451   0.00000  Uiso   1.00
H309   H     0.44171   0.78869   0.68254   0.00000  Uiso   1.00
H310   H     0.60828   0.57042   0.75389   0.00000  Uiso   1.00
H311   H     0.72823   0.08520   0.71578   0.00000  Uiso   1.00
H312   H     0.30717   0.80982   0.62729   0.00000  Uiso   1.00
H313   H     0.65841   0.34955   0.77774   0.00000  Uiso   1.00
O314   O     0.78282   0.14175   0.66093   0.00000  Uiso   1.00
O315   O     0.23041   0.78044   0.54484   0.00000  Uiso   1.00
O316   O     0.69123   0.17659   0.74223   0.00000  Uiso   1.00
N317   N     0.72307   0.98850   0.62661   0.00000  Uiso   1.00
N318   N     0.32941   0.73106   0.54388   0.00000  Uiso   1.00
N319   N     0.65777   0.30073   0.68454   0.00000  Uiso   1.00
N320   N     0.71924   0.04080   0.68860   0.00000  Uiso   1.00
N321   N     0.32558   0.78336   0.60587   0.00000  Uiso   1.00
N322   N     0.65394   0.35303   0.74653   0.00000  Uiso   1.00
C323   C     0.07108   0.14469   0.11331   0.00000  Uiso   1.00
C324   C     0.11203   0.24568   0.13234   0.00000  Uiso   1.00
C325   C     0.14898   0.30142   0.11393   0.00000  Uiso   1.00
C326   C     0.18297   0.39193   0.13640   0.00000  Uiso   1.00
C327   C     0.24698   0.54369   0.15993   0.00000  Uiso   1.00
C328   C     0.00354   0.17447   0.10912   0.00000  Uiso   1.00
C329   C     0.94928   0.17031   0.07117   0.00000  Uiso   1.00
C330   C     0.89195   0.20085   0.07409   0.00000  Uiso   1.00
C331   C     0.78753   0.24197   0.06158   0.00000  Uiso   1.00
C332   C     0.09400   0.05615   0.14827   0.00000  Uiso   1.00
C333   C     0.11577   0.95249   0.14324   0.00000  Uiso   1.00
C334   C     0.13459   0.88341   0.17911   0.00000  Uiso   1.00
C335   C     0.17061   0.74082   0.22738   0.00000  Uiso   1.00
C336   C     0.06575   0.20631   0.18597   0.00000  Uiso   1.00
C337   C     0.10913   0.27915   0.17181   0.00000  Uiso   1.00
C338   C     0.14308   0.36960   0.19431   0.00000  Uiso   1.00
C339   C     0.18008   0.42546   0.17593   0.00000  Uiso   1.00
C340   C     0.00065   0.20793   0.14858   0.00000  Uiso   1.00
C341   C     0.94339   0.23848   0.15156   0.00000  Uiso   1.00
C342   C     0.88905   0.23438   0.11363   0.00000  Uiso   1.00
C343   C     0.09111   0.08962   0.18773   0.00000  Uiso   1.00
C344   C     0.10989   0.02067   0.22362   0.00000  Uiso   1.00
C345   C     0.13169   0.91694   0.21865   0.00000  Uiso   1.00
H346   H     0.07332   0.11863   0.08259   0.00000  Uiso   1.00
H347   H     0.15120   0.27550   0.08339   0.00000  Uiso   1.00
H348   H     0.95153   0.14440   0.04064   0.00000  Uiso   1.00
H349   H     0.11801   0.92662   0.11269   0.00000  Uiso   1.00
H350   H     0.23624   0.46421   0.10166   0.00000  Uiso   1.00
H351   H     0.81523   0.18773   0.01154   0.00000  Uiso   1.00
H352   H     0.16627   0.72850   0.16347   0.00000  Uiso   1.00
H353   H     0.06349   0.23236   0.21669   0.00000  Uiso   1.00
H354   H     0.14083   0.39548   0.22485   0.00000  Uiso   1.00
H355   H     0.94117   0.26437   0.18210   0.00000  Uiso   1.00
H356   H     0.10764   0.04660   0.25415   0.00000  Uiso   1.00
H357   H     0.22783   0.56159   0.21648   0.00000  Uiso   1.00
H358   H     0.80682   0.28510   0.12635   0.00000  Uiso   1.00
H359   H     0.15786   0.82588   0.27829   0.00000  Uiso   1.00
O360   O     0.28307   0.61817   0.16201   0.00000  Uiso   1.00
O361   O     0.73073   0.25542   0.04377   0.00000  Uiso   1.00
O362   O     0.19128   0.65293   0.24310   0.00000  Uiso   1.00
N363   N     0.22366   0.46473   0.12757   0.00000  Uiso   1.00
N364   N     0.83004   0.20625   0.04331   0.00000  Uiso   1.00
N365   N     0.15822   0.77691   0.18535   0.00000  Uiso   1.00
N366   N     0.21913   0.51712   0.18935   0.00000  Uiso   1.00
N367   N     0.82552   0.25865   0.10509   0.00000  Uiso   1.00
N368   N     0.15369   0.82930   0.24713   0.00000  Uiso   1.00
