data_job_02995
_audit_creation_date              2018-12-19
_audit_creation_method            'Materials Studio'
_symmetry_space_group_name_H-M    'P1'
_symmetry_Int_Tables_number       1
_symmetry_cell_setting            triclinic
loop_
_symmetry_equiv_pos_as_xyz
  x,y,z
_cell_length_a                    15.3281
_cell_length_b                    13.7017
_cell_length_c                    12.8538
_cell_angle_alpha                 90.0000
_cell_angle_beta                  82.4334
_cell_angle_gamma                 90.0000
loop_
_atom_site_label
_atom_site_type_symbol
_atom_site_fract_x
_atom_site_fract_y
_atom_site_fract_z
_atom_site_U_iso_or_equiv
_atom_site_adp_type
_atom_site_occupancy
C1     C     0.69917   0.01231   0.29796   0.00000  Uiso   1.00
C2     C     0.78940   0.04238   0.24291   0.00000  Uiso   1.00
C3     C     0.80888   0.06728   0.13777   0.00000  Uiso   1.00
C4     C     0.89542   0.09264   0.10246   0.00000  Uiso   1.00
C5     C     0.02569   0.13921   0.00671   0.00000  Uiso   1.00
C6     C     0.71171   0.91249   0.34632   0.00000  Uiso   1.00
C7     C     0.66585   0.82819   0.32813   0.00000  Uiso   1.00
C8     C     0.68698   0.74422   0.37988   0.00000  Uiso   1.00
C9     C     0.69658   0.58916   0.44473   0.00000  Uiso   1.00
C10    C     0.67799   0.08259   0.38980   0.00000  Uiso   1.00
C11    C     0.60377   0.14129   0.40818   0.00000  Uiso   1.00
C12    C     0.59649   0.20051   0.49655   0.00000  Uiso   1.00
C13    C     0.55375   0.30955   0.62890   0.00000  Uiso   1.00
C14    C     0.81821   0.01309   0.42222   0.00000  Uiso   1.00
C15    C     0.85405   0.04279   0.31041   0.00000  Uiso   1.00
C16    C     0.94058   0.06813   0.27525   0.00000  Uiso   1.00
C17    C     0.96019   0.09306   0.17007   0.00000  Uiso   1.00
C18    C     0.77636   0.91291   0.41381   0.00000  Uiso   1.00
C19    C     0.79755   0.82905   0.46561   0.00000  Uiso   1.00
C20    C     0.75175   0.74464   0.44749   0.00000  Uiso   1.00
C21    C     0.74264   0.08301   0.45729   0.00000  Uiso   1.00
C22    C     0.73547   0.14215   0.54565   0.00000  Uiso   1.00
C23    C     0.66126   0.20093   0.56417   0.00000  Uiso   1.00
H24    H     0.64884   0.01198   0.24542   0.00000  Uiso   1.00
H25    H     0.75883   0.06693   0.08556   0.00000  Uiso   1.00
H26    H     0.61582   0.82789   0.27591   0.00000  Uiso   1.00
H27    H     0.55375   0.14094   0.35594   0.00000  Uiso   1.00
H28    H     0.90930   0.12801   0.93809   0.00000  Uiso   1.00
H29    H     0.60773   0.62398   0.33946   0.00000  Uiso   1.00
H30    H     0.47684   0.28411   0.50823   0.00000  Uiso   1.00
H31    H     0.86854   0.01341   0.47477   0.00000  Uiso   1.00
H32    H     0.99060   0.06845   0.32750   0.00000  Uiso   1.00
H33    H     0.84758   0.82940   0.51783   0.00000  Uiso   1.00
H34    H     0.78552   0.14245   0.59787   0.00000  Uiso   1.00
H35    H     0.09741   0.12923   0.13445   0.00000  Uiso   1.00
H36    H     0.79583   0.62521   0.53582   0.00000  Uiso   1.00
H37    H     0.66496   0.28534   0.70459   0.00000  Uiso   1.00
O38    O     0.07969   0.16477   0.93525   0.00000  Uiso   1.00
O39    O     0.68402   0.50351   0.46184   0.00000  Uiso   1.00
O40    O     0.51231   0.36959   0.68325   0.00000  Uiso   1.00
N41    N     0.93682   0.12076   0.00452   0.00000  Uiso   1.00
N42    N     0.65487   0.64953   0.37976   0.00000  Uiso   1.00
N43    N     0.53250   0.26667   0.53756   0.00000  Uiso   1.00
N44    N     0.03804   0.12142   0.11018   0.00000  Uiso   1.00
N45    N     0.75609   0.65019   0.48542   0.00000  Uiso   1.00
N46    N     0.63372   0.26733   0.64322   0.00000  Uiso   1.00
C47    C     0.30083   0.51231   0.20204   0.00000  Uiso   1.00
C48    C     0.21060   0.54238   0.25709   0.00000  Uiso   1.00
C49    C     0.19112   0.56728   0.36223   0.00000  Uiso   1.00
C50    C     0.10458   0.59264   0.39754   0.00000  Uiso   1.00
C51    C     0.97431   0.63921   0.49329   0.00000  Uiso   1.00
C52    C     0.28829   0.41249   0.15368   0.00000  Uiso   1.00
C53    C     0.33415   0.32819   0.17187   0.00000  Uiso   1.00
C54    C     0.31302   0.24422   0.12012   0.00000  Uiso   1.00
C55    C     0.30342   0.08916   0.05527   0.00000  Uiso   1.00
C56    C     0.32201   0.58259   0.11020   0.00000  Uiso   1.00
C57    C     0.39623   0.64129   0.09182   0.00000  Uiso   1.00
C58    C     0.40351   0.70051   0.00345   0.00000  Uiso   1.00
C59    C     0.44625   0.80955   0.87110   0.00000  Uiso   1.00
C60    C     0.18179   0.51309   0.07778   0.00000  Uiso   1.00
C61    C     0.14595   0.54279   0.18959   0.00000  Uiso   1.00
C62    C     0.05942   0.56813   0.22475   0.00000  Uiso   1.00
C63    C     0.03981   0.59306   0.32993   0.00000  Uiso   1.00
C64    C     0.22364   0.41291   0.08619   0.00000  Uiso   1.00
C65    C     0.20245   0.32905   0.03439   0.00000  Uiso   1.00
C66    C     0.24825   0.24464   0.05251   0.00000  Uiso   1.00
C67    C     0.25736   0.58301   0.04271   0.00000  Uiso   1.00
C68    C     0.26453   0.64215   0.95435   0.00000  Uiso   1.00
C69    C     0.33874   0.70093   0.93583   0.00000  Uiso   1.00
H70    H     0.35116   0.51198   0.25458   0.00000  Uiso   1.00
H71    H     0.24117   0.56693   0.41444   0.00000  Uiso   1.00
H72    H     0.38418   0.32789   0.22409   0.00000  Uiso   1.00
H73    H     0.44625   0.64094   0.14406   0.00000  Uiso   1.00
H74    H     0.09070   0.62801   0.56191   0.00000  Uiso   1.00
H75    H     0.39227   0.12398   0.16054   0.00000  Uiso   1.00
H76    H     0.52316   0.78411   0.99177   0.00000  Uiso   1.00
H77    H     0.13146   0.51341   0.02523   0.00000  Uiso   1.00
H78    H     0.00940   0.56845   0.17250   0.00000  Uiso   1.00
H79    H     0.15242   0.32940   0.98217   0.00000  Uiso   1.00
H80    H     0.21448   0.64245   0.90213   0.00000  Uiso   1.00
H81    H     0.90259   0.62923   0.36555   0.00000  Uiso   1.00
H82    H     0.20417   0.12521   0.96418   0.00000  Uiso   1.00
H83    H     0.33504   0.78534   0.79541   0.00000  Uiso   1.00
O84    O     0.92031   0.66477   0.56475   0.00000  Uiso   1.00
O85    O     0.31598   0.00351   0.03816   0.00000  Uiso   1.00
O86    O     0.48769   0.86959   0.81675   0.00000  Uiso   1.00
N87    N     0.06318   0.62076   0.49548   0.00000  Uiso   1.00
N88    N     0.34513   0.14953   0.12024   0.00000  Uiso   1.00
N89    N     0.46750   0.76667   0.96244   0.00000  Uiso   1.00
N90    N     0.96196   0.62142   0.38982   0.00000  Uiso   1.00
N91    N     0.24391   0.15019   0.01458   0.00000  Uiso   1.00
N92    N     0.36628   0.76733   0.85678   0.00000  Uiso   1.00
C93    C     0.30083   0.98769   0.70204   0.00000  Uiso   1.00
C94    C     0.21060   0.95762   0.75709   0.00000  Uiso   1.00
C95    C     0.19112   0.93272   0.86223   0.00000  Uiso   1.00
C96    C     0.10458   0.90736   0.89754   0.00000  Uiso   1.00
C97    C     0.97431   0.86079   0.99329   0.00000  Uiso   1.00
C98    C     0.28829   0.08751   0.65368   0.00000  Uiso   1.00
C99    C     0.33415   0.17181   0.67187   0.00000  Uiso   1.00
C100   C     0.31302   0.25578   0.62012   0.00000  Uiso   1.00
C101   C     0.30342   0.41084   0.55527   0.00000  Uiso   1.00
C102   C     0.32201   0.91741   0.61020   0.00000  Uiso   1.00
C103   C     0.39623   0.85871   0.59182   0.00000  Uiso   1.00
C104   C     0.40351   0.79949   0.50345   0.00000  Uiso   1.00
C105   C     0.44625   0.69045   0.37110   0.00000  Uiso   1.00
C106   C     0.18179   0.98691   0.57778   0.00000  Uiso   1.00
C107   C     0.14595   0.95721   0.68959   0.00000  Uiso   1.00
C108   C     0.05942   0.93187   0.72475   0.00000  Uiso   1.00
C109   C     0.03981   0.90694   0.82993   0.00000  Uiso   1.00
C110   C     0.22364   0.08709   0.58619   0.00000  Uiso   1.00
C111   C     0.20245   0.17095   0.53439   0.00000  Uiso   1.00
C112   C     0.24825   0.25536   0.55251   0.00000  Uiso   1.00
C113   C     0.25736   0.91699   0.54271   0.00000  Uiso   1.00
C114   C     0.26453   0.85785   0.45435   0.00000  Uiso   1.00
C115   C     0.33874   0.79907   0.43583   0.00000  Uiso   1.00
H116   H     0.35116   0.98802   0.75458   0.00000  Uiso   1.00
H117   H     0.24117   0.93307   0.91444   0.00000  Uiso   1.00
H118   H     0.38418   0.17211   0.72409   0.00000  Uiso   1.00
H119   H     0.44625   0.85906   0.64406   0.00000  Uiso   1.00
H120   H     0.09070   0.87199   0.06191   0.00000  Uiso   1.00
H121   H     0.39227   0.37602   0.66054   0.00000  Uiso   1.00
H122   H     0.52316   0.71589   0.49177   0.00000  Uiso   1.00
H123   H     0.13146   0.98659   0.52523   0.00000  Uiso   1.00
H124   H     0.00940   0.93155   0.67250   0.00000  Uiso   1.00
H125   H     0.15242   0.17060   0.48217   0.00000  Uiso   1.00
H126   H     0.21448   0.85755   0.40213   0.00000  Uiso   1.00
H127   H     0.90259   0.87077   0.86555   0.00000  Uiso   1.00
H128   H     0.20417   0.37479   0.46418   0.00000  Uiso   1.00
H129   H     0.33504   0.71466   0.29541   0.00000  Uiso   1.00
O130   O     0.92031   0.83523   0.06475   0.00000  Uiso   1.00
O131   O     0.31598   0.49649   0.53816   0.00000  Uiso   1.00
O132   O     0.48769   0.63041   0.31675   0.00000  Uiso   1.00
N133   N     0.06318   0.87924   0.99548   0.00000  Uiso   1.00
N134   N     0.34513   0.35047   0.62024   0.00000  Uiso   1.00
N135   N     0.46750   0.73333   0.46244   0.00000  Uiso   1.00
N136   N     0.96196   0.87858   0.88982   0.00000  Uiso   1.00
N137   N     0.24391   0.34981   0.51458   0.00000  Uiso   1.00
N138   N     0.36628   0.73267   0.35678   0.00000  Uiso   1.00
C139   C     0.69917   0.48769   0.79796   0.00000  Uiso   1.00
C140   C     0.78940   0.45762   0.74291   0.00000  Uiso   1.00
C141   C     0.80888   0.43272   0.63777   0.00000  Uiso   1.00
C142   C     0.89542   0.40736   0.60246   0.00000  Uiso   1.00
C143   C     0.02569   0.36079   0.50671   0.00000  Uiso   1.00
C144   C     0.71171   0.58751   0.84632   0.00000  Uiso   1.00
C145   C     0.66585   0.67181   0.82813   0.00000  Uiso   1.00
C146   C     0.68698   0.75578   0.87988   0.00000  Uiso   1.00
C147   C     0.69658   0.91084   0.94473   0.00000  Uiso   1.00
C148   C     0.67799   0.41741   0.88980   0.00000  Uiso   1.00
C149   C     0.60377   0.35871   0.90818   0.00000  Uiso   1.00
C150   C     0.59649   0.29949   0.99655   0.00000  Uiso   1.00
C151   C     0.55375   0.19045   0.12890   0.00000  Uiso   1.00
C152   C     0.81821   0.48691   0.92222   0.00000  Uiso   1.00
C153   C     0.85405   0.45721   0.81041   0.00000  Uiso   1.00
C154   C     0.94058   0.43187   0.77525   0.00000  Uiso   1.00
C155   C     0.96019   0.40694   0.67007   0.00000  Uiso   1.00
C156   C     0.77636   0.58709   0.91381   0.00000  Uiso   1.00
C157   C     0.79755   0.67095   0.96561   0.00000  Uiso   1.00
C158   C     0.75175   0.75536   0.94749   0.00000  Uiso   1.00
C159   C     0.74264   0.41699   0.95729   0.00000  Uiso   1.00
C160   C     0.73547   0.35785   0.04565   0.00000  Uiso   1.00
C161   C     0.66126   0.29907   0.06417   0.00000  Uiso   1.00
H162   H     0.64884   0.48802   0.74542   0.00000  Uiso   1.00
H163   H     0.75883   0.43307   0.58556   0.00000  Uiso   1.00
H164   H     0.61582   0.67211   0.77591   0.00000  Uiso   1.00
H165   H     0.55375   0.35906   0.85594   0.00000  Uiso   1.00
H166   H     0.90930   0.37199   0.43809   0.00000  Uiso   1.00
H167   H     0.60773   0.87602   0.83946   0.00000  Uiso   1.00
H168   H     0.47684   0.21589   0.00823   0.00000  Uiso   1.00
H169   H     0.86854   0.48659   0.97477   0.00000  Uiso   1.00
H170   H     0.99060   0.43155   0.82750   0.00000  Uiso   1.00
H171   H     0.84758   0.67060   0.01783   0.00000  Uiso   1.00
H172   H     0.78552   0.35755   0.09787   0.00000  Uiso   1.00
H173   H     0.09741   0.37077   0.63445   0.00000  Uiso   1.00
H174   H     0.79583   0.87479   0.03582   0.00000  Uiso   1.00
H175   H     0.66496   0.21466   0.20459   0.00000  Uiso   1.00
O176   O     0.07969   0.33523   0.43525   0.00000  Uiso   1.00
O177   O     0.68402   0.99649   0.96184   0.00000  Uiso   1.00
O178   O     0.51231   0.13041   0.18325   0.00000  Uiso   1.00
N179   N     0.93682   0.37924   0.50452   0.00000  Uiso   1.00
N180   N     0.65487   0.85047   0.87976   0.00000  Uiso   1.00
N181   N     0.53250   0.23333   0.03756   0.00000  Uiso   1.00
N182   N     0.03804   0.37858   0.61018   0.00000  Uiso   1.00
N183   N     0.75609   0.84981   0.98542   0.00000  Uiso   1.00
N184   N     0.63372   0.23267   0.14322   0.00000  Uiso   1.00
