data_job_01860
_audit_creation_date              2018-12-19
_audit_creation_method            'Materials Studio'
_symmetry_space_group_name_H-M    'P1'
_symmetry_Int_Tables_number       1
_symmetry_cell_setting            triclinic
loop_
_symmetry_equiv_pos_as_xyz
  x,y,z
_cell_length_a                    13.7033
_cell_length_b                    39.4530
_cell_length_c                    19.4978
_cell_angle_alpha                 90.0000
_cell_angle_beta                  90.0000
_cell_angle_gamma                 90.0000
loop_
_atom_site_label
_atom_site_type_symbol
_atom_site_fract_x
_atom_site_fract_y
_atom_site_fract_z
_atom_site_U_iso_or_equiv
_atom_site_adp_type
_atom_site_occupancy
C1     C     0.42900   0.33213   0.92980   0.00000  Uiso   1.00
C2     C     0.35712   0.32188   0.87381   0.00000  Uiso   1.00
C3     C     0.38132   0.31291   0.80712   0.00000  Uiso   1.00
C4     C     0.30493   0.30436   0.76365   0.00000  Uiso   1.00
C5     C     0.20808   0.28841   0.67328   0.00000  Uiso   1.00
C6     C     0.39653   0.36703   0.95442   0.00000  Uiso   1.00
C7     C     0.45386   0.39603   0.95552   0.00000  Uiso   1.00
C8     C     0.41065   0.42549   0.97992   0.00000  Uiso   1.00
C9     C     0.37499   0.47963   0.01475   0.00000  Uiso   1.00
C10    C     0.41092   0.30799   0.98954   0.00000  Uiso   1.00
C11    C     0.48035   0.28733   0.02018   0.00000  Uiso   1.00
C12    C     0.44926   0.26708   0.07416   0.00000  Uiso   1.00
C13    C     0.43594   0.22954   0.16352   0.00000  Uiso   1.00
C14    C     0.25032   0.33289   0.97120   0.00000  Uiso   1.00
C15    C     0.26007   0.32230   0.89630   0.00000  Uiso   1.00
C16    C     0.18363   0.31376   0.85292   0.00000  Uiso   1.00
C17    C     0.20771   0.30478   0.78618   0.00000  Uiso   1.00
C18    C     0.29948   0.36745   0.97691   0.00000  Uiso   1.00
C19    C     0.25617   0.39687   0.00132   0.00000  Uiso   1.00
C20    C     0.31342   0.42590   0.00245   0.00000  Uiso   1.00
C21    C     0.31386   0.30840   0.01203   0.00000  Uiso   1.00
C22    C     0.28266   0.28818   0.06598   0.00000  Uiso   1.00
C23    C     0.35203   0.26750   0.09669   0.00000  Uiso   1.00
H24    H     0.50456   0.33181   0.91230   0.00000  Uiso   1.00
H25    H     0.45643   0.31260   0.78974   0.00000  Uiso   1.00
H26    H     0.52897   0.39570   0.93812   0.00000  Uiso   1.00
H27    H     0.55545   0.28702   0.00276   0.00000  Uiso   1.00
H28    H     0.36027   0.29150   0.66376   0.00000  Uiso   1.00
H29    H     0.51322   0.46672   0.97666   0.00000  Uiso   1.00
H30    H     0.56907   0.23755   0.11298   0.00000  Uiso   1.00
H31    H     0.17476   0.33321   0.98871   0.00000  Uiso   1.00
H32    H     0.10853   0.31408   0.87034   0.00000  Uiso   1.00
H33    H     0.18107   0.39718   0.01872   0.00000  Uiso   1.00
H34    H     0.20755   0.28850   0.08337   0.00000  Uiso   1.00
H35    H     0.07790   0.29271   0.72918   0.00000  Uiso   1.00
H36    H     0.23086   0.46792   0.04209   0.00000  Uiso   1.00
H37    H     0.28670   0.23875   0.17840   0.00000  Uiso   1.00
O38    O     0.18146   0.27951   0.61722   0.00000  Uiso   1.00
O39    O     0.38214   0.50938   0.02774   0.00000  Uiso   1.00
O40    O     0.45541   0.20872   0.20659   0.00000  Uiso   1.00
N41    N     0.30290   0.29440   0.69541   0.00000  Uiso   1.00
N42    N     0.44590   0.45822   0.98794   0.00000  Uiso   1.00
N43    N     0.49812   0.24398   0.11540   0.00000  Uiso   1.00
N44    N     0.15096   0.29505   0.73061   0.00000  Uiso   1.00
N45    N     0.29396   0.45887   0.02314   0.00000  Uiso   1.00
N46    N     0.34618   0.24462   0.15060   0.00000  Uiso   1.00
C47    C     0.07100   0.66787   0.92980   0.00000  Uiso   1.00
C48    C     0.14288   0.67812   0.87381   0.00000  Uiso   1.00
C49    C     0.11868   0.68709   0.80712   0.00000  Uiso   1.00
C50    C     0.19507   0.69564   0.76365   0.00000  Uiso   1.00
C51    C     0.29192   0.71159   0.67328   0.00000  Uiso   1.00
C52    C     0.10347   0.63297   0.95442   0.00000  Uiso   1.00
C53    C     0.04614   0.60397   0.95552   0.00000  Uiso   1.00
C54    C     0.08935   0.57451   0.97992   0.00000  Uiso   1.00
C55    C     0.12501   0.52037   0.01475   0.00000  Uiso   1.00
C56    C     0.08908   0.69201   0.98954   0.00000  Uiso   1.00
C57    C     0.01965   0.71267   0.02018   0.00000  Uiso   1.00
C58    C     0.05074   0.73292   0.07416   0.00000  Uiso   1.00
C59    C     0.06406   0.77046   0.16352   0.00000  Uiso   1.00
C60    C     0.24968   0.66711   0.97120   0.00000  Uiso   1.00
C61    C     0.23993   0.67770   0.89630   0.00000  Uiso   1.00
C62    C     0.31637   0.68624   0.85292   0.00000  Uiso   1.00
C63    C     0.29229   0.69522   0.78618   0.00000  Uiso   1.00
C64    C     0.20052   0.63255   0.97691   0.00000  Uiso   1.00
C65    C     0.24383   0.60313   0.00132   0.00000  Uiso   1.00
C66    C     0.18658   0.57410   0.00245   0.00000  Uiso   1.00
C67    C     0.18614   0.69160   0.01203   0.00000  Uiso   1.00
C68    C     0.21734   0.71182   0.06598   0.00000  Uiso   1.00
C69    C     0.14797   0.73250   0.09669   0.00000  Uiso   1.00
H70    H     0.99544   0.66819   0.91230   0.00000  Uiso   1.00
H71    H     0.04357   0.68740   0.78974   0.00000  Uiso   1.00
H72    H     0.97103   0.60430   0.93812   0.00000  Uiso   1.00
H73    H     0.94455   0.71298   0.00276   0.00000  Uiso   1.00
H74    H     0.13973   0.70850   0.66376   0.00000  Uiso   1.00
H75    H     0.98678   0.53328   0.97666   0.00000  Uiso   1.00
H76    H     0.93093   0.76245   0.11298   0.00000  Uiso   1.00
H77    H     0.32524   0.66679   0.98871   0.00000  Uiso   1.00
H78    H     0.39147   0.68592   0.87034   0.00000  Uiso   1.00
H79    H     0.31893   0.60282   0.01872   0.00000  Uiso   1.00
H80    H     0.29245   0.71150   0.08337   0.00000  Uiso   1.00
H81    H     0.42210   0.70729   0.72918   0.00000  Uiso   1.00
H82    H     0.26914   0.53208   0.04209   0.00000  Uiso   1.00
H83    H     0.21330   0.76125   0.17840   0.00000  Uiso   1.00
O84    O     0.31854   0.72049   0.61722   0.00000  Uiso   1.00
O85    O     0.11786   0.49062   0.02774   0.00000  Uiso   1.00
O86    O     0.04459   0.79128   0.20659   0.00000  Uiso   1.00
N87    N     0.19710   0.70560   0.69541   0.00000  Uiso   1.00
N88    N     0.05410   0.54178   0.98794   0.00000  Uiso   1.00
N89    N     0.00188   0.75602   0.11540   0.00000  Uiso   1.00
N90    N     0.34904   0.70495   0.73061   0.00000  Uiso   1.00
N91    N     0.20604   0.54113   0.02314   0.00000  Uiso   1.00
N92    N     0.15382   0.75538   0.15060   0.00000  Uiso   1.00
C93    C     0.07100   0.83213   0.57020   0.00000  Uiso   1.00
C94    C     0.14288   0.82188   0.62619   0.00000  Uiso   1.00
C95    C     0.11868   0.81291   0.69288   0.00000  Uiso   1.00
C96    C     0.19507   0.80436   0.73635   0.00000  Uiso   1.00
C97    C     0.29192   0.78841   0.82672   0.00000  Uiso   1.00
C98    C     0.10347   0.86703   0.54558   0.00000  Uiso   1.00
C99    C     0.04614   0.89603   0.54448   0.00000  Uiso   1.00
C100   C     0.08935   0.92549   0.52008   0.00000  Uiso   1.00
C101   C     0.12501   0.97963   0.48525   0.00000  Uiso   1.00
C102   C     0.08908   0.80799   0.51046   0.00000  Uiso   1.00
C103   C     0.01965   0.78733   0.47982   0.00000  Uiso   1.00
C104   C     0.05074   0.76708   0.42584   0.00000  Uiso   1.00
C105   C     0.06406   0.72954   0.33648   0.00000  Uiso   1.00
C106   C     0.24968   0.83289   0.52880   0.00000  Uiso   1.00
C107   C     0.23993   0.82230   0.60370   0.00000  Uiso   1.00
C108   C     0.31637   0.81376   0.64708   0.00000  Uiso   1.00
C109   C     0.29229   0.80478   0.71382   0.00000  Uiso   1.00
C110   C     0.20052   0.86745   0.52309   0.00000  Uiso   1.00
C111   C     0.24383   0.89687   0.49868   0.00000  Uiso   1.00
C112   C     0.18658   0.92590   0.49755   0.00000  Uiso   1.00
C113   C     0.18614   0.80840   0.48797   0.00000  Uiso   1.00
C114   C     0.21734   0.78818   0.43402   0.00000  Uiso   1.00
C115   C     0.14797   0.76750   0.40331   0.00000  Uiso   1.00
H116   H     0.99544   0.83181   0.58770   0.00000  Uiso   1.00
H117   H     0.04357   0.81260   0.71026   0.00000  Uiso   1.00
H118   H     0.97103   0.89570   0.56188   0.00000  Uiso   1.00
H119   H     0.94455   0.78702   0.49724   0.00000  Uiso   1.00
H120   H     0.13973   0.79150   0.83624   0.00000  Uiso   1.00
H121   H     0.98678   0.96672   0.52334   0.00000  Uiso   1.00
H122   H     0.93093   0.73755   0.38702   0.00000  Uiso   1.00
H123   H     0.32524   0.83321   0.51129   0.00000  Uiso   1.00
H124   H     0.39147   0.81408   0.62966   0.00000  Uiso   1.00
H125   H     0.31893   0.89718   0.48128   0.00000  Uiso   1.00
H126   H     0.29245   0.78850   0.41663   0.00000  Uiso   1.00
H127   H     0.42210   0.79271   0.77082   0.00000  Uiso   1.00
H128   H     0.26914   0.96792   0.45791   0.00000  Uiso   1.00
H129   H     0.21330   0.73875   0.32160   0.00000  Uiso   1.00
O130   O     0.31854   0.77951   0.88278   0.00000  Uiso   1.00
O131   O     0.11786   0.00938   0.47226   0.00000  Uiso   1.00
O132   O     0.04459   0.70872   0.29341   0.00000  Uiso   1.00
N133   N     0.19710   0.79440   0.80459   0.00000  Uiso   1.00
N134   N     0.05410   0.95822   0.51206   0.00000  Uiso   1.00
N135   N     0.00188   0.74398   0.38460   0.00000  Uiso   1.00
N136   N     0.34904   0.79505   0.76939   0.00000  Uiso   1.00
N137   N     0.20604   0.95887   0.47686   0.00000  Uiso   1.00
N138   N     0.15382   0.74462   0.34940   0.00000  Uiso   1.00
C139   C     0.42900   0.16787   0.57020   0.00000  Uiso   1.00
C140   C     0.35712   0.17812   0.62619   0.00000  Uiso   1.00
C141   C     0.38132   0.18709   0.69288   0.00000  Uiso   1.00
C142   C     0.30493   0.19564   0.73635   0.00000  Uiso   1.00
C143   C     0.20808   0.21159   0.82672   0.00000  Uiso   1.00
C144   C     0.39653   0.13297   0.54558   0.00000  Uiso   1.00
C145   C     0.45386   0.10397   0.54448   0.00000  Uiso   1.00
C146   C     0.41065   0.07451   0.52008   0.00000  Uiso   1.00
C147   C     0.37499   0.02037   0.48525   0.00000  Uiso   1.00
C148   C     0.41092   0.19201   0.51046   0.00000  Uiso   1.00
C149   C     0.48035   0.21267   0.47982   0.00000  Uiso   1.00
C150   C     0.44926   0.23292   0.42584   0.00000  Uiso   1.00
C151   C     0.43594   0.27046   0.33648   0.00000  Uiso   1.00
C152   C     0.25032   0.16711   0.52880   0.00000  Uiso   1.00
C153   C     0.26007   0.17770   0.60370   0.00000  Uiso   1.00
C154   C     0.18363   0.18624   0.64708   0.00000  Uiso   1.00
C155   C     0.20771   0.19522   0.71382   0.00000  Uiso   1.00
C156   C     0.29948   0.13255   0.52309   0.00000  Uiso   1.00
C157   C     0.25617   0.10313   0.49868   0.00000  Uiso   1.00
C158   C     0.31342   0.07410   0.49755   0.00000  Uiso   1.00
C159   C     0.31386   0.19160   0.48797   0.00000  Uiso   1.00
C160   C     0.28266   0.21182   0.43402   0.00000  Uiso   1.00
C161   C     0.35203   0.23250   0.40331   0.00000  Uiso   1.00
H162   H     0.50456   0.16819   0.58770   0.00000  Uiso   1.00
H163   H     0.45643   0.18740   0.71026   0.00000  Uiso   1.00
H164   H     0.52897   0.10430   0.56188   0.00000  Uiso   1.00
H165   H     0.55545   0.21298   0.49724   0.00000  Uiso   1.00
H166   H     0.36027   0.20850   0.83624   0.00000  Uiso   1.00
H167   H     0.51322   0.03328   0.52334   0.00000  Uiso   1.00
H168   H     0.56907   0.26245   0.38702   0.00000  Uiso   1.00
H169   H     0.17476   0.16679   0.51129   0.00000  Uiso   1.00
H170   H     0.10853   0.18592   0.62966   0.00000  Uiso   1.00
H171   H     0.18107   0.10282   0.48128   0.00000  Uiso   1.00
H172   H     0.20755   0.21150   0.41663   0.00000  Uiso   1.00
H173   H     0.07790   0.20729   0.77082   0.00000  Uiso   1.00
H174   H     0.23086   0.03208   0.45791   0.00000  Uiso   1.00
H175   H     0.28670   0.26125   0.32160   0.00000  Uiso   1.00
O176   O     0.18146   0.22049   0.88278   0.00000  Uiso   1.00
O177   O     0.38214   0.99062   0.47226   0.00000  Uiso   1.00
O178   O     0.45541   0.29128   0.29341   0.00000  Uiso   1.00
N179   N     0.30290   0.20560   0.80459   0.00000  Uiso   1.00
N180   N     0.44590   0.04178   0.51206   0.00000  Uiso   1.00
N181   N     0.49812   0.25602   0.38460   0.00000  Uiso   1.00
N182   N     0.15096   0.20495   0.76939   0.00000  Uiso   1.00
N183   N     0.29396   0.04113   0.47686   0.00000  Uiso   1.00
N184   N     0.34618   0.25538   0.34940   0.00000  Uiso   1.00
C185   C     0.57100   0.66787   0.07020   0.00000  Uiso   1.00
C186   C     0.64288   0.67812   0.12619   0.00000  Uiso   1.00
C187   C     0.61868   0.68709   0.19288   0.00000  Uiso   1.00
C188   C     0.69507   0.69564   0.23635   0.00000  Uiso   1.00
C189   C     0.79192   0.71159   0.32672   0.00000  Uiso   1.00
C190   C     0.60347   0.63297   0.04558   0.00000  Uiso   1.00
C191   C     0.54614   0.60397   0.04448   0.00000  Uiso   1.00
C192   C     0.58935   0.57451   0.02008   0.00000  Uiso   1.00
C193   C     0.62501   0.52037   0.98525   0.00000  Uiso   1.00
C194   C     0.58908   0.69201   0.01046   0.00000  Uiso   1.00
C195   C     0.51965   0.71267   0.97982   0.00000  Uiso   1.00
C196   C     0.55074   0.73292   0.92584   0.00000  Uiso   1.00
C197   C     0.56406   0.77046   0.83648   0.00000  Uiso   1.00
C198   C     0.74968   0.66711   0.02880   0.00000  Uiso   1.00
C199   C     0.73993   0.67770   0.10370   0.00000  Uiso   1.00
C200   C     0.81637   0.68624   0.14708   0.00000  Uiso   1.00
C201   C     0.79229   0.69522   0.21382   0.00000  Uiso   1.00
C202   C     0.70052   0.63255   0.02309   0.00000  Uiso   1.00
C203   C     0.74383   0.60313   0.99868   0.00000  Uiso   1.00
C204   C     0.68658   0.57410   0.99755   0.00000  Uiso   1.00
C205   C     0.68614   0.69160   0.98797   0.00000  Uiso   1.00
C206   C     0.71734   0.71182   0.93402   0.00000  Uiso   1.00
C207   C     0.64797   0.73250   0.90331   0.00000  Uiso   1.00
H208   H     0.49544   0.66819   0.08770   0.00000  Uiso   1.00
H209   H     0.54357   0.68740   0.21026   0.00000  Uiso   1.00
H210   H     0.47103   0.60430   0.06188   0.00000  Uiso   1.00
H211   H     0.44455   0.71298   0.99724   0.00000  Uiso   1.00
H212   H     0.63973   0.70850   0.33624   0.00000  Uiso   1.00
H213   H     0.48678   0.53328   0.02334   0.00000  Uiso   1.00
H214   H     0.43093   0.76245   0.88702   0.00000  Uiso   1.00
H215   H     0.82524   0.66679   0.01129   0.00000  Uiso   1.00
H216   H     0.89147   0.68592   0.12966   0.00000  Uiso   1.00
H217   H     0.81893   0.60282   0.98128   0.00000  Uiso   1.00
H218   H     0.79245   0.71150   0.91663   0.00000  Uiso   1.00
H219   H     0.92210   0.70729   0.27082   0.00000  Uiso   1.00
H220   H     0.76914   0.53208   0.95791   0.00000  Uiso   1.00
H221   H     0.71330   0.76125   0.82160   0.00000  Uiso   1.00
O222   O     0.81854   0.72049   0.38278   0.00000  Uiso   1.00
O223   O     0.61786   0.49062   0.97226   0.00000  Uiso   1.00
O224   O     0.54459   0.79128   0.79341   0.00000  Uiso   1.00
N225   N     0.69710   0.70560   0.30459   0.00000  Uiso   1.00
N226   N     0.55410   0.54178   0.01206   0.00000  Uiso   1.00
N227   N     0.50188   0.75602   0.88460   0.00000  Uiso   1.00
N228   N     0.84904   0.70495   0.26939   0.00000  Uiso   1.00
N229   N     0.70604   0.54113   0.97686   0.00000  Uiso   1.00
N230   N     0.65382   0.75538   0.84940   0.00000  Uiso   1.00
C231   C     0.92900   0.33213   0.07020   0.00000  Uiso   1.00
C232   C     0.85712   0.32188   0.12619   0.00000  Uiso   1.00
C233   C     0.88132   0.31291   0.19288   0.00000  Uiso   1.00
C234   C     0.80493   0.30436   0.23635   0.00000  Uiso   1.00
C235   C     0.70808   0.28841   0.32672   0.00000  Uiso   1.00
C236   C     0.89653   0.36703   0.04558   0.00000  Uiso   1.00
C237   C     0.95386   0.39603   0.04448   0.00000  Uiso   1.00
C238   C     0.91065   0.42549   0.02008   0.00000  Uiso   1.00
C239   C     0.87499   0.47963   0.98525   0.00000  Uiso   1.00
C240   C     0.91092   0.30799   0.01046   0.00000  Uiso   1.00
C241   C     0.98035   0.28733   0.97982   0.00000  Uiso   1.00
C242   C     0.94926   0.26708   0.92584   0.00000  Uiso   1.00
C243   C     0.93594   0.22954   0.83648   0.00000  Uiso   1.00
C244   C     0.75032   0.33289   0.02880   0.00000  Uiso   1.00
C245   C     0.76007   0.32230   0.10370   0.00000  Uiso   1.00
C246   C     0.68363   0.31376   0.14708   0.00000  Uiso   1.00
C247   C     0.70771   0.30478   0.21382   0.00000  Uiso   1.00
C248   C     0.79948   0.36745   0.02309   0.00000  Uiso   1.00
C249   C     0.75617   0.39687   0.99868   0.00000  Uiso   1.00
C250   C     0.81342   0.42590   0.99755   0.00000  Uiso   1.00
C251   C     0.81386   0.30840   0.98797   0.00000  Uiso   1.00
C252   C     0.78266   0.28818   0.93402   0.00000  Uiso   1.00
C253   C     0.85203   0.26750   0.90331   0.00000  Uiso   1.00
H254   H     0.00456   0.33181   0.08770   0.00000  Uiso   1.00
H255   H     0.95643   0.31260   0.21026   0.00000  Uiso   1.00
H256   H     0.02897   0.39570   0.06188   0.00000  Uiso   1.00
H257   H     0.05545   0.28702   0.99724   0.00000  Uiso   1.00
H258   H     0.86027   0.29150   0.33624   0.00000  Uiso   1.00
H259   H     0.01322   0.46672   0.02334   0.00000  Uiso   1.00
H260   H     0.06907   0.23755   0.88702   0.00000  Uiso   1.00
H261   H     0.67476   0.33321   0.01129   0.00000  Uiso   1.00
H262   H     0.60853   0.31408   0.12966   0.00000  Uiso   1.00
H263   H     0.68107   0.39718   0.98128   0.00000  Uiso   1.00
H264   H     0.70755   0.28850   0.91663   0.00000  Uiso   1.00
H265   H     0.57790   0.29271   0.27082   0.00000  Uiso   1.00
H266   H     0.73086   0.46792   0.95791   0.00000  Uiso   1.00
H267   H     0.78670   0.23875   0.82160   0.00000  Uiso   1.00
O268   O     0.68146   0.27951   0.38278   0.00000  Uiso   1.00
O269   O     0.88214   0.50938   0.97226   0.00000  Uiso   1.00
O270   O     0.95541   0.20872   0.79341   0.00000  Uiso   1.00
N271   N     0.80290   0.29440   0.30459   0.00000  Uiso   1.00
N272   N     0.94590   0.45822   0.01206   0.00000  Uiso   1.00
N273   N     0.99812   0.24398   0.88460   0.00000  Uiso   1.00
N274   N     0.65096   0.29505   0.26939   0.00000  Uiso   1.00
N275   N     0.79396   0.45887   0.97686   0.00000  Uiso   1.00
N276   N     0.84618   0.24462   0.84940   0.00000  Uiso   1.00
C277   C     0.92900   0.16787   0.42980   0.00000  Uiso   1.00
C278   C     0.85712   0.17812   0.37381   0.00000  Uiso   1.00
C279   C     0.88132   0.18709   0.30712   0.00000  Uiso   1.00
C280   C     0.80493   0.19564   0.26365   0.00000  Uiso   1.00
C281   C     0.70808   0.21159   0.17328   0.00000  Uiso   1.00
C282   C     0.89653   0.13297   0.45442   0.00000  Uiso   1.00
C283   C     0.95386   0.10397   0.45552   0.00000  Uiso   1.00
C284   C     0.91065   0.07451   0.47992   0.00000  Uiso   1.00
C285   C     0.87499   0.02037   0.51475   0.00000  Uiso   1.00
C286   C     0.91092   0.19201   0.48954   0.00000  Uiso   1.00
C287   C     0.98035   0.21267   0.52018   0.00000  Uiso   1.00
C288   C     0.94926   0.23292   0.57416   0.00000  Uiso   1.00
C289   C     0.93594   0.27046   0.66352   0.00000  Uiso   1.00
C290   C     0.75032   0.16711   0.47120   0.00000  Uiso   1.00
C291   C     0.76007   0.17770   0.39630   0.00000  Uiso   1.00
C292   C     0.68363   0.18624   0.35292   0.00000  Uiso   1.00
C293   C     0.70771   0.19522   0.28618   0.00000  Uiso   1.00
C294   C     0.79948   0.13255   0.47691   0.00000  Uiso   1.00
C295   C     0.75617   0.10313   0.50132   0.00000  Uiso   1.00
C296   C     0.81342   0.07410   0.50245   0.00000  Uiso   1.00
C297   C     0.81386   0.19160   0.51203   0.00000  Uiso   1.00
C298   C     0.78266   0.21182   0.56598   0.00000  Uiso   1.00
C299   C     0.85203   0.23250   0.59669   0.00000  Uiso   1.00
H300   H     0.00456   0.16819   0.41230   0.00000  Uiso   1.00
H301   H     0.95643   0.18740   0.28974   0.00000  Uiso   1.00
H302   H     0.02897   0.10430   0.43812   0.00000  Uiso   1.00
H303   H     0.05545   0.21298   0.50276   0.00000  Uiso   1.00
H304   H     0.86027   0.20850   0.16376   0.00000  Uiso   1.00
H305   H     0.01322   0.03328   0.47666   0.00000  Uiso   1.00
H306   H     0.06907   0.26245   0.61298   0.00000  Uiso   1.00
H307   H     0.67476   0.16679   0.48871   0.00000  Uiso   1.00
H308   H     0.60853   0.18592   0.37034   0.00000  Uiso   1.00
H309   H     0.68107   0.10282   0.51872   0.00000  Uiso   1.00
H310   H     0.70755   0.21150   0.58337   0.00000  Uiso   1.00
H311   H     0.57790   0.20729   0.22918   0.00000  Uiso   1.00
H312   H     0.73086   0.03208   0.54209   0.00000  Uiso   1.00
H313   H     0.78670   0.26125   0.67840   0.00000  Uiso   1.00
O314   O     0.68146   0.22049   0.11722   0.00000  Uiso   1.00
O315   O     0.88214   0.99062   0.52774   0.00000  Uiso   1.00
O316   O     0.95541   0.29128   0.70659   0.00000  Uiso   1.00
N317   N     0.80290   0.20560   0.19541   0.00000  Uiso   1.00
N318   N     0.94590   0.04178   0.48794   0.00000  Uiso   1.00
N319   N     0.99812   0.25602   0.61540   0.00000  Uiso   1.00
N320   N     0.65096   0.20495   0.23061   0.00000  Uiso   1.00
N321   N     0.79396   0.04113   0.52314   0.00000  Uiso   1.00
N322   N     0.84618   0.25538   0.65060   0.00000  Uiso   1.00
C323   C     0.57100   0.83213   0.42980   0.00000  Uiso   1.00
C324   C     0.64288   0.82188   0.37381   0.00000  Uiso   1.00
C325   C     0.61868   0.81291   0.30712   0.00000  Uiso   1.00
C326   C     0.69507   0.80436   0.26365   0.00000  Uiso   1.00
C327   C     0.79192   0.78841   0.17328   0.00000  Uiso   1.00
C328   C     0.60347   0.86703   0.45442   0.00000  Uiso   1.00
C329   C     0.54614   0.89603   0.45552   0.00000  Uiso   1.00
C330   C     0.58935   0.92549   0.47992   0.00000  Uiso   1.00
C331   C     0.62501   0.97963   0.51475   0.00000  Uiso   1.00
C332   C     0.58908   0.80799   0.48954   0.00000  Uiso   1.00
C333   C     0.51965   0.78733   0.52018   0.00000  Uiso   1.00
C334   C     0.55074   0.76708   0.57416   0.00000  Uiso   1.00
C335   C     0.56406   0.72954   0.66352   0.00000  Uiso   1.00
C336   C     0.74968   0.83289   0.47120   0.00000  Uiso   1.00
C337   C     0.73993   0.82230   0.39630   0.00000  Uiso   1.00
C338   C     0.81637   0.81376   0.35292   0.00000  Uiso   1.00
C339   C     0.79229   0.80478   0.28618   0.00000  Uiso   1.00
C340   C     0.70052   0.86745   0.47691   0.00000  Uiso   1.00
C341   C     0.74383   0.89687   0.50132   0.00000  Uiso   1.00
C342   C     0.68658   0.92590   0.50245   0.00000  Uiso   1.00
C343   C     0.68614   0.80840   0.51203   0.00000  Uiso   1.00
C344   C     0.71734   0.78818   0.56598   0.00000  Uiso   1.00
C345   C     0.64797   0.76750   0.59669   0.00000  Uiso   1.00
H346   H     0.49544   0.83181   0.41230   0.00000  Uiso   1.00
H347   H     0.54357   0.81260   0.28974   0.00000  Uiso   1.00
H348   H     0.47103   0.89570   0.43812   0.00000  Uiso   1.00
H349   H     0.44455   0.78702   0.50276   0.00000  Uiso   1.00
H350   H     0.63973   0.79150   0.16376   0.00000  Uiso   1.00
H351   H     0.48678   0.96672   0.47666   0.00000  Uiso   1.00
H352   H     0.43093   0.73755   0.61298   0.00000  Uiso   1.00
H353   H     0.82524   0.83321   0.48871   0.00000  Uiso   1.00
H354   H     0.89147   0.81408   0.37034   0.00000  Uiso   1.00
H355   H     0.81893   0.89718   0.51872   0.00000  Uiso   1.00
H356   H     0.79245   0.78850   0.58337   0.00000  Uiso   1.00
H357   H     0.92210   0.79271   0.22918   0.00000  Uiso   1.00
H358   H     0.76914   0.96792   0.54209   0.00000  Uiso   1.00
H359   H     0.71330   0.73875   0.67840   0.00000  Uiso   1.00
O360   O     0.81854   0.77951   0.11722   0.00000  Uiso   1.00
O361   O     0.61786   0.00938   0.52774   0.00000  Uiso   1.00
O362   O     0.54459   0.70872   0.70659   0.00000  Uiso   1.00
N363   N     0.69710   0.79440   0.19541   0.00000  Uiso   1.00
N364   N     0.55410   0.95822   0.48794   0.00000  Uiso   1.00
N365   N     0.50188   0.74398   0.61540   0.00000  Uiso   1.00
N366   N     0.84904   0.79505   0.23061   0.00000  Uiso   1.00
N367   N     0.70604   0.95887   0.52314   0.00000  Uiso   1.00
N368   N     0.65382   0.74462   0.65060   0.00000  Uiso   1.00
