data_job_00631
_audit_creation_date              2018-12-19
_audit_creation_method            'Materials Studio'
_symmetry_space_group_name_H-M    'P1'
_symmetry_Int_Tables_number       1
_symmetry_cell_setting            triclinic
loop_
_symmetry_equiv_pos_as_xyz
  x,y,z
_cell_length_a                    14.0114
_cell_length_b                    19.5221
_cell_length_c                    23.1826
_cell_angle_alpha                 90.0000
_cell_angle_beta                  90.0000
_cell_angle_gamma                 90.0000
loop_
_atom_site_label
_atom_site_type_symbol
_atom_site_fract_x
_atom_site_fract_y
_atom_site_fract_z
_atom_site_U_iso_or_equiv
_atom_site_adp_type
_atom_site_occupancy
C1     C     0.93148   0.66689   0.60425   0.00000  Uiso   1.00
C2     C     0.03010   0.64743   0.62674   0.00000  Uiso   1.00
C3     C     0.05928   0.58198   0.64207   0.00000  Uiso   1.00
C4     C     0.15237   0.57479   0.66168   0.00000  Uiso   1.00
C5     C     0.29611   0.53601   0.69601   0.00000  Uiso   1.00
C6     C     0.89416   0.72221   0.64485   0.00000  Uiso   1.00
C7     C     0.80905   0.71965   0.67540   0.00000  Uiso   1.00
C8     C     0.78770   0.77542   0.71025   0.00000  Uiso   1.00
C9     C     0.72036   0.85276   0.77265   0.00000  Uiso   1.00
C10    C     0.94790   0.70205   0.54636   0.00000  Uiso   1.00
C11    C     0.90796   0.68255   0.49410   0.00000  Uiso   1.00
C12    C     0.93185   0.72136   0.44603   0.00000  Uiso   1.00
C13    C     0.94796   0.76740   0.35551   0.00000  Uiso   1.00
C14    C     0.04489   0.77051   0.61182   0.00000  Uiso   1.00
C15    C     0.09169   0.70371   0.63085   0.00000  Uiso   1.00
C16    C     0.18477   0.69662   0.65045   0.00000  Uiso   1.00
C17    C     0.21409   0.63117   0.66580   0.00000  Uiso   1.00
C18    C     0.95576   0.77849   0.64896   0.00000  Uiso   1.00
C19    C     0.93453   0.83428   0.68377   0.00000  Uiso   1.00
C20    C     0.84941   0.83180   0.71437   0.00000  Uiso   1.00
C21    C     0.00951   0.75833   0.55047   0.00000  Uiso   1.00
C22    C     0.03345   0.79718   0.50248   0.00000  Uiso   1.00
C23    C     0.99356   0.77774   0.45015   0.00000  Uiso   1.00
H24    H     0.88352   0.62308   0.60105   0.00000  Uiso   1.00
H25    H     0.01159   0.53844   0.63889   0.00000  Uiso   1.00
H26    H     0.76139   0.67609   0.67220   0.00000  Uiso   1.00
H27    H     0.86029   0.63900   0.49093   0.00000  Uiso   1.00
H28    H     0.18073   0.46943   0.68267   0.00000  Uiso   1.00
H29    H     0.65316   0.75967   0.75290   0.00000  Uiso   1.00
H30    H     0.86172   0.68146   0.37066   0.00000  Uiso   1.00
H31    H     0.09286   0.81433   0.61502   0.00000  Uiso   1.00
H32    H     0.23242   0.74018   0.65362   0.00000  Uiso   1.00
H33    H     0.98222   0.87783   0.68694   0.00000  Uiso   1.00
H34    H     0.08112   0.84073   0.50567   0.00000  Uiso   1.00
H35    H     0.35997   0.63316   0.69463   0.00000  Uiso   1.00
H36    H     0.83239   0.92341   0.76486   0.00000  Uiso   1.00
H37    H     0.04095   0.84519   0.38262   0.00000  Uiso   1.00
O38    O     0.35837   0.49907   0.71381   0.00000  Uiso   1.00
O39    O     0.66621   0.87987   0.80594   0.00000  Uiso   1.00
O40    O     0.93983   0.77725   0.30445   0.00000  Uiso   1.00
N41    N     0.20377   0.51814   0.68017   0.00000  Uiso   1.00
N42    N     0.71052   0.78949   0.74585   0.00000  Uiso   1.00
N43    N     0.90549   0.71638   0.38848   0.00000  Uiso   1.00
N44    N     0.30021   0.60624   0.68661   0.00000  Uiso   1.00
N45    N     0.80697   0.87760   0.75228   0.00000  Uiso   1.00
N46    N     0.00193   0.80448   0.39492   0.00000  Uiso   1.00
C47    C     0.56852   0.83311   0.10425   0.00000  Uiso   1.00
C48    C     0.46990   0.85257   0.12674   0.00000  Uiso   1.00
C49    C     0.44072   0.91802   0.14207   0.00000  Uiso   1.00
C50    C     0.34763   0.92521   0.16168   0.00000  Uiso   1.00
C51    C     0.20389   0.96399   0.19601   0.00000  Uiso   1.00
C52    C     0.60584   0.77779   0.14485   0.00000  Uiso   1.00
C53    C     0.69095   0.78035   0.17540   0.00000  Uiso   1.00
C54    C     0.71230   0.72458   0.21025   0.00000  Uiso   1.00
C55    C     0.77964   0.64724   0.27265   0.00000  Uiso   1.00
C56    C     0.55210   0.79795   0.04636   0.00000  Uiso   1.00
C57    C     0.59204   0.81745   0.99410   0.00000  Uiso   1.00
C58    C     0.56815   0.77864   0.94603   0.00000  Uiso   1.00
C59    C     0.55204   0.73260   0.85551   0.00000  Uiso   1.00
C60    C     0.45511   0.72949   0.11182   0.00000  Uiso   1.00
C61    C     0.40831   0.79629   0.13085   0.00000  Uiso   1.00
C62    C     0.31523   0.80338   0.15045   0.00000  Uiso   1.00
C63    C     0.28591   0.86883   0.16580   0.00000  Uiso   1.00
C64    C     0.54424   0.72151   0.14896   0.00000  Uiso   1.00
C65    C     0.56547   0.66572   0.18377   0.00000  Uiso   1.00
C66    C     0.65059   0.66820   0.21437   0.00000  Uiso   1.00
C67    C     0.49049   0.74167   0.05047   0.00000  Uiso   1.00
C68    C     0.46655   0.70282   0.00248   0.00000  Uiso   1.00
C69    C     0.50644   0.72226   0.95015   0.00000  Uiso   1.00
H70    H     0.61648   0.87692   0.10105   0.00000  Uiso   1.00
H71    H     0.48841   0.96156   0.13889   0.00000  Uiso   1.00
H72    H     0.73861   0.82391   0.17220   0.00000  Uiso   1.00
H73    H     0.63971   0.86100   0.99093   0.00000  Uiso   1.00
H74    H     0.31927   0.03057   0.18267   0.00000  Uiso   1.00
H75    H     0.84684   0.74033   0.25290   0.00000  Uiso   1.00
H76    H     0.63828   0.81854   0.87066   0.00000  Uiso   1.00
H77    H     0.40714   0.68567   0.11502   0.00000  Uiso   1.00
H78    H     0.26758   0.75982   0.15362   0.00000  Uiso   1.00
H79    H     0.51778   0.62217   0.18694   0.00000  Uiso   1.00
H80    H     0.41888   0.65927   0.00567   0.00000  Uiso   1.00
H81    H     0.14003   0.86684   0.19463   0.00000  Uiso   1.00
H82    H     0.66761   0.57659   0.26486   0.00000  Uiso   1.00
H83    H     0.45905   0.65481   0.88262   0.00000  Uiso   1.00
O84    O     0.14163   0.00093   0.21381   0.00000  Uiso   1.00
O85    O     0.83379   0.62013   0.30594   0.00000  Uiso   1.00
O86    O     0.56017   0.72275   0.80445   0.00000  Uiso   1.00
N87    N     0.29623   0.98186   0.18017   0.00000  Uiso   1.00
N88    N     0.78948   0.71051   0.24585   0.00000  Uiso   1.00
N89    N     0.59451   0.78362   0.88848   0.00000  Uiso   1.00
N90    N     0.19979   0.89376   0.18661   0.00000  Uiso   1.00
N91    N     0.69303   0.62240   0.25228   0.00000  Uiso   1.00
N92    N     0.49807   0.69552   0.89492   0.00000  Uiso   1.00
C93    C     0.06852   0.66689   0.89575   0.00000  Uiso   1.00
C94    C     0.96990   0.64743   0.87326   0.00000  Uiso   1.00
C95    C     0.94072   0.58198   0.85793   0.00000  Uiso   1.00
C96    C     0.84763   0.57479   0.83832   0.00000  Uiso   1.00
C97    C     0.70389   0.53601   0.80399   0.00000  Uiso   1.00
C98    C     0.10584   0.72221   0.85515   0.00000  Uiso   1.00
C99    C     0.19095   0.71965   0.82460   0.00000  Uiso   1.00
C100   C     0.21230   0.77542   0.78975   0.00000  Uiso   1.00
C101   C     0.27964   0.85276   0.72735   0.00000  Uiso   1.00
C102   C     0.05210   0.70205   0.95364   0.00000  Uiso   1.00
C103   C     0.09204   0.68255   0.00590   0.00000  Uiso   1.00
C104   C     0.06815   0.72136   0.05397   0.00000  Uiso   1.00
C105   C     0.05204   0.76740   0.14449   0.00000  Uiso   1.00
C106   C     0.95511   0.77051   0.88818   0.00000  Uiso   1.00
C107   C     0.90831   0.70371   0.86915   0.00000  Uiso   1.00
C108   C     0.81523   0.69662   0.84955   0.00000  Uiso   1.00
C109   C     0.78591   0.63117   0.83420   0.00000  Uiso   1.00
C110   C     0.04424   0.77849   0.85104   0.00000  Uiso   1.00
C111   C     0.06547   0.83428   0.81623   0.00000  Uiso   1.00
C112   C     0.15059   0.83180   0.78563   0.00000  Uiso   1.00
C113   C     0.99049   0.75833   0.94953   0.00000  Uiso   1.00
C114   C     0.96655   0.79718   0.99752   0.00000  Uiso   1.00
C115   C     0.00644   0.77774   0.04985   0.00000  Uiso   1.00
H116   H     0.11648   0.62308   0.89895   0.00000  Uiso   1.00
H117   H     0.98841   0.53844   0.86111   0.00000  Uiso   1.00
H118   H     0.23861   0.67609   0.82780   0.00000  Uiso   1.00
H119   H     0.13971   0.63900   0.00907   0.00000  Uiso   1.00
H120   H     0.81927   0.46943   0.81733   0.00000  Uiso   1.00
H121   H     0.34684   0.75967   0.74710   0.00000  Uiso   1.00
H122   H     0.13828   0.68146   0.12934   0.00000  Uiso   1.00
H123   H     0.90714   0.81433   0.88498   0.00000  Uiso   1.00
H124   H     0.76758   0.74018   0.84638   0.00000  Uiso   1.00
H125   H     0.01778   0.87783   0.81306   0.00000  Uiso   1.00
H126   H     0.91888   0.84073   0.99433   0.00000  Uiso   1.00
H127   H     0.64003   0.63316   0.80537   0.00000  Uiso   1.00
H128   H     0.16761   0.92341   0.73514   0.00000  Uiso   1.00
H129   H     0.95905   0.84519   0.11738   0.00000  Uiso   1.00
O130   O     0.64163   0.49907   0.78619   0.00000  Uiso   1.00
O131   O     0.33379   0.87987   0.69406   0.00000  Uiso   1.00
O132   O     0.06017   0.77725   0.19555   0.00000  Uiso   1.00
N133   N     0.79623   0.51814   0.81983   0.00000  Uiso   1.00
N134   N     0.28948   0.78949   0.75415   0.00000  Uiso   1.00
N135   N     0.09451   0.71638   0.11152   0.00000  Uiso   1.00
N136   N     0.69979   0.60624   0.81339   0.00000  Uiso   1.00
N137   N     0.19303   0.87760   0.74772   0.00000  Uiso   1.00
N138   N     0.99807   0.80448   0.10508   0.00000  Uiso   1.00
C139   C     0.43148   0.83311   0.39575   0.00000  Uiso   1.00
C140   C     0.53010   0.85257   0.37326   0.00000  Uiso   1.00
C141   C     0.55928   0.91802   0.35793   0.00000  Uiso   1.00
C142   C     0.65237   0.92521   0.33832   0.00000  Uiso   1.00
C143   C     0.79611   0.96399   0.30399   0.00000  Uiso   1.00
C144   C     0.39416   0.77779   0.35515   0.00000  Uiso   1.00
C145   C     0.30905   0.78035   0.32460   0.00000  Uiso   1.00
C146   C     0.28770   0.72458   0.28975   0.00000  Uiso   1.00
C147   C     0.22036   0.64724   0.22735   0.00000  Uiso   1.00
C148   C     0.44790   0.79795   0.45364   0.00000  Uiso   1.00
C149   C     0.40796   0.81745   0.50590   0.00000  Uiso   1.00
C150   C     0.43185   0.77864   0.55397   0.00000  Uiso   1.00
C151   C     0.44796   0.73260   0.64449   0.00000  Uiso   1.00
C152   C     0.54489   0.72949   0.38818   0.00000  Uiso   1.00
C153   C     0.59169   0.79629   0.36915   0.00000  Uiso   1.00
C154   C     0.68477   0.80338   0.34955   0.00000  Uiso   1.00
C155   C     0.71409   0.86883   0.33420   0.00000  Uiso   1.00
C156   C     0.45576   0.72151   0.35104   0.00000  Uiso   1.00
C157   C     0.43453   0.66572   0.31623   0.00000  Uiso   1.00
C158   C     0.34941   0.66820   0.28563   0.00000  Uiso   1.00
C159   C     0.50951   0.74167   0.44953   0.00000  Uiso   1.00
C160   C     0.53345   0.70282   0.49752   0.00000  Uiso   1.00
C161   C     0.49356   0.72226   0.54985   0.00000  Uiso   1.00
H162   H     0.38352   0.87692   0.39895   0.00000  Uiso   1.00
H163   H     0.51159   0.96156   0.36111   0.00000  Uiso   1.00
H164   H     0.26139   0.82391   0.32780   0.00000  Uiso   1.00
H165   H     0.36029   0.86100   0.50907   0.00000  Uiso   1.00
H166   H     0.68073   0.03057   0.31733   0.00000  Uiso   1.00
H167   H     0.15316   0.74033   0.24710   0.00000  Uiso   1.00
H168   H     0.36172   0.81854   0.62934   0.00000  Uiso   1.00
H169   H     0.59286   0.68567   0.38498   0.00000  Uiso   1.00
H170   H     0.73242   0.75982   0.34638   0.00000  Uiso   1.00
H171   H     0.48222   0.62217   0.31306   0.00000  Uiso   1.00
H172   H     0.58112   0.65927   0.49433   0.00000  Uiso   1.00
H173   H     0.85997   0.86684   0.30537   0.00000  Uiso   1.00
H174   H     0.33239   0.57659   0.23514   0.00000  Uiso   1.00
H175   H     0.54095   0.65481   0.61738   0.00000  Uiso   1.00
O176   O     0.85837   0.00093   0.28619   0.00000  Uiso   1.00
O177   O     0.16621   0.62013   0.19406   0.00000  Uiso   1.00
O178   O     0.43983   0.72275   0.69555   0.00000  Uiso   1.00
N179   N     0.70377   0.98186   0.31983   0.00000  Uiso   1.00
N180   N     0.21052   0.71051   0.25415   0.00000  Uiso   1.00
N181   N     0.40549   0.78362   0.61152   0.00000  Uiso   1.00
N182   N     0.80021   0.89376   0.31339   0.00000  Uiso   1.00
N183   N     0.30697   0.62240   0.24772   0.00000  Uiso   1.00
N184   N     0.50193   0.69552   0.60508   0.00000  Uiso   1.00
C185   C     0.06852   0.33311   0.39575   0.00000  Uiso   1.00
C186   C     0.96990   0.35257   0.37326   0.00000  Uiso   1.00
C187   C     0.94072   0.41802   0.35793   0.00000  Uiso   1.00
C188   C     0.84763   0.42521   0.33832   0.00000  Uiso   1.00
C189   C     0.70389   0.46399   0.30399   0.00000  Uiso   1.00
C190   C     0.10584   0.27779   0.35515   0.00000  Uiso   1.00
C191   C     0.19095   0.28035   0.32460   0.00000  Uiso   1.00
C192   C     0.21230   0.22458   0.28975   0.00000  Uiso   1.00
C193   C     0.27964   0.14724   0.22735   0.00000  Uiso   1.00
C194   C     0.05210   0.29795   0.45364   0.00000  Uiso   1.00
C195   C     0.09204   0.31745   0.50590   0.00000  Uiso   1.00
C196   C     0.06815   0.27864   0.55397   0.00000  Uiso   1.00
C197   C     0.05204   0.23260   0.64449   0.00000  Uiso   1.00
C198   C     0.95511   0.22949   0.38818   0.00000  Uiso   1.00
C199   C     0.90831   0.29629   0.36915   0.00000  Uiso   1.00
C200   C     0.81523   0.30338   0.34955   0.00000  Uiso   1.00
C201   C     0.78591   0.36883   0.33420   0.00000  Uiso   1.00
C202   C     0.04424   0.22151   0.35104   0.00000  Uiso   1.00
C203   C     0.06547   0.16572   0.31623   0.00000  Uiso   1.00
C204   C     0.15059   0.16820   0.28563   0.00000  Uiso   1.00
C205   C     0.99049   0.24167   0.44953   0.00000  Uiso   1.00
C206   C     0.96655   0.20282   0.49752   0.00000  Uiso   1.00
C207   C     0.00644   0.22226   0.54985   0.00000  Uiso   1.00
H208   H     0.11648   0.37692   0.39895   0.00000  Uiso   1.00
H209   H     0.98841   0.46156   0.36111   0.00000  Uiso   1.00
H210   H     0.23861   0.32391   0.32780   0.00000  Uiso   1.00
H211   H     0.13971   0.36100   0.50907   0.00000  Uiso   1.00
H212   H     0.81927   0.53057   0.31733   0.00000  Uiso   1.00
H213   H     0.34684   0.24033   0.24710   0.00000  Uiso   1.00
H214   H     0.13828   0.31854   0.62934   0.00000  Uiso   1.00
H215   H     0.90714   0.18567   0.38498   0.00000  Uiso   1.00
H216   H     0.76758   0.25982   0.34638   0.00000  Uiso   1.00
H217   H     0.01778   0.12217   0.31306   0.00000  Uiso   1.00
H218   H     0.91888   0.15927   0.49433   0.00000  Uiso   1.00
H219   H     0.64003   0.36684   0.30537   0.00000  Uiso   1.00
H220   H     0.16761   0.07659   0.23514   0.00000  Uiso   1.00
H221   H     0.95905   0.15481   0.61738   0.00000  Uiso   1.00
O222   O     0.64163   0.50093   0.28619   0.00000  Uiso   1.00
O223   O     0.33379   0.12013   0.19406   0.00000  Uiso   1.00
O224   O     0.06017   0.22275   0.69555   0.00000  Uiso   1.00
N225   N     0.79623   0.48186   0.31983   0.00000  Uiso   1.00
N226   N     0.28948   0.21051   0.25415   0.00000  Uiso   1.00
N227   N     0.09451   0.28362   0.61152   0.00000  Uiso   1.00
N228   N     0.69979   0.39376   0.31339   0.00000  Uiso   1.00
N229   N     0.19303   0.12240   0.24772   0.00000  Uiso   1.00
N230   N     0.99807   0.19552   0.60508   0.00000  Uiso   1.00
C231   C     0.43148   0.16689   0.89575   0.00000  Uiso   1.00
C232   C     0.53010   0.14743   0.87326   0.00000  Uiso   1.00
C233   C     0.55928   0.08198   0.85793   0.00000  Uiso   1.00
C234   C     0.65237   0.07479   0.83832   0.00000  Uiso   1.00
C235   C     0.79611   0.03601   0.80399   0.00000  Uiso   1.00
C236   C     0.39416   0.22221   0.85515   0.00000  Uiso   1.00
C237   C     0.30905   0.21965   0.82460   0.00000  Uiso   1.00
C238   C     0.28770   0.27542   0.78975   0.00000  Uiso   1.00
C239   C     0.22036   0.35276   0.72735   0.00000  Uiso   1.00
C240   C     0.44790   0.20205   0.95364   0.00000  Uiso   1.00
C241   C     0.40796   0.18255   0.00590   0.00000  Uiso   1.00
C242   C     0.43185   0.22136   0.05397   0.00000  Uiso   1.00
C243   C     0.44796   0.26740   0.14449   0.00000  Uiso   1.00
C244   C     0.54489   0.27051   0.88818   0.00000  Uiso   1.00
C245   C     0.59169   0.20371   0.86915   0.00000  Uiso   1.00
C246   C     0.68477   0.19662   0.84955   0.00000  Uiso   1.00
C247   C     0.71409   0.13117   0.83420   0.00000  Uiso   1.00
C248   C     0.45576   0.27849   0.85104   0.00000  Uiso   1.00
C249   C     0.43453   0.33428   0.81623   0.00000  Uiso   1.00
C250   C     0.34941   0.33180   0.78563   0.00000  Uiso   1.00
C251   C     0.50951   0.25833   0.94953   0.00000  Uiso   1.00
C252   C     0.53345   0.29718   0.99752   0.00000  Uiso   1.00
C253   C     0.49356   0.27774   0.04985   0.00000  Uiso   1.00
H254   H     0.38352   0.12308   0.89895   0.00000  Uiso   1.00
H255   H     0.51159   0.03844   0.86111   0.00000  Uiso   1.00
H256   H     0.26139   0.17609   0.82780   0.00000  Uiso   1.00
H257   H     0.36029   0.13900   0.00907   0.00000  Uiso   1.00
H258   H     0.68073   0.96943   0.81733   0.00000  Uiso   1.00
H259   H     0.15316   0.25967   0.74710   0.00000  Uiso   1.00
H260   H     0.36172   0.18146   0.12934   0.00000  Uiso   1.00
H261   H     0.59286   0.31433   0.88498   0.00000  Uiso   1.00
H262   H     0.73242   0.24018   0.84638   0.00000  Uiso   1.00
H263   H     0.48222   0.37783   0.81306   0.00000  Uiso   1.00
H264   H     0.58112   0.34073   0.99433   0.00000  Uiso   1.00
H265   H     0.85997   0.13316   0.80537   0.00000  Uiso   1.00
H266   H     0.33239   0.42341   0.73514   0.00000  Uiso   1.00
H267   H     0.54095   0.34519   0.11738   0.00000  Uiso   1.00
O268   O     0.85837   0.99907   0.78619   0.00000  Uiso   1.00
O269   O     0.16621   0.37987   0.69406   0.00000  Uiso   1.00
O270   O     0.43983   0.27725   0.19555   0.00000  Uiso   1.00
N271   N     0.70377   0.01814   0.81983   0.00000  Uiso   1.00
N272   N     0.21052   0.28949   0.75415   0.00000  Uiso   1.00
N273   N     0.40549   0.21638   0.11152   0.00000  Uiso   1.00
N274   N     0.80021   0.10624   0.81339   0.00000  Uiso   1.00
N275   N     0.30697   0.37760   0.74772   0.00000  Uiso   1.00
N276   N     0.50193   0.30448   0.10508   0.00000  Uiso   1.00
C277   C     0.93148   0.33311   0.10425   0.00000  Uiso   1.00
C278   C     0.03010   0.35257   0.12674   0.00000  Uiso   1.00
C279   C     0.05928   0.41802   0.14207   0.00000  Uiso   1.00
C280   C     0.15237   0.42521   0.16168   0.00000  Uiso   1.00
C281   C     0.29611   0.46399   0.19601   0.00000  Uiso   1.00
C282   C     0.89416   0.27779   0.14485   0.00000  Uiso   1.00
C283   C     0.80905   0.28035   0.17540   0.00000  Uiso   1.00
C284   C     0.78770   0.22458   0.21025   0.00000  Uiso   1.00
C285   C     0.72036   0.14724   0.27265   0.00000  Uiso   1.00
C286   C     0.94790   0.29795   0.04636   0.00000  Uiso   1.00
C287   C     0.90796   0.31745   0.99410   0.00000  Uiso   1.00
C288   C     0.93185   0.27864   0.94603   0.00000  Uiso   1.00
C289   C     0.94796   0.23260   0.85551   0.00000  Uiso   1.00
C290   C     0.04489   0.22949   0.11182   0.00000  Uiso   1.00
C291   C     0.09169   0.29629   0.13085   0.00000  Uiso   1.00
C292   C     0.18477   0.30338   0.15045   0.00000  Uiso   1.00
C293   C     0.21409   0.36883   0.16580   0.00000  Uiso   1.00
C294   C     0.95576   0.22151   0.14896   0.00000  Uiso   1.00
C295   C     0.93453   0.16572   0.18377   0.00000  Uiso   1.00
C296   C     0.84941   0.16820   0.21437   0.00000  Uiso   1.00
C297   C     0.00951   0.24167   0.05047   0.00000  Uiso   1.00
C298   C     0.03345   0.20282   0.00248   0.00000  Uiso   1.00
C299   C     0.99356   0.22226   0.95015   0.00000  Uiso   1.00
H300   H     0.88352   0.37692   0.10105   0.00000  Uiso   1.00
H301   H     0.01159   0.46156   0.13889   0.00000  Uiso   1.00
H302   H     0.76139   0.32391   0.17220   0.00000  Uiso   1.00
H303   H     0.86029   0.36100   0.99093   0.00000  Uiso   1.00
H304   H     0.18073   0.53057   0.18267   0.00000  Uiso   1.00
H305   H     0.65316   0.24033   0.25290   0.00000  Uiso   1.00
H306   H     0.86172   0.31854   0.87066   0.00000  Uiso   1.00
H307   H     0.09286   0.18567   0.11502   0.00000  Uiso   1.00
H308   H     0.23242   0.25982   0.15362   0.00000  Uiso   1.00
H309   H     0.98222   0.12217   0.18694   0.00000  Uiso   1.00
H310   H     0.08112   0.15927   0.00567   0.00000  Uiso   1.00
H311   H     0.35997   0.36684   0.19463   0.00000  Uiso   1.00
H312   H     0.83239   0.07659   0.26486   0.00000  Uiso   1.00
H313   H     0.04095   0.15481   0.88262   0.00000  Uiso   1.00
O314   O     0.35837   0.50093   0.21381   0.00000  Uiso   1.00
O315   O     0.66621   0.12013   0.30594   0.00000  Uiso   1.00
O316   O     0.93983   0.22275   0.80445   0.00000  Uiso   1.00
N317   N     0.20377   0.48186   0.18017   0.00000  Uiso   1.00
N318   N     0.71052   0.21051   0.24585   0.00000  Uiso   1.00
N319   N     0.90549   0.28362   0.88848   0.00000  Uiso   1.00
N320   N     0.30021   0.39376   0.18661   0.00000  Uiso   1.00
N321   N     0.80697   0.12240   0.25228   0.00000  Uiso   1.00
N322   N     0.00193   0.19552   0.89492   0.00000  Uiso   1.00
C323   C     0.56852   0.16689   0.60425   0.00000  Uiso   1.00
C324   C     0.46990   0.14743   0.62674   0.00000  Uiso   1.00
C325   C     0.44072   0.08198   0.64207   0.00000  Uiso   1.00
C326   C     0.34763   0.07479   0.66168   0.00000  Uiso   1.00
C327   C     0.20389   0.03601   0.69601   0.00000  Uiso   1.00
C328   C     0.60584   0.22221   0.64485   0.00000  Uiso   1.00
C329   C     0.69095   0.21965   0.67540   0.00000  Uiso   1.00
C330   C     0.71230   0.27542   0.71025   0.00000  Uiso   1.00
C331   C     0.77964   0.35276   0.77265   0.00000  Uiso   1.00
C332   C     0.55210   0.20205   0.54636   0.00000  Uiso   1.00
C333   C     0.59204   0.18255   0.49410   0.00000  Uiso   1.00
C334   C     0.56815   0.22136   0.44603   0.00000  Uiso   1.00
C335   C     0.55204   0.26740   0.35551   0.00000  Uiso   1.00
C336   C     0.45511   0.27051   0.61182   0.00000  Uiso   1.00
C337   C     0.40831   0.20371   0.63085   0.00000  Uiso   1.00
C338   C     0.31523   0.19662   0.65045   0.00000  Uiso   1.00
C339   C     0.28591   0.13117   0.66580   0.00000  Uiso   1.00
C340   C     0.54424   0.27849   0.64896   0.00000  Uiso   1.00
C341   C     0.56547   0.33428   0.68377   0.00000  Uiso   1.00
C342   C     0.65059   0.33180   0.71437   0.00000  Uiso   1.00
C343   C     0.49049   0.25833   0.55047   0.00000  Uiso   1.00
C344   C     0.46655   0.29718   0.50248   0.00000  Uiso   1.00
C345   C     0.50644   0.27774   0.45015   0.00000  Uiso   1.00
H346   H     0.61648   0.12308   0.60105   0.00000  Uiso   1.00
H347   H     0.48841   0.03844   0.63889   0.00000  Uiso   1.00
H348   H     0.73861   0.17609   0.67220   0.00000  Uiso   1.00
H349   H     0.63971   0.13900   0.49093   0.00000  Uiso   1.00
H350   H     0.31927   0.96943   0.68267   0.00000  Uiso   1.00
H351   H     0.84684   0.25967   0.75290   0.00000  Uiso   1.00
H352   H     0.63828   0.18146   0.37066   0.00000  Uiso   1.00
H353   H     0.40714   0.31433   0.61502   0.00000  Uiso   1.00
H354   H     0.26758   0.24018   0.65362   0.00000  Uiso   1.00
H355   H     0.51778   0.37783   0.68694   0.00000  Uiso   1.00
H356   H     0.41888   0.34073   0.50567   0.00000  Uiso   1.00
H357   H     0.14003   0.13316   0.69463   0.00000  Uiso   1.00
H358   H     0.66761   0.42341   0.76486   0.00000  Uiso   1.00
H359   H     0.45905   0.34519   0.38262   0.00000  Uiso   1.00
O360   O     0.14163   0.99907   0.71381   0.00000  Uiso   1.00
O361   O     0.83379   0.37987   0.80594   0.00000  Uiso   1.00
O362   O     0.56017   0.27725   0.30445   0.00000  Uiso   1.00
N363   N     0.29623   0.01814   0.68017   0.00000  Uiso   1.00
N364   N     0.78948   0.28949   0.74585   0.00000  Uiso   1.00
N365   N     0.59451   0.21638   0.38848   0.00000  Uiso   1.00
N366   N     0.19979   0.10624   0.68661   0.00000  Uiso   1.00
N367   N     0.69303   0.37760   0.75228   0.00000  Uiso   1.00
N368   N     0.49807   0.30448   0.39492   0.00000  Uiso   1.00
