data_job_02207
_audit_creation_date              2018-12-19
_audit_creation_method            'Materials Studio'
_symmetry_space_group_name_H-M    'P1'
_symmetry_Int_Tables_number       1
_symmetry_cell_setting            triclinic
loop_
_symmetry_equiv_pos_as_xyz
  x,y,z
_cell_length_a                    22.3185
_cell_length_b                    13.0552
_cell_length_c                    12.2908
_cell_angle_alpha                 90.0000
_cell_angle_beta                  78.5057
_cell_angle_gamma                 90.0000
loop_
_atom_site_label
_atom_site_type_symbol
_atom_site_fract_x
_atom_site_fract_y
_atom_site_fract_z
_atom_site_U_iso_or_equiv
_atom_site_adp_type
_atom_site_occupancy
C1     C     0.33015   0.11229   0.84299   0.00000  Uiso   1.00
C2     C     0.26158   0.09218   0.87472   0.00000  Uiso   1.00
C3     C     0.21581   0.16267   0.86867   0.00000  Uiso   1.00
C4     C     0.15585   0.12936   0.90153   0.00000  Uiso   1.00
C5     C     0.05145   0.11340   0.94514   0.00000  Uiso   1.00
C6     C     0.35600   0.08640   0.94553   0.00000  Uiso   1.00
C7     C     0.38963   0.15203   0.99901   0.00000  Uiso   1.00
C8     C     0.40917   0.11385   0.09148   0.00000  Uiso   1.00
C9     C     0.45140   0.08889   0.24499   0.00000  Uiso   1.00
C10    C     0.35567   0.03186   0.75610   0.00000  Uiso   1.00
C11    C     0.38904   0.05161   0.65030   0.00000  Uiso   1.00
C12    C     0.40831   0.96750   0.58329   0.00000  Uiso   1.00
C13    C     0.45003   0.85785   0.44266   0.00000  Uiso   1.00
C14    C     0.30505   0.92779   0.91211   0.00000  Uiso   1.00
C15    C     0.24795   0.99197   0.91227   0.00000  Uiso   1.00
C16    C     0.18804   0.95855   0.94515   0.00000  Uiso   1.00
C17    C     0.14219   0.02897   0.93914   0.00000  Uiso   1.00
C18    C     0.34237   0.98620   0.98308   0.00000  Uiso   1.00
C19    C     0.36186   0.94791   0.07549   0.00000  Uiso   1.00
C20    C     0.39551   0.01346   0.12910   0.00000  Uiso   1.00
C21    C     0.34204   0.93164   0.79364   0.00000  Uiso   1.00
C22    C     0.36126   0.84749   0.72678   0.00000  Uiso   1.00
C23    C     0.39465   0.86711   0.62091   0.00000  Uiso   1.00
H24    H     0.34077   0.19031   0.81376   0.00000  Uiso   1.00
H25    H     0.22638   0.24022   0.83961   0.00000  Uiso   1.00
H26    H     0.40018   0.22957   0.96993   0.00000  Uiso   1.00
H27    H     0.39958   0.12917   0.62128   0.00000  Uiso   1.00
H28    H     0.09355   0.25137   0.88487   0.00000  Uiso   1.00
H29    H     0.46004   0.22892   0.15963   0.00000  Uiso   1.00
H30    H     0.45878   0.01720   0.42442   0.00000  Uiso   1.00
H31    H     0.29443   0.84977   0.94135   0.00000  Uiso   1.00
H32    H     0.17750   0.88099   0.97420   0.00000  Uiso   1.00
H33    H     0.35130   0.87035   0.10452   0.00000  Uiso   1.00
H34    H     0.35071   0.76995   0.75587   0.00000  Uiso   1.00
H35    H     0.05388   0.95981   0.99412   0.00000  Uiso   1.00
H36    H     0.42037   0.93736   0.26887   0.00000  Uiso   1.00
H37    H     0.41911   0.72564   0.53367   0.00000  Uiso   1.00
O38    O     0.99763   0.13228   0.95884   0.00000  Uiso   1.00
O39    O     0.47845   0.10282   0.31929   0.00000  Uiso   1.00
O40    O     0.47680   0.82505   0.35472   0.00000  Uiso   1.00
N41    N     0.10026   0.17846   0.90605   0.00000  Uiso   1.00
N42    N     0.44290   0.15747   0.16294   0.00000  Uiso   1.00
N43    N     0.44173   0.95953   0.47560   0.00000  Uiso   1.00
N44    N     0.07891   0.02157   0.96483   0.00000  Uiso   1.00
N45    N     0.42155   0.00059   0.22173   0.00000  Uiso   1.00
N46    N     0.42039   0.80265   0.53438   0.00000  Uiso   1.00
C47    C     0.66985   0.61229   0.65701   0.00000  Uiso   1.00
C48    C     0.73842   0.59218   0.62528   0.00000  Uiso   1.00
C49    C     0.78419   0.66267   0.63133   0.00000  Uiso   1.00
C50    C     0.84415   0.62936   0.59847   0.00000  Uiso   1.00
C51    C     0.94855   0.61340   0.55486   0.00000  Uiso   1.00
C52    C     0.64400   0.58640   0.55447   0.00000  Uiso   1.00
C53    C     0.61037   0.65203   0.50099   0.00000  Uiso   1.00
C54    C     0.59083   0.61385   0.40852   0.00000  Uiso   1.00
C55    C     0.54860   0.58889   0.25501   0.00000  Uiso   1.00
C56    C     0.64433   0.53186   0.74390   0.00000  Uiso   1.00
C57    C     0.61096   0.55161   0.84970   0.00000  Uiso   1.00
C58    C     0.59169   0.46750   0.91671   0.00000  Uiso   1.00
C59    C     0.54997   0.35785   0.05734   0.00000  Uiso   1.00
C60    C     0.69495   0.42779   0.58789   0.00000  Uiso   1.00
C61    C     0.75205   0.49197   0.58773   0.00000  Uiso   1.00
C62    C     0.81196   0.45855   0.55485   0.00000  Uiso   1.00
C63    C     0.85781   0.52897   0.56086   0.00000  Uiso   1.00
C64    C     0.65763   0.48620   0.51692   0.00000  Uiso   1.00
C65    C     0.63814   0.44791   0.42451   0.00000  Uiso   1.00
C66    C     0.60449   0.51346   0.37090   0.00000  Uiso   1.00
C67    C     0.65796   0.43164   0.70636   0.00000  Uiso   1.00
C68    C     0.63874   0.34749   0.77322   0.00000  Uiso   1.00
C69    C     0.60535   0.36711   0.87909   0.00000  Uiso   1.00
H70    H     0.65923   0.69031   0.68624   0.00000  Uiso   1.00
H71    H     0.77362   0.74022   0.66039   0.00000  Uiso   1.00
H72    H     0.59982   0.72957   0.53007   0.00000  Uiso   1.00
H73    H     0.60042   0.62917   0.87872   0.00000  Uiso   1.00
H74    H     0.90645   0.75137   0.61513   0.00000  Uiso   1.00
H75    H     0.53996   0.72892   0.34037   0.00000  Uiso   1.00
H76    H     0.54122   0.51720   0.07558   0.00000  Uiso   1.00
H77    H     0.70557   0.34977   0.55865   0.00000  Uiso   1.00
H78    H     0.82250   0.38099   0.52580   0.00000  Uiso   1.00
H79    H     0.64870   0.37035   0.39548   0.00000  Uiso   1.00
H80    H     0.64929   0.26995   0.74413   0.00000  Uiso   1.00
H81    H     0.94612   0.45981   0.50588   0.00000  Uiso   1.00
H82    H     0.57963   0.43736   0.23113   0.00000  Uiso   1.00
H83    H     0.58089   0.22564   0.96633   0.00000  Uiso   1.00
O84    O     0.00237   0.63228   0.54116   0.00000  Uiso   1.00
O85    O     0.52155   0.60282   0.18071   0.00000  Uiso   1.00
O86    O     0.52320   0.32505   0.14528   0.00000  Uiso   1.00
N87    N     0.89974   0.67846   0.59395   0.00000  Uiso   1.00
N88    N     0.55710   0.65747   0.33706   0.00000  Uiso   1.00
N89    N     0.55827   0.45953   0.02440   0.00000  Uiso   1.00
N90    N     0.92109   0.52157   0.53517   0.00000  Uiso   1.00
N91    N     0.57845   0.50059   0.27827   0.00000  Uiso   1.00
N92    N     0.57961   0.30265   0.96562   0.00000  Uiso   1.00
C93    C     0.66985   0.88771   0.15701   0.00000  Uiso   1.00
C94    C     0.73842   0.90782   0.12528   0.00000  Uiso   1.00
C95    C     0.78419   0.83733   0.13133   0.00000  Uiso   1.00
C96    C     0.84415   0.87064   0.09847   0.00000  Uiso   1.00
C97    C     0.94855   0.88660   0.05486   0.00000  Uiso   1.00
C98    C     0.64400   0.91360   0.05447   0.00000  Uiso   1.00
C99    C     0.61037   0.84797   0.00099   0.00000  Uiso   1.00
C100   C     0.59083   0.88615   0.90852   0.00000  Uiso   1.00
C101   C     0.54860   0.91111   0.75501   0.00000  Uiso   1.00
C102   C     0.64433   0.96814   0.24390   0.00000  Uiso   1.00
C103   C     0.61096   0.94839   0.34970   0.00000  Uiso   1.00
C104   C     0.59169   0.03250   0.41671   0.00000  Uiso   1.00
C105   C     0.54997   0.14215   0.55734   0.00000  Uiso   1.00
C106   C     0.69495   0.07221   0.08789   0.00000  Uiso   1.00
C107   C     0.75205   0.00803   0.08773   0.00000  Uiso   1.00
C108   C     0.81196   0.04145   0.05485   0.00000  Uiso   1.00
C109   C     0.85781   0.97103   0.06086   0.00000  Uiso   1.00
C110   C     0.65763   0.01380   0.01692   0.00000  Uiso   1.00
C111   C     0.63814   0.05209   0.92451   0.00000  Uiso   1.00
C112   C     0.60449   0.98654   0.87090   0.00000  Uiso   1.00
C113   C     0.65796   0.06836   0.20636   0.00000  Uiso   1.00
C114   C     0.63874   0.15251   0.27322   0.00000  Uiso   1.00
C115   C     0.60535   0.13289   0.37909   0.00000  Uiso   1.00
H116   H     0.65923   0.80969   0.18624   0.00000  Uiso   1.00
H117   H     0.77362   0.75978   0.16039   0.00000  Uiso   1.00
H118   H     0.59982   0.77043   0.03007   0.00000  Uiso   1.00
H119   H     0.60042   0.87083   0.37872   0.00000  Uiso   1.00
H120   H     0.90645   0.74863   0.11513   0.00000  Uiso   1.00
H121   H     0.53996   0.77108   0.84037   0.00000  Uiso   1.00
H122   H     0.54122   0.98280   0.57558   0.00000  Uiso   1.00
H123   H     0.70557   0.15023   0.05865   0.00000  Uiso   1.00
H124   H     0.82250   0.11901   0.02580   0.00000  Uiso   1.00
H125   H     0.64870   0.12965   0.89548   0.00000  Uiso   1.00
H126   H     0.64929   0.23005   0.24413   0.00000  Uiso   1.00
H127   H     0.94612   0.04019   0.00588   0.00000  Uiso   1.00
H128   H     0.57963   0.06264   0.73113   0.00000  Uiso   1.00
H129   H     0.58089   0.27436   0.46633   0.00000  Uiso   1.00
O130   O     0.00237   0.86772   0.04116   0.00000  Uiso   1.00
O131   O     0.52155   0.89718   0.68071   0.00000  Uiso   1.00
O132   O     0.52320   0.17495   0.64528   0.00000  Uiso   1.00
N133   N     0.89974   0.82154   0.09395   0.00000  Uiso   1.00
N134   N     0.55710   0.84253   0.83706   0.00000  Uiso   1.00
N135   N     0.55827   0.04047   0.52440   0.00000  Uiso   1.00
N136   N     0.92109   0.97843   0.03517   0.00000  Uiso   1.00
N137   N     0.57845   0.99941   0.77827   0.00000  Uiso   1.00
N138   N     0.57961   0.19735   0.46562   0.00000  Uiso   1.00
C139   C     0.33015   0.38771   0.34299   0.00000  Uiso   1.00
C140   C     0.26158   0.40782   0.37472   0.00000  Uiso   1.00
C141   C     0.21581   0.33733   0.36867   0.00000  Uiso   1.00
C142   C     0.15585   0.37064   0.40153   0.00000  Uiso   1.00
C143   C     0.05145   0.38660   0.44514   0.00000  Uiso   1.00
C144   C     0.35600   0.41360   0.44553   0.00000  Uiso   1.00
C145   C     0.38963   0.34797   0.49901   0.00000  Uiso   1.00
C146   C     0.40917   0.38615   0.59148   0.00000  Uiso   1.00
C147   C     0.45140   0.41111   0.74499   0.00000  Uiso   1.00
C148   C     0.35567   0.46814   0.25610   0.00000  Uiso   1.00
C149   C     0.38904   0.44839   0.15030   0.00000  Uiso   1.00
C150   C     0.40831   0.53250   0.08329   0.00000  Uiso   1.00
C151   C     0.45003   0.64215   0.94266   0.00000  Uiso   1.00
C152   C     0.30505   0.57221   0.41211   0.00000  Uiso   1.00
C153   C     0.24795   0.50803   0.41227   0.00000  Uiso   1.00
C154   C     0.18804   0.54145   0.44515   0.00000  Uiso   1.00
C155   C     0.14219   0.47103   0.43914   0.00000  Uiso   1.00
C156   C     0.34237   0.51380   0.48308   0.00000  Uiso   1.00
C157   C     0.36186   0.55209   0.57549   0.00000  Uiso   1.00
C158   C     0.39551   0.48654   0.62910   0.00000  Uiso   1.00
C159   C     0.34204   0.56836   0.29364   0.00000  Uiso   1.00
C160   C     0.36126   0.65251   0.22678   0.00000  Uiso   1.00
C161   C     0.39465   0.63289   0.12091   0.00000  Uiso   1.00
H162   H     0.34077   0.30969   0.31376   0.00000  Uiso   1.00
H163   H     0.22638   0.25978   0.33961   0.00000  Uiso   1.00
H164   H     0.40018   0.27043   0.46993   0.00000  Uiso   1.00
H165   H     0.39958   0.37083   0.12128   0.00000  Uiso   1.00
H166   H     0.09355   0.24863   0.38487   0.00000  Uiso   1.00
H167   H     0.46004   0.27108   0.65963   0.00000  Uiso   1.00
H168   H     0.45878   0.48280   0.92442   0.00000  Uiso   1.00
H169   H     0.29443   0.65023   0.44135   0.00000  Uiso   1.00
H170   H     0.17750   0.61901   0.47420   0.00000  Uiso   1.00
H171   H     0.35130   0.62965   0.60452   0.00000  Uiso   1.00
H172   H     0.35071   0.73005   0.25587   0.00000  Uiso   1.00
H173   H     0.05388   0.54019   0.49412   0.00000  Uiso   1.00
H174   H     0.42037   0.56264   0.76887   0.00000  Uiso   1.00
H175   H     0.41911   0.77436   0.03367   0.00000  Uiso   1.00
O176   O     0.99763   0.36772   0.45884   0.00000  Uiso   1.00
O177   O     0.47845   0.39718   0.81929   0.00000  Uiso   1.00
O178   O     0.47680   0.67495   0.85472   0.00000  Uiso   1.00
N179   N     0.10026   0.32154   0.40605   0.00000  Uiso   1.00
N180   N     0.44290   0.34253   0.66294   0.00000  Uiso   1.00
N181   N     0.44173   0.54047   0.97560   0.00000  Uiso   1.00
N182   N     0.07891   0.47843   0.46483   0.00000  Uiso   1.00
N183   N     0.42155   0.49941   0.72173   0.00000  Uiso   1.00
N184   N     0.42039   0.69735   0.03438   0.00000  Uiso   1.00
