data_job_01571
_audit_creation_date              2018-12-19
_audit_creation_method            'Materials Studio'
_symmetry_space_group_name_H-M    'P1'
_symmetry_Int_Tables_number       1
_symmetry_cell_setting            triclinic
loop_
_symmetry_equiv_pos_as_xyz
  x,y,z
_cell_length_a                    12.7038
_cell_length_b                    23.6051
_cell_length_c                    9.9297
_cell_angle_alpha                 90.0000
_cell_angle_beta                  131.0794
_cell_angle_gamma                 90.0000
loop_
_atom_site_label
_atom_site_type_symbol
_atom_site_fract_x
_atom_site_fract_y
_atom_site_fract_z
_atom_site_U_iso_or_equiv
_atom_site_adp_type
_atom_site_occupancy
C1     C     0.16986   0.07811   0.32593   0.00000  Uiso   1.00
C2     C     0.24752   0.12984   0.44462   0.00000  Uiso   1.00
C3     C     0.24171   0.15023   0.57069   0.00000  Uiso   1.00
C4     C     0.32040   0.19812   0.66566   0.00000  Uiso   1.00
C5     C     0.42853   0.27443   0.85448   0.00000  Uiso   1.00
C6     C     0.08375   0.09890   0.13419   0.00000  Uiso   1.00
C7     C     0.94025   0.09327   0.99926   0.00000  Uiso   1.00
C8     C     0.88109   0.11511   0.83290   0.00000  Uiso   1.00
C9     C     0.73499   0.14335   0.53974   0.00000  Uiso   1.00
C10    C     0.28114   0.03902   0.36091   0.00000  Uiso   1.00
C11    C     0.30359   0.98303   0.41657   0.00000  Uiso   1.00
C12    C     0.41060   0.95445   0.44105   0.00000  Uiso   1.00
C13    C     0.57097   0.88972   0.49991   0.00000  Uiso   1.00
C14    C     0.31995   0.12690   0.27039   0.00000  Uiso   1.00
C15    C     0.32904   0.15634   0.41444   0.00000  Uiso   1.00
C16    C     0.40777   0.20421   0.50925   0.00000  Uiso   1.00
C17    C     0.40208   0.22467   0.63545   0.00000  Uiso   1.00
C18    C     0.16527   0.12540   0.10402   0.00000  Uiso   1.00
C19    C     0.10631   0.14725   0.93782   0.00000  Uiso   1.00
C20    C     0.96276   0.14166   0.80268   0.00000  Uiso   1.00
C21    C     0.36267   0.06552   0.33075   0.00000  Uiso   1.00
C22    C     0.46965   0.03702   0.35513   0.00000  Uiso   1.00
C23    C     0.49226   0.98100   0.41083   0.00000  Uiso   1.00
H24    H     0.10639   0.05748   0.34940   0.00000  Uiso   1.00
H25    H     0.17860   0.12971   0.59399   0.00000  Uiso   1.00
H26    H     0.87720   0.07276   0.02264   0.00000  Uiso   1.00
H27    H     0.24048   0.96254   0.43989   0.00000  Uiso   1.00
H28    H     0.29457   0.22150   0.85181   0.00000  Uiso   1.00
H29    H     0.65906   0.10139   0.64707   0.00000  Uiso   1.00
H30    H     0.42511   0.86898   0.52693   0.00000  Uiso   1.00
H31    H     0.38341   0.14753   0.24690   0.00000  Uiso   1.00
H32    H     0.47084   0.22471   0.48588   0.00000  Uiso   1.00
H33    H     0.16943   0.16775   0.91452   0.00000  Uiso   1.00
H34    H     0.53272   0.05754   0.33178   0.00000  Uiso   1.00
H35    H     0.53176   0.29860   0.76406   0.00000  Uiso   1.00
H36    H     0.89624   0.17848   0.55931   0.00000  Uiso   1.00
H37    H     0.66230   0.94608   0.43918   0.00000  Uiso   1.00
O38    O     0.46564   0.30921   0.96694   0.00000  Uiso   1.00
O39    O     0.63187   0.15161   0.38637   0.00000  Uiso   1.00
O40    O     0.63692   0.84670   0.54073   0.00000  Uiso   1.00
N41    N     0.33842   0.22905   0.79839   0.00000  Uiso   1.00
N42    N     0.74425   0.11676   0.67204   0.00000  Uiso   1.00
N43    N     0.46042   0.89947   0.49458   0.00000  Uiso   1.00
N44    N     0.46605   0.27054   0.75117   0.00000  Uiso   1.00
N45    N     0.87187   0.15824   0.62482   0.00000  Uiso   1.00
N46    N     0.58805   0.94095   0.44737   0.00000  Uiso   1.00
C47    C     0.66986   0.57811   0.32593   0.00000  Uiso   1.00
C48    C     0.74752   0.62984   0.44462   0.00000  Uiso   1.00
C49    C     0.74171   0.65023   0.57069   0.00000  Uiso   1.00
C50    C     0.82040   0.69812   0.66566   0.00000  Uiso   1.00
C51    C     0.92853   0.77443   0.85448   0.00000  Uiso   1.00
C52    C     0.58375   0.59890   0.13419   0.00000  Uiso   1.00
C53    C     0.44025   0.59327   0.99926   0.00000  Uiso   1.00
C54    C     0.38109   0.61511   0.83290   0.00000  Uiso   1.00
C55    C     0.23499   0.64335   0.53974   0.00000  Uiso   1.00
C56    C     0.78114   0.53902   0.36091   0.00000  Uiso   1.00
C57    C     0.80359   0.48303   0.41657   0.00000  Uiso   1.00
C58    C     0.91060   0.45445   0.44105   0.00000  Uiso   1.00
C59    C     0.07097   0.38972   0.49991   0.00000  Uiso   1.00
C60    C     0.81995   0.62690   0.27039   0.00000  Uiso   1.00
C61    C     0.82904   0.65634   0.41444   0.00000  Uiso   1.00
C62    C     0.90777   0.70421   0.50925   0.00000  Uiso   1.00
C63    C     0.90208   0.72467   0.63545   0.00000  Uiso   1.00
C64    C     0.66527   0.62540   0.10402   0.00000  Uiso   1.00
C65    C     0.60631   0.64725   0.93782   0.00000  Uiso   1.00
C66    C     0.46276   0.64166   0.80268   0.00000  Uiso   1.00
C67    C     0.86267   0.56552   0.33075   0.00000  Uiso   1.00
C68    C     0.96965   0.53702   0.35513   0.00000  Uiso   1.00
C69    C     0.99226   0.48100   0.41083   0.00000  Uiso   1.00
H70    H     0.60639   0.55748   0.34940   0.00000  Uiso   1.00
H71    H     0.67860   0.62971   0.59399   0.00000  Uiso   1.00
H72    H     0.37720   0.57276   0.02264   0.00000  Uiso   1.00
H73    H     0.74048   0.46254   0.43989   0.00000  Uiso   1.00
H74    H     0.79457   0.72150   0.85181   0.00000  Uiso   1.00
H75    H     0.15906   0.60139   0.64707   0.00000  Uiso   1.00
H76    H     0.92511   0.36898   0.52693   0.00000  Uiso   1.00
H77    H     0.88341   0.64753   0.24690   0.00000  Uiso   1.00
H78    H     0.97084   0.72471   0.48588   0.00000  Uiso   1.00
H79    H     0.66943   0.66775   0.91452   0.00000  Uiso   1.00
H80    H     0.03272   0.55754   0.33178   0.00000  Uiso   1.00
H81    H     0.03176   0.79860   0.76406   0.00000  Uiso   1.00
H82    H     0.39624   0.67848   0.55931   0.00000  Uiso   1.00
H83    H     0.16230   0.44608   0.43918   0.00000  Uiso   1.00
O84    O     0.96564   0.80921   0.96694   0.00000  Uiso   1.00
O85    O     0.13187   0.65161   0.38637   0.00000  Uiso   1.00
O86    O     0.13692   0.34670   0.54073   0.00000  Uiso   1.00
N87    N     0.83842   0.72905   0.79839   0.00000  Uiso   1.00
N88    N     0.24425   0.61676   0.67204   0.00000  Uiso   1.00
N89    N     0.96042   0.39947   0.49458   0.00000  Uiso   1.00
N90    N     0.96605   0.77054   0.75117   0.00000  Uiso   1.00
N91    N     0.37187   0.65824   0.62482   0.00000  Uiso   1.00
N92    N     0.08805   0.44095   0.44737   0.00000  Uiso   1.00
C93    C     0.16986   0.92189   0.82593   0.00000  Uiso   1.00
C94    C     0.24752   0.87016   0.94462   0.00000  Uiso   1.00
C95    C     0.24171   0.84977   0.07069   0.00000  Uiso   1.00
C96    C     0.32040   0.80188   0.16566   0.00000  Uiso   1.00
C97    C     0.42853   0.72557   0.35448   0.00000  Uiso   1.00
C98    C     0.08375   0.90110   0.63419   0.00000  Uiso   1.00
C99    C     0.94025   0.90673   0.49926   0.00000  Uiso   1.00
C100   C     0.88109   0.88489   0.33290   0.00000  Uiso   1.00
C101   C     0.73499   0.85665   0.03974   0.00000  Uiso   1.00
C102   C     0.28114   0.96098   0.86091   0.00000  Uiso   1.00
C103   C     0.30359   0.01697   0.91657   0.00000  Uiso   1.00
C104   C     0.41060   0.04555   0.94105   0.00000  Uiso   1.00
C105   C     0.57097   0.11028   0.99991   0.00000  Uiso   1.00
C106   C     0.31995   0.87310   0.77039   0.00000  Uiso   1.00
C107   C     0.32904   0.84366   0.91444   0.00000  Uiso   1.00
C108   C     0.40777   0.79579   0.00925   0.00000  Uiso   1.00
C109   C     0.40208   0.77533   0.13545   0.00000  Uiso   1.00
C110   C     0.16527   0.87460   0.60402   0.00000  Uiso   1.00
C111   C     0.10631   0.85275   0.43782   0.00000  Uiso   1.00
C112   C     0.96276   0.85834   0.30268   0.00000  Uiso   1.00
C113   C     0.36267   0.93448   0.83075   0.00000  Uiso   1.00
C114   C     0.46965   0.96298   0.85513   0.00000  Uiso   1.00
C115   C     0.49226   0.01900   0.91083   0.00000  Uiso   1.00
H116   H     0.10639   0.94252   0.84940   0.00000  Uiso   1.00
H117   H     0.17860   0.87029   0.09399   0.00000  Uiso   1.00
H118   H     0.87720   0.92724   0.52264   0.00000  Uiso   1.00
H119   H     0.24048   0.03746   0.93989   0.00000  Uiso   1.00
H120   H     0.29457   0.77850   0.35181   0.00000  Uiso   1.00
H121   H     0.65906   0.89861   0.14707   0.00000  Uiso   1.00
H122   H     0.42511   0.13102   0.02693   0.00000  Uiso   1.00
H123   H     0.38341   0.85247   0.74690   0.00000  Uiso   1.00
H124   H     0.47084   0.77529   0.98588   0.00000  Uiso   1.00
H125   H     0.16943   0.83225   0.41452   0.00000  Uiso   1.00
H126   H     0.53272   0.94246   0.83178   0.00000  Uiso   1.00
H127   H     0.53176   0.70140   0.26406   0.00000  Uiso   1.00
H128   H     0.89624   0.82152   0.05931   0.00000  Uiso   1.00
H129   H     0.66230   0.05392   0.93918   0.00000  Uiso   1.00
O130   O     0.46564   0.69079   0.46694   0.00000  Uiso   1.00
O131   O     0.63187   0.84839   0.88637   0.00000  Uiso   1.00
O132   O     0.63692   0.15330   0.04073   0.00000  Uiso   1.00
N133   N     0.33842   0.77095   0.29839   0.00000  Uiso   1.00
N134   N     0.74425   0.88324   0.17204   0.00000  Uiso   1.00
N135   N     0.46042   0.10053   0.99458   0.00000  Uiso   1.00
N136   N     0.46605   0.72946   0.25117   0.00000  Uiso   1.00
N137   N     0.87187   0.84176   0.12482   0.00000  Uiso   1.00
N138   N     0.58805   0.05905   0.94737   0.00000  Uiso   1.00
C139   C     0.66986   0.42189   0.82593   0.00000  Uiso   1.00
C140   C     0.74752   0.37016   0.94462   0.00000  Uiso   1.00
C141   C     0.74171   0.34977   0.07069   0.00000  Uiso   1.00
C142   C     0.82040   0.30188   0.16566   0.00000  Uiso   1.00
C143   C     0.92853   0.22557   0.35448   0.00000  Uiso   1.00
C144   C     0.58375   0.40110   0.63419   0.00000  Uiso   1.00
C145   C     0.44025   0.40673   0.49926   0.00000  Uiso   1.00
C146   C     0.38109   0.38489   0.33290   0.00000  Uiso   1.00
C147   C     0.23499   0.35665   0.03974   0.00000  Uiso   1.00
C148   C     0.78114   0.46098   0.86091   0.00000  Uiso   1.00
C149   C     0.80359   0.51697   0.91657   0.00000  Uiso   1.00
C150   C     0.91060   0.54555   0.94105   0.00000  Uiso   1.00
C151   C     0.07097   0.61028   0.99991   0.00000  Uiso   1.00
C152   C     0.81995   0.37310   0.77039   0.00000  Uiso   1.00
C153   C     0.82904   0.34366   0.91444   0.00000  Uiso   1.00
C154   C     0.90777   0.29579   0.00925   0.00000  Uiso   1.00
C155   C     0.90208   0.27533   0.13545   0.00000  Uiso   1.00
C156   C     0.66527   0.37460   0.60402   0.00000  Uiso   1.00
C157   C     0.60631   0.35275   0.43782   0.00000  Uiso   1.00
C158   C     0.46276   0.35834   0.30268   0.00000  Uiso   1.00
C159   C     0.86267   0.43448   0.83075   0.00000  Uiso   1.00
C160   C     0.96965   0.46298   0.85513   0.00000  Uiso   1.00
C161   C     0.99226   0.51900   0.91083   0.00000  Uiso   1.00
H162   H     0.60639   0.44252   0.84940   0.00000  Uiso   1.00
H163   H     0.67860   0.37029   0.09399   0.00000  Uiso   1.00
H164   H     0.37720   0.42724   0.52264   0.00000  Uiso   1.00
H165   H     0.74048   0.53746   0.93989   0.00000  Uiso   1.00
H166   H     0.79457   0.27850   0.35181   0.00000  Uiso   1.00
H167   H     0.15906   0.39861   0.14707   0.00000  Uiso   1.00
H168   H     0.92511   0.63102   0.02693   0.00000  Uiso   1.00
H169   H     0.88341   0.35247   0.74690   0.00000  Uiso   1.00
H170   H     0.97084   0.27529   0.98588   0.00000  Uiso   1.00
H171   H     0.66943   0.33225   0.41452   0.00000  Uiso   1.00
H172   H     0.03272   0.44246   0.83178   0.00000  Uiso   1.00
H173   H     0.03176   0.20140   0.26406   0.00000  Uiso   1.00
H174   H     0.39624   0.32152   0.05931   0.00000  Uiso   1.00
H175   H     0.16230   0.55392   0.93918   0.00000  Uiso   1.00
O176   O     0.96564   0.19079   0.46694   0.00000  Uiso   1.00
O177   O     0.13187   0.34839   0.88637   0.00000  Uiso   1.00
O178   O     0.13692   0.65330   0.04073   0.00000  Uiso   1.00
N179   N     0.83842   0.27095   0.29839   0.00000  Uiso   1.00
N180   N     0.24425   0.38324   0.17204   0.00000  Uiso   1.00
N181   N     0.96042   0.60053   0.99458   0.00000  Uiso   1.00
N182   N     0.96605   0.22946   0.25117   0.00000  Uiso   1.00
N183   N     0.37187   0.34176   0.12482   0.00000  Uiso   1.00
N184   N     0.08805   0.55905   0.94737   0.00000  Uiso   1.00
