data_job_05930
_audit_creation_date              2018-12-19
_audit_creation_method            'Materials Studio'
_symmetry_space_group_name_H-M    'P1'
_symmetry_Int_Tables_number       1
_symmetry_cell_setting            triclinic
loop_
_symmetry_equiv_pos_as_xyz
  x,y,z
_cell_length_a                    15.0906
_cell_length_b                    16.3030
_cell_length_c                    16.4576
_cell_angle_alpha                 111.0520
_cell_angle_beta                  72.1434
_cell_angle_gamma                 72.9872
loop_
_atom_site_label
_atom_site_type_symbol
_atom_site_fract_x
_atom_site_fract_y
_atom_site_fract_z
_atom_site_U_iso_or_equiv
_atom_site_adp_type
_atom_site_occupancy
C1     C     0.36922   0.48807   0.12728   0.00000  Uiso   1.00
C2     C     0.33869   0.40774   0.08346   0.00000  Uiso   1.00
C3     C     0.40396   0.31827   0.99727   0.00000  Uiso   1.00
C4     C     0.36121   0.25477   0.96962   0.00000  Uiso   1.00
C5     C     0.32966   0.12624   0.89295   0.00000  Uiso   1.00
C6     C     0.29241   0.58141   0.13860   0.00000  Uiso   1.00
C7     C     0.31878   0.63795   0.09879   0.00000  Uiso   1.00
C8     C     0.23706   0.72065   0.11757   0.00000  Uiso   1.00
C9     C     0.13367   0.86177   0.12657   0.00000  Uiso   1.00
C10    C     0.34497   0.50681   0.23115   0.00000  Uiso   1.00
C11    C     0.41552   0.50066   0.26916   0.00000  Uiso   1.00
C12    C     0.37804   0.52057   0.36587   0.00000  Uiso   1.00
C13    C     0.35625   0.54587   0.51856   0.00000  Uiso   1.00
C14    C     0.17721   0.53440   0.23144   0.00000  Uiso   1.00
C15    C     0.23440   0.43292   0.14004   0.00000  Uiso   1.00
C16    C     0.19153   0.36953   0.11252   0.00000  Uiso   1.00
C17    C     0.25673   0.27998   0.02630   0.00000  Uiso   1.00
C18    C     0.18812   0.60657   0.19518   0.00000  Uiso   1.00
C19    C     0.10635   0.68921   0.21403   0.00000  Uiso   1.00
C20    C     0.13258   0.74586   0.17425   0.00000  Uiso   1.00
C21    C     0.24068   0.53197   0.28773   0.00000  Uiso   1.00
C22    C     0.20308   0.55191   0.38440   0.00000  Uiso   1.00
C23    C     0.27356   0.54579   0.42255   0.00000  Uiso   1.00
H24    H     0.45041   0.46848   0.08323   0.00000  Uiso   1.00
H25    H     0.48467   0.29883   0.95350   0.00000  Uiso   1.00
H26    H     0.39949   0.61846   0.05501   0.00000  Uiso   1.00
H27    H     0.49621   0.48118   0.22536   0.00000  Uiso   1.00
H28    H     0.47664   0.12184   0.83461   0.00000  Uiso   1.00
H29    H     0.29705   0.79583   0.04867   0.00000  Uiso   1.00
H30    H     0.50102   0.50636   0.40788   0.00000  Uiso   1.00
H31    H     0.09601   0.55400   0.27549   0.00000  Uiso   1.00
H32    H     0.11082   0.38903   0.15631   0.00000  Uiso   1.00
H33    H     0.02565   0.70866   0.25782   0.00000  Uiso   1.00
H34    H     0.12238   0.57138   0.42816   0.00000  Uiso   1.00
H35    H     0.17322   0.19506   0.99921   0.00000  Uiso   1.00
H36    H     0.99363   0.86905   0.21328   0.00000  Uiso   1.00
H37    H     0.19759   0.57957   0.57248   0.00000  Uiso   1.00
O38    O     0.34106   0.04840   0.83503   0.00000  Uiso   1.00
O39    O     0.10545   0.93265   0.11589   0.00000  Uiso   1.00
O40    O     0.37304   0.55286   0.58715   0.00000  Uiso   1.00
N41    N     0.40321   0.16171   0.88971   0.00000  Uiso   1.00
N42    N     0.23530   0.79183   0.08984   0.00000  Uiso   1.00
N43    N     0.42598   0.52122   0.42567   0.00000  Uiso   1.00
N44    N     0.23994   0.20110   0.97829   0.00000  Uiso   1.00
N45    N     0.07203   0.83123   0.17841   0.00000  Uiso   1.00
N46    N     0.26271   0.56062   0.51425   0.00000  Uiso   1.00
C47    C     0.49614   0.87375   0.36099   0.00000  Uiso   1.00
C48    C     0.42258   0.91686   0.32493   0.00000  Uiso   1.00
C49    C     0.40231   0.00402   0.32168   0.00000  Uiso   1.00
C50    C     0.33257   0.03078   0.28627   0.00000  Uiso   1.00
C51    C     0.22556   0.10663   0.23505   0.00000  Uiso   1.00
C52    C     0.43082   0.86073   0.44231   0.00000  Uiso   1.00
C53    C     0.41749   0.90068   0.53774   0.00000  Uiso   1.00
C54    C     0.35470   0.88018   0.60114   0.00000  Uiso   1.00
C55    C     0.26055   0.86882   0.73213   0.00000  Uiso   1.00
C56    C     0.57484   0.77001   0.27659   0.00000  Uiso   1.00
C57    C     0.68261   0.73368   0.23271   0.00000  Uiso   1.00
C58    C     0.74108   0.63679   0.15659   0.00000  Uiso   1.00
C59    C     0.87055   0.48458   0.03029   0.00000  Uiso   1.00
C60    C     0.40834   0.76628   0.30388   0.00000  Uiso   1.00
C61    C     0.37489   0.85848   0.29392   0.00000  Uiso   1.00
C62    C     0.30517   0.88512   0.25850   0.00000  Uiso   1.00
C63    C     0.28480   0.97230   0.25519   0.00000  Uiso   1.00
C64    C     0.38313   0.80236   0.41129   0.00000  Uiso   1.00
C65    C     0.32035   0.78178   0.47456   0.00000  Uiso   1.00
C66    C     0.30693   0.82170   0.57006   0.00000  Uiso   1.00
C67    C     0.52716   0.71164   0.24557   0.00000  Uiso   1.00
C68    C     0.58547   0.61478   0.16952   0.00000  Uiso   1.00
C69    C     0.69331   0.57831   0.12552   0.00000  Uiso   1.00
H70    H     0.53326   0.91919   0.38514   0.00000  Uiso   1.00
H71    H     0.43922   0.04918   0.34570   0.00000  Uiso   1.00
H72    H     0.45441   0.94584   0.56172   0.00000  Uiso   1.00
H73    H     0.71949   0.77887   0.25673   0.00000  Uiso   1.00
H74    H     0.31390   0.16757   0.28833   0.00000  Uiso   1.00
H75    H     0.34595   0.94966   0.74382   0.00000  Uiso   1.00
H76    H     0.90493   0.59756   0.10068   0.00000  Uiso   1.00
H77    H     0.37122   0.72083   0.27973   0.00000  Uiso   1.00
H78    H     0.26828   0.83993   0.23450   0.00000  Uiso   1.00
H79    H     0.28347   0.73660   0.45053   0.00000  Uiso   1.00
H80    H     0.54855   0.56963   0.14553   0.00000  Uiso   1.00
H81    H     0.17515   0.99774   0.19808   0.00000  Uiso   1.00
H82    H     0.20721   0.77982   0.65357   0.00000  Uiso   1.00
H83    H     0.76618   0.42773   0.01043   0.00000  Uiso   1.00
O84    O     0.17971   0.16460   0.21538   0.00000  Uiso   1.00
O85    O     0.22178   0.87869   0.81296   0.00000  Uiso   1.00
O86    O     0.95514   0.41676   0.96918   0.00000  Uiso   1.00
N87    N     0.29538   0.11124   0.27328   0.00000  Uiso   1.00
N88    N     0.32534   0.90752   0.69913   0.00000  Uiso   1.00
N89    N     0.84794   0.57833   0.09787   0.00000  Uiso   1.00
N90    N     0.22073   0.01986   0.22471   0.00000  Uiso   1.00
N91    N     0.25069   0.81614   0.65057   0.00000  Uiso   1.00
N92    N     0.77328   0.48695   0.04931   0.00000  Uiso   1.00
C93    C     0.85722   0.63981   0.51246   0.00000  Uiso   1.00
C94    C     0.74832   0.67405   0.59101   0.00000  Uiso   1.00
C95    C     0.72477   0.67666   0.68058   0.00000  Uiso   1.00
C96    C     0.62035   0.71037   0.74230   0.00000  Uiso   1.00
C97    C     0.46312   0.75893   0.86836   0.00000  Uiso   1.00
C98    C     0.87284   0.55772   0.41903   0.00000  Uiso   1.00
C99    C     0.95400   0.46254   0.36399   0.00000  Uiso   1.00
C100   C     0.95441   0.39834   0.28092   0.00000  Uiso   1.00
C101   C     0.99055   0.26632   0.13993   0.00000  Uiso   1.00
C102   C     0.85210   0.72549   0.49328   0.00000  Uiso   1.00
C103   C     0.91584   0.77135   0.50066   0.00000  Uiso   1.00
C104   C     0.89879   0.84838   0.48008   0.00000  Uiso   1.00
C105   C     0.90272   0.97685   0.45439   0.00000  Uiso   1.00
C106   C     0.71364   0.69504   0.46278   0.00000  Uiso   1.00
C107   C     0.67034   0.70404   0.56402   0.00000  Uiso   1.00
C108   C     0.56591   0.73777   0.62562   0.00000  Uiso   1.00
C109   C     0.54221   0.74043   0.71527   0.00000  Uiso   1.00
C110   C     0.79486   0.58772   0.39204   0.00000  Uiso   1.00
C111   C     0.79515   0.52365   0.30903   0.00000  Uiso   1.00
C112   C     0.87628   0.42839   0.25389   0.00000  Uiso   1.00
C113   C     0.77411   0.75549   0.46630   0.00000  Uiso   1.00
C114   C     0.75697   0.83246   0.44570   0.00000  Uiso   1.00
C115   C     0.82066   0.87844   0.45305   0.00000  Uiso   1.00
H116   H     0.91794   0.61645   0.53346   0.00000  Uiso   1.00
H117   H     0.78515   0.65343   0.70143   0.00000  Uiso   1.00
H118   H     0.01435   0.43935   0.38489   0.00000  Uiso   1.00
H119   H     0.97618   0.74812   0.52154   0.00000  Uiso   1.00
H120   H     0.60354   0.70763   0.87575   0.00000  Uiso   1.00
H121   H     0.08684   0.25624   0.20828   0.00000  Uiso   1.00
H122   H     0.00635   0.90733   0.49643   0.00000  Uiso   1.00
H123   H     0.65292   0.71839   0.44177   0.00000  Uiso   1.00
H124   H     0.50558   0.76097   0.60472   0.00000  Uiso   1.00
H125   H     0.73478   0.54689   0.28817   0.00000  Uiso   1.00
H126   H     0.69661   0.85566   0.42483   0.00000  Uiso   1.00
H127   H     0.37663   0.79491   0.79726   0.00000  Uiso   1.00
H128   H     0.85994   0.34352   0.12977   0.00000  Uiso   1.00
H129   H     0.77944   0.99461   0.41793   0.00000  Uiso   1.00
O130   O     0.39795   0.77741   0.94534   0.00000  Uiso   1.00
O131   O     0.03203   0.18521   0.06963   0.00000  Uiso   1.00
O132   O     0.92643   0.03943   0.44768   0.00000  Uiso   1.00
N133   N     0.57035   0.72234   0.83492   0.00000  Uiso   1.00
N134   N     0.02220   0.30032   0.21088   0.00000  Uiso   1.00
N135   N     0.94697   0.90902   0.48026   0.00000  Uiso   1.00
N136   N     0.44826   0.76931   0.79269   0.00000  Uiso   1.00
N137   N     0.90011   0.34728   0.16864   0.00000  Uiso   1.00
N138   N     0.82488   0.95598   0.43802   0.00000  Uiso   1.00
C139   C     0.63078   0.51193   0.87272   0.00000  Uiso   1.00
C140   C     0.66131   0.59226   0.91654   0.00000  Uiso   1.00
C141   C     0.59604   0.68173   0.00273   0.00000  Uiso   1.00
C142   C     0.63879   0.74523   0.03038   0.00000  Uiso   1.00
C143   C     0.67034   0.87376   0.10705   0.00000  Uiso   1.00
C144   C     0.70759   0.41859   0.86140   0.00000  Uiso   1.00
C145   C     0.68122   0.36205   0.90121   0.00000  Uiso   1.00
C146   C     0.76294   0.27935   0.88243   0.00000  Uiso   1.00
C147   C     0.86633   0.13823   0.87343   0.00000  Uiso   1.00
C148   C     0.65503   0.49319   0.76885   0.00000  Uiso   1.00
C149   C     0.58448   0.49934   0.73084   0.00000  Uiso   1.00
C150   C     0.62196   0.47943   0.63413   0.00000  Uiso   1.00
C151   C     0.64375   0.45413   0.48144   0.00000  Uiso   1.00
C152   C     0.82279   0.46560   0.76856   0.00000  Uiso   1.00
C153   C     0.76560   0.56708   0.85996   0.00000  Uiso   1.00
C154   C     0.80847   0.63047   0.88748   0.00000  Uiso   1.00
C155   C     0.74327   0.72002   0.97370   0.00000  Uiso   1.00
C156   C     0.81188   0.39343   0.80482   0.00000  Uiso   1.00
C157   C     0.89365   0.31079   0.78597   0.00000  Uiso   1.00
C158   C     0.86742   0.25414   0.82575   0.00000  Uiso   1.00
C159   C     0.75932   0.46803   0.71227   0.00000  Uiso   1.00
C160   C     0.79691   0.44809   0.61560   0.00000  Uiso   1.00
C161   C     0.72643   0.45421   0.57745   0.00000  Uiso   1.00
H162   H     0.54959   0.53152   0.91677   0.00000  Uiso   1.00
H163   H     0.51533   0.70117   0.04650   0.00000  Uiso   1.00
H164   H     0.60051   0.38154   0.94499   0.00000  Uiso   1.00
H165   H     0.50378   0.51882   0.77464   0.00000  Uiso   1.00
H166   H     0.52335   0.87816   0.16539   0.00000  Uiso   1.00
H167   H     0.70295   0.20417   0.95133   0.00000  Uiso   1.00
H168   H     0.49898   0.49364   0.59212   0.00000  Uiso   1.00
H169   H     0.90399   0.44600   0.72451   0.00000  Uiso   1.00
H170   H     0.88918   0.61097   0.84369   0.00000  Uiso   1.00
H171   H     0.97435   0.29134   0.74218   0.00000  Uiso   1.00
H172   H     0.87762   0.42862   0.57184   0.00000  Uiso   1.00
H173   H     0.82678   0.80494   0.00079   0.00000  Uiso   1.00
H174   H     0.00637   0.13095   0.78672   0.00000  Uiso   1.00
H175   H     0.80241   0.42043   0.42752   0.00000  Uiso   1.00
O176   O     0.65894   0.95160   0.16497   0.00000  Uiso   1.00
O177   O     0.89455   0.06735   0.88411   0.00000  Uiso   1.00
O178   O     0.62696   0.44714   0.41285   0.00000  Uiso   1.00
N179   N     0.59679   0.83829   0.11029   0.00000  Uiso   1.00
N180   N     0.76470   0.20817   0.91016   0.00000  Uiso   1.00
N181   N     0.57402   0.47878   0.57433   0.00000  Uiso   1.00
N182   N     0.76006   0.79890   0.02171   0.00000  Uiso   1.00
N183   N     0.92797   0.16877   0.82159   0.00000  Uiso   1.00
N184   N     0.73729   0.43938   0.48575   0.00000  Uiso   1.00
C185   C     0.50386   0.12625   0.63901   0.00000  Uiso   1.00
C186   C     0.57742   0.08314   0.67507   0.00000  Uiso   1.00
C187   C     0.59769   0.99598   0.67832   0.00000  Uiso   1.00
C188   C     0.66743   0.96922   0.71373   0.00000  Uiso   1.00
C189   C     0.77444   0.89337   0.76495   0.00000  Uiso   1.00
C190   C     0.56918   0.13927   0.55769   0.00000  Uiso   1.00
C191   C     0.58251   0.09932   0.46226   0.00000  Uiso   1.00
C192   C     0.64530   0.11983   0.39886   0.00000  Uiso   1.00
C193   C     0.73945   0.13118   0.26787   0.00000  Uiso   1.00
C194   C     0.42516   0.22999   0.72341   0.00000  Uiso   1.00
C195   C     0.31738   0.26632   0.76729   0.00000  Uiso   1.00
C196   C     0.25891   0.36321   0.84341   0.00000  Uiso   1.00
C197   C     0.12945   0.51542   0.96971   0.00000  Uiso   1.00
C198   C     0.59166   0.23372   0.69612   0.00000  Uiso   1.00
C199   C     0.62511   0.14152   0.70608   0.00000  Uiso   1.00
C200   C     0.69483   0.11488   0.74150   0.00000  Uiso   1.00
C201   C     0.71520   0.02770   0.74481   0.00000  Uiso   1.00
C202   C     0.61687   0.19764   0.58871   0.00000  Uiso   1.00
C203   C     0.67965   0.21822   0.52544   0.00000  Uiso   1.00
C204   C     0.69307   0.17830   0.42994   0.00000  Uiso   1.00
C205   C     0.47284   0.28836   0.75443   0.00000  Uiso   1.00
C206   C     0.41453   0.38522   0.83048   0.00000  Uiso   1.00
C207   C     0.30669   0.42169   0.87448   0.00000  Uiso   1.00
H208   H     0.46674   0.08081   0.61486   0.00000  Uiso   1.00
H209   H     0.56078   0.95082   0.65430   0.00000  Uiso   1.00
H210   H     0.54559   0.05416   0.43828   0.00000  Uiso   1.00
H211   H     0.28051   0.22113   0.74327   0.00000  Uiso   1.00
H212   H     0.68610   0.83243   0.71167   0.00000  Uiso   1.00
H213   H     0.65405   0.05034   0.25619   0.00000  Uiso   1.00
H214   H     0.09507   0.40244   0.89932   0.00000  Uiso   1.00
H215   H     0.62878   0.27917   0.72027   0.00000  Uiso   1.00
H216   H     0.73172   0.16007   0.76550   0.00000  Uiso   1.00
H217   H     0.71653   0.26340   0.54947   0.00000  Uiso   1.00
H218   H     0.45145   0.43037   0.85447   0.00000  Uiso   1.00
H219   H     0.82485   0.00226   0.80192   0.00000  Uiso   1.00
H220   H     0.79279   0.22018   0.34643   0.00000  Uiso   1.00
H221   H     0.23382   0.57227   0.98957   0.00000  Uiso   1.00
O222   O     0.82029   0.83540   0.78462   0.00000  Uiso   1.00
O223   O     0.77822   0.12131   0.18704   0.00000  Uiso   1.00
O224   O     0.04486   0.58324   0.03082   0.00000  Uiso   1.00
N225   N     0.70461   0.88876   0.72673   0.00000  Uiso   1.00
N226   N     0.67466   0.09248   0.30087   0.00000  Uiso   1.00
N227   N     0.15206   0.42167   0.90213   0.00000  Uiso   1.00
N228   N     0.77927   0.98014   0.77529   0.00000  Uiso   1.00
N229   N     0.74931   0.18387   0.34943   0.00000  Uiso   1.00
N230   N     0.22672   0.51305   0.95069   0.00000  Uiso   1.00
C231   C     0.14278   0.36019   0.48754   0.00000  Uiso   1.00
C232   C     0.25168   0.32595   0.40899   0.00000  Uiso   1.00
C233   C     0.27523   0.32334   0.31942   0.00000  Uiso   1.00
C234   C     0.37965   0.28963   0.25770   0.00000  Uiso   1.00
C235   C     0.53688   0.24107   0.13164   0.00000  Uiso   1.00
C236   C     0.12716   0.44228   0.58097   0.00000  Uiso   1.00
C237   C     0.04599   0.53746   0.63601   0.00000  Uiso   1.00
C238   C     0.04559   0.60166   0.71908   0.00000  Uiso   1.00
C239   C     0.00945   0.73368   0.86007   0.00000  Uiso   1.00
C240   C     0.14790   0.27451   0.50672   0.00000  Uiso   1.00
C241   C     0.08416   0.22865   0.49934   0.00000  Uiso   1.00
C242   C     0.10121   0.15162   0.51992   0.00000  Uiso   1.00
C243   C     0.09728   0.02315   0.54561   0.00000  Uiso   1.00
C244   C     0.28636   0.30496   0.53722   0.00000  Uiso   1.00
C245   C     0.32966   0.29596   0.43598   0.00000  Uiso   1.00
C246   C     0.43409   0.26223   0.37438   0.00000  Uiso   1.00
C247   C     0.45779   0.25957   0.28473   0.00000  Uiso   1.00
C248   C     0.20514   0.41228   0.60796   0.00000  Uiso   1.00
C249   C     0.20485   0.47635   0.69097   0.00000  Uiso   1.00
C250   C     0.12372   0.57161   0.74611   0.00000  Uiso   1.00
C251   C     0.22589   0.24451   0.53370   0.00000  Uiso   1.00
C252   C     0.24303   0.16754   0.55430   0.00000  Uiso   1.00
C253   C     0.17934   0.12156   0.54695   0.00000  Uiso   1.00
H254   H     0.08206   0.38355   0.46654   0.00000  Uiso   1.00
H255   H     0.21485   0.34657   0.29857   0.00000  Uiso   1.00
H256   H     0.98565   0.56065   0.61512   0.00000  Uiso   1.00
H257   H     0.02382   0.25188   0.47846   0.00000  Uiso   1.00
H258   H     0.39646   0.29237   0.12425   0.00000  Uiso   1.00
H259   H     0.91316   0.74376   0.79172   0.00000  Uiso   1.00
H260   H     0.99365   0.09267   0.50357   0.00000  Uiso   1.00
H261   H     0.34708   0.28161   0.55823   0.00000  Uiso   1.00
H262   H     0.49442   0.23903   0.39528   0.00000  Uiso   1.00
H263   H     0.26522   0.45311   0.71183   0.00000  Uiso   1.00
H264   H     0.30339   0.14434   0.57517   0.00000  Uiso   1.00
H265   H     0.62337   0.20509   0.20275   0.00000  Uiso   1.00
H266   H     0.14006   0.65648   0.87023   0.00000  Uiso   1.00
H267   H     0.22056   0.00539   0.58207   0.00000  Uiso   1.00
O268   O     0.60205   0.22259   0.05466   0.00000  Uiso   1.00
O269   O     0.96797   0.81479   0.93037   0.00000  Uiso   1.00
O270   O     0.07357   0.96057   0.55232   0.00000  Uiso   1.00
N271   N     0.42965   0.27766   0.16508   0.00000  Uiso   1.00
N272   N     0.97780   0.69968   0.78912   0.00000  Uiso   1.00
N273   N     0.05303   0.09098   0.51974   0.00000  Uiso   1.00
N274   N     0.55174   0.23069   0.20731   0.00000  Uiso   1.00
N275   N     0.09989   0.65272   0.83136   0.00000  Uiso   1.00
N276   N     0.17512   0.04402   0.56198   0.00000  Uiso   1.00
