data_job_06383
_audit_creation_date              2018-12-19
_audit_creation_method            'Materials Studio'
_symmetry_space_group_name_H-M    'P1'
_symmetry_Int_Tables_number       1
_symmetry_cell_setting            triclinic
loop_
_symmetry_equiv_pos_as_xyz
  x,y,z
_cell_length_a                    17.1150
_cell_length_b                    16.3189
_cell_length_c                    16.0890
_cell_angle_alpha                 101.7080
_cell_angle_beta                  100.6230
_cell_angle_gamma                 101.0760
loop_
_atom_site_label
_atom_site_type_symbol
_atom_site_fract_x
_atom_site_fract_y
_atom_site_fract_z
_atom_site_U_iso_or_equiv
_atom_site_adp_type
_atom_site_occupancy
C1     C     0.44493   0.29103   0.99725   0.00000  Uiso   1.00
C2     C     0.41676   0.20796   0.02430   0.00000  Uiso   1.00
C3     C     0.34054   0.15091   0.99195   0.00000  Uiso   1.00
C4     C     0.32667   0.07858   0.02506   0.00000  Uiso   1.00
C5     C     0.27376   0.95183   0.05749   0.00000  Uiso   1.00
C6     C     0.47118   0.36285   0.08103   0.00000  Uiso   1.00
C7     C     0.44072   0.43604   0.09636   0.00000  Uiso   1.00
C8     C     0.47267   0.49410   0.17723   0.00000  Uiso   1.00
C9     C     0.50429   0.60786   0.29769   0.00000  Uiso   1.00
C10    C     0.52285   0.28379   0.96616   0.00000  Uiso   1.00
C11    C     0.53584   0.29053   0.88492   0.00000  Uiso   1.00
C12    C     0.61130   0.28205   0.86908   0.00000  Uiso   1.00
C13    C     0.72314   0.27306   0.81119   0.00000  Uiso   1.00
C14    C     0.55585   0.26403   0.11359   0.00000  Uiso   1.00
C15    C     0.47701   0.19329   0.08750   0.00000  Uiso   1.00
C16    C     0.46326   0.12103   0.12066   0.00000  Uiso   1.00
C17    C     0.38703   0.06388   0.08837   0.00000  Uiso   1.00
C18    C     0.53143   0.34819   0.14422   0.00000  Uiso   1.00
C19    C     0.56344   0.40616   0.22508   0.00000  Uiso   1.00
C20    C     0.53303   0.47941   0.24053   0.00000  Uiso   1.00
C21    C     0.58310   0.26912   0.02935   0.00000  Uiso   1.00
C22    C     0.65856   0.26064   0.01364   0.00000  Uiso   1.00
C23    C     0.67166   0.26736   0.93238   0.00000  Uiso   1.00
H24    H     0.39802   0.30246   0.94806   0.00000  Uiso   1.00
H25    H     0.29393   0.16229   0.94306   0.00000  Uiso   1.00
H26    H     0.39410   0.44737   0.04745   0.00000  Uiso   1.00
H27    H     0.48920   0.30188   0.83604   0.00000  Uiso   1.00
H28    H     0.20508   0.00042   0.96539   0.00000  Uiso   1.00
H29    H     0.41631   0.60156   0.18550   0.00000  Uiso   1.00
H30    H     0.61686   0.29476   0.73970   0.00000  Uiso   1.00
H31    H     0.60276   0.25261   0.16279   0.00000  Uiso   1.00
H32    H     0.50989   0.10969   0.16956   0.00000  Uiso   1.00
H33    H     0.61006   0.39479   0.27396   0.00000  Uiso   1.00
H34    H     0.70516   0.24929   0.06255   0.00000  Uiso   1.00
H35    H     0.38036   0.95774   0.14924   0.00000  Uiso   1.00
H36    H     0.59160   0.55888   0.36934   0.00000  Uiso   1.00
H37    H     0.79214   0.25208   0.92355   0.00000  Uiso   1.00
O38    O     0.22793   0.88598   0.05792   0.00000  Uiso   1.00
O39    O     0.50507   0.67466   0.34668   0.00000  Uiso   1.00
O40    O     0.76818   0.27214   0.76181   0.00000  Uiso   1.00
N41    N     0.25908   0.00998   0.00772   0.00000  Uiso   1.00
N42    N     0.45656   0.57200   0.21351   0.00000  Uiso   1.00
N43    N     0.64406   0.28520   0.79673   0.00000  Uiso   1.00
N44    N     0.35340   0.98701   0.10665   0.00000  Uiso   1.00
N45    N     0.55088   0.54904   0.31243   0.00000  Uiso   1.00
N46    N     0.73838   0.26223   0.89566   0.00000  Uiso   1.00
C47    C     0.99736   0.44207   0.29026   0.00000  Uiso   1.00
C48    C     0.02165   0.41174   0.20472   0.00000  Uiso   1.00
C49    C     0.98940   0.33177   0.14626   0.00000  Uiso   1.00
C50    C     0.01973   0.31644   0.07173   0.00000  Uiso   1.00
C51    C     0.04828   0.25982   0.94128   0.00000  Uiso   1.00
C52    C     0.07623   0.46817   0.36142   0.00000  Uiso   1.00
C53    C     0.08986   0.43567   0.43471   0.00000  Uiso   1.00
C54    C     0.16614   0.46785   0.49209   0.00000  Uiso   1.00
C55    C     0.27940   0.49890   0.60494   0.00000  Uiso   1.00
C56    C     0.97043   0.52509   0.28519   0.00000  Uiso   1.00
C57    C     0.89511   0.54045   0.29441   0.00000  Uiso   1.00
C58    C     0.88232   0.62056   0.28764   0.00000  Uiso   1.00
C59    C     0.83131   0.73997   0.28214   0.00000  Uiso   1.00
C60    C     0.10858   0.55703   0.26186   0.00000  Uiso   1.00
C61    C     0.08206   0.47418   0.18930   0.00000  Uiso   1.00
C62    C     0.11244   0.45896   0.11484   0.00000  Uiso   1.00
C63    C     0.08024   0.37899   0.05627   0.00000  Uiso   1.00
C64    C     0.13664   0.53061   0.34599   0.00000  Uiso   1.00
C65    C     0.21291   0.56286   0.40328   0.00000  Uiso   1.00
C66    C     0.22665   0.53041   0.47664   0.00000  Uiso   1.00
C67    C     0.03083   0.58753   0.26976   0.00000  Uiso   1.00
C68    C     0.01816   0.66763   0.26298   0.00000  Uiso   1.00
C69    C     0.94283   0.68311   0.27219   0.00000  Uiso   1.00
H70    H     0.95034   0.39346   0.30228   0.00000  Uiso   1.00
H71    H     0.94266   0.28347   0.15823   0.00000  Uiso   1.00
H72    H     0.04310   0.38736   0.44663   0.00000  Uiso   1.00
H73    H     0.84838   0.49211   0.30635   0.00000  Uiso   1.00
H74    H     0.96081   0.18904   0.99173   0.00000  Uiso   1.00
H75    H     0.17259   0.40812   0.59986   0.00000  Uiso   1.00
H76    H     0.76198   0.62902   0.30406   0.00000  Uiso   1.00
H77    H     0.15561   0.60565   0.24985   0.00000  Uiso   1.00
H78    H     0.15919   0.50729   0.10292   0.00000  Uiso   1.00
H79    H     0.25963   0.61118   0.39133   0.00000  Uiso   1.00
H80    H     0.06491   0.71594   0.25105   0.00000  Uiso   1.00
H81    H     0.13655   0.37070   0.94684   0.00000  Uiso   1.00
H82    H     0.34833   0.58978   0.55498   0.00000  Uiso   1.00
H83    H     0.93773   0.81068   0.25917   0.00000  Uiso   1.00
O84    O     0.04735   0.21133   0.87359   0.00000  Uiso   1.00
O85    O     0.32519   0.49876   0.67144   0.00000  Uiso   1.00
O86    O     0.78649   0.78858   0.28335   0.00000  Uiso   1.00
N87    N     0.00167   0.24530   0.00132   0.00000  Uiso   1.00
N88    N     0.19967   0.45011   0.56988   0.00000  Uiso   1.00
N89    N     0.81580   0.65665   0.29336   0.00000  Uiso   1.00
N90    N     0.09623   0.34305   0.97717   0.00000  Uiso   1.00
N91    N     0.29424   0.54786   0.54573   0.00000  Uiso   1.00
N92    N     0.91037   0.75440   0.26920   0.00000  Uiso   1.00
C93    C     0.29089   0.99641   0.44136   0.00000  Uiso   1.00
C94    C     0.21179   0.02380   0.41329   0.00000  Uiso   1.00
C95    C     0.15632   0.99085   0.33309   0.00000  Uiso   1.00
C96    C     0.08767   0.02441   0.32006   0.00000  Uiso   1.00
C97    C     0.96679   0.05719   0.26658   0.00000  Uiso   1.00
C98    C     0.35928   0.07839   0.46744   0.00000  Uiso   1.00
C99    C     0.42784   0.09134   0.43278   0.00000  Uiso   1.00
C100   C     0.48335   0.17085   0.46535   0.00000  Uiso   1.00
C101   C     0.59149   0.28837   0.49599   0.00000  Uiso   1.00
C102   C     0.28563   0.96805   0.52523   0.00000  Uiso   1.00
C103   C     0.29228   0.88823   0.53917   0.00000  Uiso   1.00
C104   C     0.28579   0.87485   0.62040   0.00000  Uiso   1.00
C105   C     0.27958   0.82105   0.74076   0.00000  Uiso   1.00
C106   C     0.26758   0.11460   0.56084   0.00000  Uiso   1.00
C107   C     0.19913   0.08799   0.47819   0.00000  Uiso   1.00
C108   C     0.13054   0.12161   0.46528   0.00000  Uiso   1.00
C109   C     0.07498   0.08871   0.38507   0.00000  Uiso   1.00
C110   C     0.34663   0.14258   0.53234   0.00000  Uiso   1.00
C111   C     0.40205   0.22209   0.56497   0.00000  Uiso   1.00
C112   C     0.47067   0.23516   0.53036   0.00000  Uiso   1.00
C113   C     0.27297   0.03224   0.59013   0.00000  Uiso   1.00
C114   C     0.26649   0.01899   0.67135   0.00000  Uiso   1.00
C115   C     0.27312   0.93916   0.68541   0.00000  Uiso   1.00
H116   H     0.30075   0.94644   0.39084   0.00000  Uiso   1.00
H117   H     0.16614   0.94118   0.28288   0.00000  Uiso   1.00
H118   H     0.43762   0.04165   0.38257   0.00000  Uiso   1.00
H119   H     0.30207   0.83857   0.48893   0.00000  Uiso   1.00
H120   H     0.01134   0.96367   0.19180   0.00000  Uiso   1.00
H121   H     0.58378   0.17550   0.40201   0.00000  Uiso   1.00
H122   H     0.29795   0.74728   0.62630   0.00000  Uiso   1.00
H123   H     0.25773   0.16458   0.61137   0.00000  Uiso   1.00
H124   H     0.12076   0.17129   0.51551   0.00000  Uiso   1.00
H125   H     0.39224   0.27175   0.61520   0.00000  Uiso   1.00
H126   H     0.25669   0.06868   0.72156   0.00000  Uiso   1.00
H127   H     0.97451   0.15044   0.38061   0.00000  Uiso   1.00
H128   H     0.54695   0.36227   0.59082   0.00000  Uiso   1.00
H129   H     0.26112   0.93405   0.81511   0.00000  Uiso   1.00
O130   O     0.90362   0.05755   0.21915   0.00000  Uiso   1.00
O131   O     0.65463   0.33546   0.49496   0.00000  Uiso   1.00
O132   O     0.27963   0.77364   0.78921   0.00000  Uiso   1.00
N133   N     0.02146   0.00670   0.24940   0.00000  Uiso   1.00
N134   N     0.55665   0.20475   0.44592   0.00000  Uiso   1.00
N135   N     0.28945   0.80440   0.65562   0.00000  Uiso   1.00
N136   N     0.00164   0.10719   0.35099   0.00000  Uiso   1.00
N137   N     0.53683   0.30525   0.54752   0.00000  Uiso   1.00
N138   N     0.26963   0.90490   0.75722   0.00000  Uiso   1.00
C139   C     0.94490   0.49727   0.79113   0.00000  Uiso   1.00
C140   C     0.91687   0.52347   0.70686   0.00000  Uiso   1.00
C141   C     0.84067   0.49101   0.64947   0.00000  Uiso   1.00
C142   C     0.82693   0.52330   0.57602   0.00000  Uiso   1.00
C143   C     0.77421   0.55451   0.44754   0.00000  Uiso   1.00
C144   C     0.97116   0.58022   0.86357   0.00000  Uiso   1.00
C145   C     0.94063   0.59545   0.93793   0.00000  Uiso   1.00
C146   C     0.97261   0.67550   0.99639   0.00000  Uiso   1.00
C147   C     0.00423   0.79479   0.11123   0.00000  Uiso   1.00
C148   C     0.02279   0.46699   0.78350   0.00000  Uiso   1.00
C149   C     0.03568   0.38702   0.79058   0.00000  Uiso   1.00
C150   C     0.11113   0.37176   0.78165   0.00000  Uiso   1.00
C151   C     0.22291   0.31523   0.77218   0.00000  Uiso   1.00
C152   C     0.05599   0.61235   0.76273   0.00000  Uiso   1.00
C153   C     0.97721   0.58599   0.69144   0.00000  Uiso   1.00
C154   C     0.96358   0.61833   0.61805   0.00000  Uiso   1.00
C155   C     0.88738   0.58592   0.56056   0.00000  Uiso   1.00
C156   C     0.03150   0.64273   0.84814   0.00000  Uiso   1.00
C157   C     0.06354   0.72278   0.90651   0.00000  Uiso   1.00
C158   C     0.03306   0.73813   0.98094   0.00000  Uiso   1.00
C159   C     0.08313   0.52950   0.76808   0.00000  Uiso   1.00
C160   C     0.15858   0.51435   0.75915   0.00000  Uiso   1.00
C161   C     0.17158   0.43438   0.76620   0.00000  Uiso   1.00
H162   H     0.89792   0.44861   0.80314   0.00000  Uiso   1.00
H163   H     0.79399   0.44263   0.66144   0.00000  Uiso   1.00
H164   H     0.89394   0.54706   0.94985   0.00000  Uiso   1.00
H165   H     0.98897   0.33867   0.80251   0.00000  Uiso   1.00
H166   H     0.70536   0.46361   0.49754   0.00000  Uiso   1.00
H167   H     0.91613   0.68378   0.10570   0.00000  Uiso   1.00
H168   H     0.11652   0.24434   0.79501   0.00000  Uiso   1.00
H169   H     0.10297   0.66102   0.75073   0.00000  Uiso   1.00
H170   H     0.01029   0.66671   0.60613   0.00000  Uiso   1.00
H171   H     0.11024   0.77113   0.89455   0.00000  Uiso   1.00
H172   H     0.20526   0.56274   0.74721   0.00000  Uiso   1.00
H173   H     0.88092   0.64548   0.45266   0.00000  Uiso   1.00
H174   H     0.09169   0.86564   0.06082   0.00000  Uiso   1.00
H175   H     0.29207   0.42621   0.75012   0.00000  Uiso   1.00
O176   O     0.72846   0.55447   0.38095   0.00000  Uiso   1.00
O177   O     0.00500   0.84331   0.17883   0.00000  Uiso   1.00
O178   O     0.26789   0.26679   0.77121   0.00000  Uiso   1.00
N179   N     0.75940   0.50562   0.50681   0.00000  Uiso   1.00
N180   N     0.95645   0.71147   0.07540   0.00000  Uiso   1.00
N181   N     0.14380   0.30064   0.78495   0.00000  Uiso   1.00
N182   N     0.85387   0.60348   0.48266   0.00000  Uiso   1.00
N183   N     0.05092   0.80933   0.05125   0.00000  Uiso   1.00
N184   N     0.23827   0.39850   0.76080   0.00000  Uiso   1.00
C185   C     0.49742   0.79019   0.94140   0.00000  Uiso   1.00
C186   C     0.52164   0.70591   0.91081   0.00000  Uiso   1.00
C187   C     0.48942   0.64784   0.83005   0.00000  Uiso   1.00
C188   C     0.51968   0.57449   0.81461   0.00000  Uiso   1.00
C189   C     0.54814   0.44587   0.75749   0.00000  Uiso   1.00
C190   C     0.57634   0.86079   0.96723   0.00000  Uiso   1.00
C191   C     0.59010   0.93296   0.93390   0.00000  Uiso   1.00
C192   C     0.66640   0.99000   0.96596   0.00000  Uiso   1.00
C193   C     0.77977   0.10188   0.99648   0.00000  Uiso   1.00
C194   C     0.47038   0.78537   0.02580   0.00000  Uiso   1.00
C195   C     0.39505   0.79414   0.04174   0.00000  Uiso   1.00
C196   C     0.38215   0.78770   0.12312   0.00000  Uiso   1.00
C197   C     0.33100   0.78247   0.24458   0.00000  Uiso   1.00
C198   C     0.60846   0.76318   0.05761   0.00000  Uiso   1.00
C199   C     0.58195   0.69124   0.97393   0.00000  Uiso   1.00
C200   C     0.61227   0.61796   0.95861   0.00000  Uiso   1.00
C201   C     0.58009   0.55979   0.87784   0.00000  Uiso   1.00
C202   C     0.63665   0.84612   0.03034   0.00000  Uiso   1.00
C203   C     0.71295   0.90307   0.06247   0.00000  Uiso   1.00
C204   C     0.72682   0.97530   0.02919   0.00000  Uiso   1.00
C205   C     0.53069   0.77070   0.08892   0.00000  Uiso   1.00
C206   C     0.51790   0.76425   0.17030   0.00000  Uiso   1.00
C207   C     0.44257   0.77300   0.18635   0.00000  Uiso   1.00
H208   H     0.45047   0.80162   0.89227   0.00000  Uiso   1.00
H209   H     0.44275   0.65922   0.78121   0.00000  Uiso   1.00
H210   H     0.54341   0.94430   0.88506   0.00000  Uiso   1.00
H211   H     0.34840   0.80549   0.99288   0.00000  Uiso   1.00
H212   H     0.46081   0.49489   0.68592   0.00000  Uiso   1.00
H213   H     0.67305   0.09601   0.90491   0.00000  Uiso   1.00
H214   H     0.26182   0.80332   0.13225   0.00000  Uiso   1.00
H215   H     0.65541   0.75176   0.10675   0.00000  Uiso   1.00
H216   H     0.65894   0.60662   0.00747   0.00000  Uiso   1.00
H217   H     0.75960   0.89170   0.11132   0.00000  Uiso   1.00
H218   H     0.56459   0.75290   0.21913   0.00000  Uiso   1.00
H219   H     0.63628   0.45221   0.86955   0.00000  Uiso   1.00
H220   H     0.84853   0.05332   0.08855   0.00000  Uiso   1.00
H221   H     0.43730   0.76063   0.31589   0.00000  Uiso   1.00
O222   O     0.54719   0.37899   0.70854   0.00000  Uiso   1.00
O223   O     0.82563   0.16763   0.99586   0.00000  Uiso   1.00
O224   O     0.28611   0.78362   0.29413   0.00000  Uiso   1.00
N225   N     0.50161   0.50476   0.74277   0.00000  Uiso   1.00
N226   N     0.70005   0.06676   0.94750   0.00000  Uiso   1.00
N227   N     0.31559   0.79314   0.16006   0.00000  Uiso   1.00
N228   N     0.59603   0.48179   0.84158   0.00000  Uiso   1.00
N229   N     0.79447   0.04379   0.04631   0.00000  Uiso   1.00
N230   N     0.41001   0.77017   0.25887   0.00000  Uiso   1.00
C231   C     0.79086   0.94206   0.49635   0.00000  Uiso   1.00
C232   C     0.71170   0.91411   0.52464   0.00000  Uiso   1.00
C233   C     0.65618   0.83469   0.49178   0.00000  Uiso   1.00
C234   C     0.58746   0.82163   0.52623   0.00000  Uiso   1.00
C235   C     0.46648   0.76846   0.56031   0.00000  Uiso   1.00
C236   C     0.85919   0.96841   0.57910   0.00000  Uiso   1.00
C237   C     0.92769   0.93464   0.59202   0.00000  Uiso   1.00
C238   C     0.98315   0.96730   0.67231   0.00000  Uiso   1.00
C239   C     0.09118   0.99847   0.79091   0.00000  Uiso   1.00
C240   C     0.78574   0.02457   0.46728   0.00000  Uiso   1.00
C241   C     0.79250   0.03804   0.38619   0.00000  Uiso   1.00
C242   C     0.78613   0.11800   0.37234   0.00000  Uiso   1.00
C243   C     0.78013   0.23638   0.31733   0.00000  Uiso   1.00
C244   C     0.76756   0.06012   0.61596   0.00000  Uiso   1.00
C245   C     0.69904   0.97824   0.58961   0.00000  Uiso   1.00
C246   C     0.63039   0.96530   0.62412   0.00000  Uiso   1.00
C247   C     0.57478   0.88587   0.59131   0.00000  Uiso   1.00
C248   C     0.84654   0.03253   0.64406   0.00000  Uiso   1.00
C249   C     0.90191   0.06526   0.72435   0.00000  Uiso   1.00
C250   C     0.97047   0.03154   0.73739   0.00000  Uiso   1.00
C251   C     0.77308   0.08870   0.53224   0.00000  Uiso   1.00
C252   C     0.76671   0.16866   0.51852   0.00000  Uiso   1.00
C253   C     0.77346   0.18224   0.43743   0.00000  Uiso   1.00
H254   H     0.80072   0.89214   0.44577   0.00000  Uiso   1.00
H255   H     0.66600   0.78507   0.44151   0.00000  Uiso   1.00
H256   H     0.93747   0.88502   0.54173   0.00000  Uiso   1.00
H257   H     0.80230   0.98841   0.33593   0.00000  Uiso   1.00
H258   H     0.51106   0.69464   0.46546   0.00000  Uiso   1.00
H259   H     0.08349   0.90540   0.67676   0.00000  Uiso   1.00
H260   H     0.79845   0.12341   0.24280   0.00000  Uiso   1.00
H261   H     0.75771   0.11005   0.66654   0.00000  Uiso   1.00
H262   H     0.62062   0.01494   0.67439   0.00000  Uiso   1.00
H263   H     0.89209   0.11488   0.77461   0.00000  Uiso   1.00
H264   H     0.75692   0.21827   0.56881   0.00000  Uiso   1.00
H265   H     0.47423   0.88120   0.65448   0.00000  Uiso   1.00
H266   H     0.04667   0.09197   0.86578   0.00000  Uiso   1.00
H267   H     0.76162   0.30997   0.43182   0.00000  Uiso   1.00
O268   O     0.40325   0.72141   0.56117   0.00000  Uiso   1.00
O269   O     0.15427   0.99793   0.83838   0.00000  Uiso   1.00
O270   O     0.78030   0.28395   0.26903   0.00000  Uiso   1.00
N271   N     0.52120   0.75161   0.50886   0.00000  Uiso   1.00
N272   N     0.05638   0.94864   0.70642   0.00000  Uiso   1.00
N273   N     0.78992   0.15247   0.30070   0.00000  Uiso   1.00
N274   N     0.50138   0.85199   0.61056   0.00000  Uiso   1.00
N275   N     0.03656   0.04903   0.80812   0.00000  Uiso   1.00
N276   N     0.77010   0.25286   0.40241   0.00000  Uiso   1.00
