data_job_01893
_audit_creation_date              2018-12-19
_audit_creation_method            'Materials Studio'
_symmetry_space_group_name_H-M    'P1'
_symmetry_Int_Tables_number       1
_symmetry_cell_setting            triclinic
loop_
_symmetry_equiv_pos_as_xyz
  x,y,z
_cell_length_a                    37.1905
_cell_length_b                    18.0364
_cell_length_c                    9.4611
_cell_angle_alpha                 90.0000
_cell_angle_beta                  95.6213
_cell_angle_gamma                 90.0000
loop_
_atom_site_label
_atom_site_type_symbol
_atom_site_fract_x
_atom_site_fract_y
_atom_site_fract_z
_atom_site_U_iso_or_equiv
_atom_site_adp_type
_atom_site_occupancy
C1     C     0.16070   0.44167   0.38146   0.00000  Uiso   1.00
C2     C     0.19461   0.44611   0.30336   0.00000  Uiso   1.00
C3     C     0.21725   0.50713   0.30031   0.00000  Uiso   1.00
C4     C     0.24690   0.50014   0.22280   0.00000  Uiso   1.00
C5     C     0.29852   0.51705   0.11240   0.00000  Uiso   1.00
C6     C     0.12998   0.42094   0.26977   0.00000  Uiso   1.00
C7     C     0.09828   0.46080   0.23850   0.00000  Uiso   1.00
C8     C     0.07351   0.43261   0.13272   0.00000  Uiso   1.00
C9     C     0.02477   0.41041   0.97025   0.00000  Uiso   1.00
C10    C     0.16600   0.37508   0.48062   0.00000  Uiso   1.00
C11    C     0.16458   0.37636   0.62663   0.00000  Uiso   1.00
C12    C     0.17014   0.30955   0.69837   0.00000  Uiso   1.00
C13    C     0.17733   0.21614   0.86326   0.00000  Uiso   1.00
C14    C     0.17309   0.32074   0.24922   0.00000  Uiso   1.00
C15    C     0.20134   0.38043   0.23153   0.00000  Uiso   1.00
C16    C     0.23096   0.37334   0.15401   0.00000  Uiso   1.00
C17    C     0.25364   0.43434   0.15085   0.00000  Uiso   1.00
C18    C     0.13671   0.35526   0.19794   0.00000  Uiso   1.00
C19    C     0.11198   0.32701   0.09220   0.00000  Uiso   1.00
C20    C     0.08025   0.36681   0.06077   0.00000  Uiso   1.00
C21    C     0.17273   0.30939   0.40879   0.00000  Uiso   1.00
C22    C     0.17829   0.24257   0.48032   0.00000  Uiso   1.00
C23    C     0.17687   0.24375   0.62641   0.00000  Uiso   1.00
H24    H     0.15546   0.49280   0.43737   0.00000  Uiso   1.00
H25    H     0.21204   0.55796   0.35590   0.00000  Uiso   1.00
H26    H     0.09308   0.51162   0.29411   0.00000  Uiso   1.00
H27    H     0.15937   0.42720   0.68217   0.00000  Uiso   1.00
H28    H     0.27772   0.60124   0.23386   0.00000  Uiso   1.00
H29    H     0.02688   0.50352   0.10360   0.00000  Uiso   1.00
H30    H     0.16667   0.32550   0.92191   0.00000  Uiso   1.00
H31    H     0.17833   0.26960   0.19330   0.00000  Uiso   1.00
H32    H     0.23616   0.32251   0.09843   0.00000  Uiso   1.00
H33    H     0.11720   0.27617   0.03664   0.00000  Uiso   1.00
H34    H     0.18349   0.19175   0.42470   0.00000  Uiso   1.00
H35    H     0.29730   0.41014   0.02488   0.00000  Uiso   1.00
H36    H     0.04645   0.31242   0.89463   0.00000  Uiso   1.00
H37    H     0.18625   0.13440   0.71293   0.00000  Uiso   1.00
O38    O     0.32513   0.54453   0.07133   0.00000  Uiso   1.00
O39    O     0.99604   0.41632   0.90046   0.00000  Uiso   1.00
O40    O     0.17945   0.18277   0.97406   0.00000  Uiso   1.00
N41    N     0.27439   0.54900   0.19772   0.00000  Uiso   1.00
N42    N     0.03988   0.45765   0.07592   0.00000  Uiso   1.00
N43    N     0.17056   0.29121   0.84097   0.00000  Uiso   1.00
N44    N     0.28493   0.44617   0.08527   0.00000  Uiso   1.00
N45    N     0.05041   0.35482   0.96347   0.00000  Uiso   1.00
N46    N     0.18110   0.18838   0.72852   0.00000  Uiso   1.00
C47    C     0.66070   0.94167   0.38146   0.00000  Uiso   1.00
C48    C     0.69461   0.94611   0.30336   0.00000  Uiso   1.00
C49    C     0.71725   0.00713   0.30031   0.00000  Uiso   1.00
C50    C     0.74690   0.00014   0.22280   0.00000  Uiso   1.00
C51    C     0.79852   0.01705   0.11240   0.00000  Uiso   1.00
C52    C     0.62998   0.92094   0.26977   0.00000  Uiso   1.00
C53    C     0.59828   0.96080   0.23850   0.00000  Uiso   1.00
C54    C     0.57351   0.93261   0.13272   0.00000  Uiso   1.00
C55    C     0.52477   0.91041   0.97025   0.00000  Uiso   1.00
C56    C     0.66600   0.87508   0.48062   0.00000  Uiso   1.00
C57    C     0.66458   0.87636   0.62663   0.00000  Uiso   1.00
C58    C     0.67014   0.80955   0.69837   0.00000  Uiso   1.00
C59    C     0.67733   0.71614   0.86326   0.00000  Uiso   1.00
C60    C     0.67309   0.82074   0.24922   0.00000  Uiso   1.00
C61    C     0.70134   0.88043   0.23153   0.00000  Uiso   1.00
C62    C     0.73096   0.87334   0.15401   0.00000  Uiso   1.00
C63    C     0.75364   0.93434   0.15085   0.00000  Uiso   1.00
C64    C     0.63671   0.85526   0.19794   0.00000  Uiso   1.00
C65    C     0.61198   0.82701   0.09220   0.00000  Uiso   1.00
C66    C     0.58025   0.86681   0.06077   0.00000  Uiso   1.00
C67    C     0.67273   0.80939   0.40879   0.00000  Uiso   1.00
C68    C     0.67829   0.74257   0.48032   0.00000  Uiso   1.00
C69    C     0.67687   0.74375   0.62641   0.00000  Uiso   1.00
H70    H     0.65546   0.99280   0.43737   0.00000  Uiso   1.00
H71    H     0.71204   0.05796   0.35590   0.00000  Uiso   1.00
H72    H     0.59308   0.01162   0.29411   0.00000  Uiso   1.00
H73    H     0.65937   0.92720   0.68217   0.00000  Uiso   1.00
H74    H     0.77772   0.10124   0.23386   0.00000  Uiso   1.00
H75    H     0.52688   0.00352   0.10360   0.00000  Uiso   1.00
H76    H     0.66667   0.82550   0.92191   0.00000  Uiso   1.00
H77    H     0.67833   0.76960   0.19330   0.00000  Uiso   1.00
H78    H     0.73616   0.82251   0.09843   0.00000  Uiso   1.00
H79    H     0.61720   0.77617   0.03664   0.00000  Uiso   1.00
H80    H     0.68349   0.69175   0.42470   0.00000  Uiso   1.00
H81    H     0.79730   0.91014   0.02488   0.00000  Uiso   1.00
H82    H     0.54645   0.81242   0.89463   0.00000  Uiso   1.00
H83    H     0.68625   0.63440   0.71293   0.00000  Uiso   1.00
O84    O     0.82513   0.04453   0.07133   0.00000  Uiso   1.00
O85    O     0.49604   0.91632   0.90046   0.00000  Uiso   1.00
O86    O     0.67945   0.68277   0.97406   0.00000  Uiso   1.00
N87    N     0.77439   0.04900   0.19772   0.00000  Uiso   1.00
N88    N     0.53988   0.95765   0.07592   0.00000  Uiso   1.00
N89    N     0.67056   0.79121   0.84097   0.00000  Uiso   1.00
N90    N     0.78493   0.94617   0.08527   0.00000  Uiso   1.00
N91    N     0.55041   0.85482   0.96347   0.00000  Uiso   1.00
N92    N     0.68110   0.68838   0.72852   0.00000  Uiso   1.00
C93    C     0.83930   0.44167   0.11854   0.00000  Uiso   1.00
C94    C     0.80539   0.44611   0.19664   0.00000  Uiso   1.00
C95    C     0.78275   0.50713   0.19969   0.00000  Uiso   1.00
C96    C     0.75310   0.50014   0.27720   0.00000  Uiso   1.00
C97    C     0.70148   0.51705   0.38760   0.00000  Uiso   1.00
C98    C     0.87002   0.42094   0.23023   0.00000  Uiso   1.00
C99    C     0.90172   0.46080   0.26150   0.00000  Uiso   1.00
C100   C     0.92649   0.43261   0.36728   0.00000  Uiso   1.00
C101   C     0.97523   0.41041   0.52975   0.00000  Uiso   1.00
C102   C     0.83400   0.37508   0.01938   0.00000  Uiso   1.00
C103   C     0.83542   0.37636   0.87337   0.00000  Uiso   1.00
C104   C     0.82986   0.30955   0.80163   0.00000  Uiso   1.00
C105   C     0.82267   0.21614   0.63674   0.00000  Uiso   1.00
C106   C     0.82691   0.32074   0.25078   0.00000  Uiso   1.00
C107   C     0.79866   0.38043   0.26847   0.00000  Uiso   1.00
C108   C     0.76904   0.37334   0.34599   0.00000  Uiso   1.00
C109   C     0.74636   0.43434   0.34915   0.00000  Uiso   1.00
C110   C     0.86329   0.35526   0.30206   0.00000  Uiso   1.00
C111   C     0.88802   0.32701   0.40780   0.00000  Uiso   1.00
C112   C     0.91975   0.36681   0.43923   0.00000  Uiso   1.00
C113   C     0.82727   0.30939   0.09121   0.00000  Uiso   1.00
C114   C     0.82171   0.24257   0.01968   0.00000  Uiso   1.00
C115   C     0.82313   0.24375   0.87359   0.00000  Uiso   1.00
H116   H     0.84454   0.49280   0.06263   0.00000  Uiso   1.00
H117   H     0.78796   0.55796   0.14410   0.00000  Uiso   1.00
H118   H     0.90692   0.51162   0.20589   0.00000  Uiso   1.00
H119   H     0.84063   0.42720   0.81783   0.00000  Uiso   1.00
H120   H     0.72228   0.60124   0.26614   0.00000  Uiso   1.00
H121   H     0.97312   0.50352   0.39640   0.00000  Uiso   1.00
H122   H     0.83333   0.32550   0.57809   0.00000  Uiso   1.00
H123   H     0.82167   0.26960   0.30670   0.00000  Uiso   1.00
H124   H     0.76384   0.32251   0.40157   0.00000  Uiso   1.00
H125   H     0.88280   0.27617   0.46336   0.00000  Uiso   1.00
H126   H     0.81651   0.19175   0.07530   0.00000  Uiso   1.00
H127   H     0.70270   0.41014   0.47512   0.00000  Uiso   1.00
H128   H     0.95355   0.31242   0.60537   0.00000  Uiso   1.00
H129   H     0.81375   0.13440   0.78707   0.00000  Uiso   1.00
O130   O     0.67487   0.54453   0.42867   0.00000  Uiso   1.00
O131   O     0.00396   0.41632   0.59954   0.00000  Uiso   1.00
O132   O     0.82055   0.18277   0.52594   0.00000  Uiso   1.00
N133   N     0.72561   0.54900   0.30228   0.00000  Uiso   1.00
N134   N     0.96012   0.45765   0.42408   0.00000  Uiso   1.00
N135   N     0.82944   0.29121   0.65903   0.00000  Uiso   1.00
N136   N     0.71507   0.44617   0.41473   0.00000  Uiso   1.00
N137   N     0.94959   0.35482   0.53653   0.00000  Uiso   1.00
N138   N     0.81890   0.18838   0.77148   0.00000  Uiso   1.00
C139   C     0.33930   0.94167   0.11854   0.00000  Uiso   1.00
C140   C     0.30539   0.94611   0.19664   0.00000  Uiso   1.00
C141   C     0.28275   0.00713   0.19969   0.00000  Uiso   1.00
C142   C     0.25310   0.00014   0.27720   0.00000  Uiso   1.00
C143   C     0.20148   0.01705   0.38760   0.00000  Uiso   1.00
C144   C     0.37002   0.92094   0.23023   0.00000  Uiso   1.00
C145   C     0.40172   0.96080   0.26150   0.00000  Uiso   1.00
C146   C     0.42649   0.93261   0.36728   0.00000  Uiso   1.00
C147   C     0.47523   0.91041   0.52975   0.00000  Uiso   1.00
C148   C     0.33400   0.87508   0.01938   0.00000  Uiso   1.00
C149   C     0.33542   0.87636   0.87337   0.00000  Uiso   1.00
C150   C     0.32986   0.80955   0.80163   0.00000  Uiso   1.00
C151   C     0.32267   0.71614   0.63674   0.00000  Uiso   1.00
C152   C     0.32691   0.82074   0.25078   0.00000  Uiso   1.00
C153   C     0.29866   0.88043   0.26847   0.00000  Uiso   1.00
C154   C     0.26904   0.87334   0.34599   0.00000  Uiso   1.00
C155   C     0.24636   0.93434   0.34915   0.00000  Uiso   1.00
C156   C     0.36329   0.85526   0.30206   0.00000  Uiso   1.00
C157   C     0.38802   0.82701   0.40780   0.00000  Uiso   1.00
C158   C     0.41975   0.86681   0.43923   0.00000  Uiso   1.00
C159   C     0.32727   0.80939   0.09121   0.00000  Uiso   1.00
C160   C     0.32171   0.74257   0.01968   0.00000  Uiso   1.00
C161   C     0.32313   0.74375   0.87359   0.00000  Uiso   1.00
H162   H     0.34454   0.99280   0.06263   0.00000  Uiso   1.00
H163   H     0.28796   0.05796   0.14410   0.00000  Uiso   1.00
H164   H     0.40692   0.01162   0.20589   0.00000  Uiso   1.00
H165   H     0.34063   0.92720   0.81783   0.00000  Uiso   1.00
H166   H     0.22228   0.10124   0.26614   0.00000  Uiso   1.00
H167   H     0.47312   0.00352   0.39640   0.00000  Uiso   1.00
H168   H     0.33333   0.82550   0.57809   0.00000  Uiso   1.00
H169   H     0.32167   0.76960   0.30670   0.00000  Uiso   1.00
H170   H     0.26384   0.82251   0.40157   0.00000  Uiso   1.00
H171   H     0.38280   0.77617   0.46336   0.00000  Uiso   1.00
H172   H     0.31651   0.69175   0.07530   0.00000  Uiso   1.00
H173   H     0.20270   0.91014   0.47512   0.00000  Uiso   1.00
H174   H     0.45355   0.81242   0.60537   0.00000  Uiso   1.00
H175   H     0.31375   0.63440   0.78707   0.00000  Uiso   1.00
O176   O     0.17487   0.04453   0.42867   0.00000  Uiso   1.00
O177   O     0.50396   0.91632   0.59954   0.00000  Uiso   1.00
O178   O     0.32055   0.68277   0.52594   0.00000  Uiso   1.00
N179   N     0.22561   0.04900   0.30228   0.00000  Uiso   1.00
N180   N     0.46012   0.95765   0.42408   0.00000  Uiso   1.00
N181   N     0.32944   0.79121   0.65903   0.00000  Uiso   1.00
N182   N     0.21507   0.94617   0.41473   0.00000  Uiso   1.00
N183   N     0.44959   0.85482   0.53653   0.00000  Uiso   1.00
N184   N     0.31890   0.68838   0.77148   0.00000  Uiso   1.00
C185   C     0.83930   0.55833   0.61854   0.00000  Uiso   1.00
C186   C     0.80539   0.55389   0.69664   0.00000  Uiso   1.00
C187   C     0.78275   0.49287   0.69969   0.00000  Uiso   1.00
C188   C     0.75310   0.49986   0.77720   0.00000  Uiso   1.00
C189   C     0.70148   0.48295   0.88760   0.00000  Uiso   1.00
C190   C     0.87002   0.57906   0.73023   0.00000  Uiso   1.00
C191   C     0.90172   0.53920   0.76150   0.00000  Uiso   1.00
C192   C     0.92649   0.56739   0.86728   0.00000  Uiso   1.00
C193   C     0.97523   0.58959   0.02975   0.00000  Uiso   1.00
C194   C     0.83400   0.62492   0.51938   0.00000  Uiso   1.00
C195   C     0.83542   0.62364   0.37337   0.00000  Uiso   1.00
C196   C     0.82986   0.69045   0.30163   0.00000  Uiso   1.00
C197   C     0.82267   0.78386   0.13674   0.00000  Uiso   1.00
C198   C     0.82691   0.67926   0.75078   0.00000  Uiso   1.00
C199   C     0.79866   0.61957   0.76847   0.00000  Uiso   1.00
C200   C     0.76904   0.62666   0.84599   0.00000  Uiso   1.00
C201   C     0.74636   0.56566   0.84915   0.00000  Uiso   1.00
C202   C     0.86329   0.64474   0.80206   0.00000  Uiso   1.00
C203   C     0.88802   0.67299   0.90780   0.00000  Uiso   1.00
C204   C     0.91975   0.63319   0.93923   0.00000  Uiso   1.00
C205   C     0.82727   0.69061   0.59121   0.00000  Uiso   1.00
C206   C     0.82171   0.75743   0.51968   0.00000  Uiso   1.00
C207   C     0.82313   0.75625   0.37359   0.00000  Uiso   1.00
H208   H     0.84454   0.50720   0.56263   0.00000  Uiso   1.00
H209   H     0.78796   0.44204   0.64410   0.00000  Uiso   1.00
H210   H     0.90692   0.48838   0.70589   0.00000  Uiso   1.00
H211   H     0.84063   0.57280   0.31783   0.00000  Uiso   1.00
H212   H     0.72228   0.39876   0.76614   0.00000  Uiso   1.00
H213   H     0.97312   0.49648   0.89640   0.00000  Uiso   1.00
H214   H     0.83333   0.67450   0.07809   0.00000  Uiso   1.00
H215   H     0.82167   0.73040   0.80670   0.00000  Uiso   1.00
H216   H     0.76384   0.67749   0.90157   0.00000  Uiso   1.00
H217   H     0.88280   0.72383   0.96336   0.00000  Uiso   1.00
H218   H     0.81651   0.80825   0.57530   0.00000  Uiso   1.00
H219   H     0.70270   0.58986   0.97512   0.00000  Uiso   1.00
H220   H     0.95355   0.68758   0.10537   0.00000  Uiso   1.00
H221   H     0.81375   0.86560   0.28707   0.00000  Uiso   1.00
O222   O     0.67487   0.45547   0.92867   0.00000  Uiso   1.00
O223   O     0.00396   0.58368   0.09954   0.00000  Uiso   1.00
O224   O     0.82055   0.81723   0.02594   0.00000  Uiso   1.00
N225   N     0.72561   0.45100   0.80228   0.00000  Uiso   1.00
N226   N     0.96012   0.54235   0.92408   0.00000  Uiso   1.00
N227   N     0.82944   0.70879   0.15903   0.00000  Uiso   1.00
N228   N     0.71507   0.55383   0.91473   0.00000  Uiso   1.00
N229   N     0.94959   0.64518   0.03653   0.00000  Uiso   1.00
N230   N     0.81890   0.81162   0.27148   0.00000  Uiso   1.00
C231   C     0.33930   0.05833   0.61854   0.00000  Uiso   1.00
C232   C     0.30539   0.05389   0.69664   0.00000  Uiso   1.00
C233   C     0.28275   0.99287   0.69969   0.00000  Uiso   1.00
C234   C     0.25310   0.99986   0.77720   0.00000  Uiso   1.00
C235   C     0.20148   0.98295   0.88760   0.00000  Uiso   1.00
C236   C     0.37002   0.07906   0.73023   0.00000  Uiso   1.00
C237   C     0.40172   0.03920   0.76150   0.00000  Uiso   1.00
C238   C     0.42649   0.06739   0.86728   0.00000  Uiso   1.00
C239   C     0.47523   0.08959   0.02975   0.00000  Uiso   1.00
C240   C     0.33400   0.12492   0.51938   0.00000  Uiso   1.00
C241   C     0.33542   0.12364   0.37337   0.00000  Uiso   1.00
C242   C     0.32986   0.19045   0.30163   0.00000  Uiso   1.00
C243   C     0.32267   0.28386   0.13674   0.00000  Uiso   1.00
C244   C     0.32691   0.17926   0.75078   0.00000  Uiso   1.00
C245   C     0.29866   0.11957   0.76847   0.00000  Uiso   1.00
C246   C     0.26904   0.12666   0.84599   0.00000  Uiso   1.00
C247   C     0.24636   0.06566   0.84915   0.00000  Uiso   1.00
C248   C     0.36329   0.14474   0.80206   0.00000  Uiso   1.00
C249   C     0.38802   0.17299   0.90780   0.00000  Uiso   1.00
C250   C     0.41975   0.13319   0.93923   0.00000  Uiso   1.00
C251   C     0.32727   0.19061   0.59121   0.00000  Uiso   1.00
C252   C     0.32171   0.25743   0.51968   0.00000  Uiso   1.00
C253   C     0.32313   0.25625   0.37359   0.00000  Uiso   1.00
H254   H     0.34454   0.00720   0.56263   0.00000  Uiso   1.00
H255   H     0.28796   0.94204   0.64410   0.00000  Uiso   1.00
H256   H     0.40692   0.98838   0.70589   0.00000  Uiso   1.00
H257   H     0.34063   0.07280   0.31783   0.00000  Uiso   1.00
H258   H     0.22228   0.89876   0.76614   0.00000  Uiso   1.00
H259   H     0.47312   0.99648   0.89640   0.00000  Uiso   1.00
H260   H     0.33333   0.17450   0.07809   0.00000  Uiso   1.00
H261   H     0.32167   0.23040   0.80670   0.00000  Uiso   1.00
H262   H     0.26384   0.17749   0.90157   0.00000  Uiso   1.00
H263   H     0.38280   0.22383   0.96336   0.00000  Uiso   1.00
H264   H     0.31651   0.30825   0.57530   0.00000  Uiso   1.00
H265   H     0.20270   0.08986   0.97512   0.00000  Uiso   1.00
H266   H     0.45355   0.18758   0.10537   0.00000  Uiso   1.00
H267   H     0.31375   0.36560   0.28707   0.00000  Uiso   1.00
O268   O     0.17487   0.95547   0.92867   0.00000  Uiso   1.00
O269   O     0.50396   0.08368   0.09954   0.00000  Uiso   1.00
O270   O     0.32055   0.31723   0.02594   0.00000  Uiso   1.00
N271   N     0.22561   0.95100   0.80228   0.00000  Uiso   1.00
N272   N     0.46012   0.04235   0.92408   0.00000  Uiso   1.00
N273   N     0.32944   0.20879   0.15903   0.00000  Uiso   1.00
N274   N     0.21507   0.05383   0.91473   0.00000  Uiso   1.00
N275   N     0.44959   0.14518   0.03653   0.00000  Uiso   1.00
N276   N     0.31890   0.31162   0.27148   0.00000  Uiso   1.00
C277   C     0.16070   0.55833   0.88146   0.00000  Uiso   1.00
C278   C     0.19461   0.55389   0.80336   0.00000  Uiso   1.00
C279   C     0.21725   0.49287   0.80031   0.00000  Uiso   1.00
C280   C     0.24690   0.49986   0.72280   0.00000  Uiso   1.00
C281   C     0.29852   0.48295   0.61240   0.00000  Uiso   1.00
C282   C     0.12998   0.57906   0.76977   0.00000  Uiso   1.00
C283   C     0.09828   0.53920   0.73850   0.00000  Uiso   1.00
C284   C     0.07351   0.56739   0.63272   0.00000  Uiso   1.00
C285   C     0.02477   0.58959   0.47025   0.00000  Uiso   1.00
C286   C     0.16600   0.62492   0.98062   0.00000  Uiso   1.00
C287   C     0.16458   0.62364   0.12663   0.00000  Uiso   1.00
C288   C     0.17014   0.69045   0.19837   0.00000  Uiso   1.00
C289   C     0.17733   0.78386   0.36326   0.00000  Uiso   1.00
C290   C     0.17309   0.67926   0.74922   0.00000  Uiso   1.00
C291   C     0.20134   0.61957   0.73153   0.00000  Uiso   1.00
C292   C     0.23096   0.62666   0.65401   0.00000  Uiso   1.00
C293   C     0.25364   0.56566   0.65085   0.00000  Uiso   1.00
C294   C     0.13671   0.64474   0.69794   0.00000  Uiso   1.00
C295   C     0.11198   0.67299   0.59220   0.00000  Uiso   1.00
C296   C     0.08025   0.63319   0.56077   0.00000  Uiso   1.00
C297   C     0.17273   0.69061   0.90879   0.00000  Uiso   1.00
C298   C     0.17829   0.75743   0.98032   0.00000  Uiso   1.00
C299   C     0.17687   0.75625   0.12641   0.00000  Uiso   1.00
H300   H     0.15546   0.50720   0.93737   0.00000  Uiso   1.00
H301   H     0.21204   0.44204   0.85590   0.00000  Uiso   1.00
H302   H     0.09308   0.48838   0.79411   0.00000  Uiso   1.00
H303   H     0.15937   0.57280   0.18217   0.00000  Uiso   1.00
H304   H     0.27772   0.39876   0.73386   0.00000  Uiso   1.00
H305   H     0.02688   0.49648   0.60360   0.00000  Uiso   1.00
H306   H     0.16667   0.67450   0.42191   0.00000  Uiso   1.00
H307   H     0.17833   0.73040   0.69330   0.00000  Uiso   1.00
H308   H     0.23616   0.67749   0.59843   0.00000  Uiso   1.00
H309   H     0.11720   0.72383   0.53664   0.00000  Uiso   1.00
H310   H     0.18349   0.80825   0.92470   0.00000  Uiso   1.00
H311   H     0.29730   0.58986   0.52488   0.00000  Uiso   1.00
H312   H     0.04645   0.68758   0.39463   0.00000  Uiso   1.00
H313   H     0.18625   0.86560   0.21293   0.00000  Uiso   1.00
O314   O     0.32513   0.45547   0.57133   0.00000  Uiso   1.00
O315   O     0.99604   0.58368   0.40046   0.00000  Uiso   1.00
O316   O     0.17945   0.81723   0.47406   0.00000  Uiso   1.00
N317   N     0.27439   0.45100   0.69772   0.00000  Uiso   1.00
N318   N     0.03988   0.54235   0.57592   0.00000  Uiso   1.00
N319   N     0.17056   0.70879   0.34097   0.00000  Uiso   1.00
N320   N     0.28493   0.55383   0.58527   0.00000  Uiso   1.00
N321   N     0.05041   0.64518   0.46347   0.00000  Uiso   1.00
N322   N     0.18110   0.81162   0.22852   0.00000  Uiso   1.00
C323   C     0.66070   0.05833   0.88146   0.00000  Uiso   1.00
C324   C     0.69461   0.05389   0.80336   0.00000  Uiso   1.00
C325   C     0.71725   0.99287   0.80031   0.00000  Uiso   1.00
C326   C     0.74690   0.99986   0.72280   0.00000  Uiso   1.00
C327   C     0.79852   0.98295   0.61240   0.00000  Uiso   1.00
C328   C     0.62998   0.07906   0.76977   0.00000  Uiso   1.00
C329   C     0.59828   0.03920   0.73850   0.00000  Uiso   1.00
C330   C     0.57351   0.06739   0.63272   0.00000  Uiso   1.00
C331   C     0.52477   0.08959   0.47025   0.00000  Uiso   1.00
C332   C     0.66600   0.12492   0.98062   0.00000  Uiso   1.00
C333   C     0.66458   0.12364   0.12663   0.00000  Uiso   1.00
C334   C     0.67014   0.19045   0.19837   0.00000  Uiso   1.00
C335   C     0.67733   0.28386   0.36326   0.00000  Uiso   1.00
C336   C     0.67309   0.17926   0.74922   0.00000  Uiso   1.00
C337   C     0.70134   0.11957   0.73153   0.00000  Uiso   1.00
C338   C     0.73096   0.12666   0.65401   0.00000  Uiso   1.00
C339   C     0.75364   0.06566   0.65085   0.00000  Uiso   1.00
C340   C     0.63671   0.14474   0.69794   0.00000  Uiso   1.00
C341   C     0.61198   0.17299   0.59220   0.00000  Uiso   1.00
C342   C     0.58025   0.13319   0.56077   0.00000  Uiso   1.00
C343   C     0.67273   0.19061   0.90879   0.00000  Uiso   1.00
C344   C     0.67829   0.25743   0.98032   0.00000  Uiso   1.00
C345   C     0.67687   0.25625   0.12641   0.00000  Uiso   1.00
H346   H     0.65546   0.00720   0.93737   0.00000  Uiso   1.00
H347   H     0.71204   0.94204   0.85590   0.00000  Uiso   1.00
H348   H     0.59308   0.98838   0.79411   0.00000  Uiso   1.00
H349   H     0.65937   0.07280   0.18217   0.00000  Uiso   1.00
H350   H     0.77772   0.89876   0.73386   0.00000  Uiso   1.00
H351   H     0.52688   0.99648   0.60360   0.00000  Uiso   1.00
H352   H     0.66667   0.17450   0.42191   0.00000  Uiso   1.00
H353   H     0.67833   0.23040   0.69330   0.00000  Uiso   1.00
H354   H     0.73616   0.17749   0.59843   0.00000  Uiso   1.00
H355   H     0.61720   0.22383   0.53664   0.00000  Uiso   1.00
H356   H     0.68349   0.30825   0.92470   0.00000  Uiso   1.00
H357   H     0.79730   0.08986   0.52488   0.00000  Uiso   1.00
H358   H     0.54645   0.18758   0.39463   0.00000  Uiso   1.00
H359   H     0.68625   0.36560   0.21293   0.00000  Uiso   1.00
O360   O     0.82513   0.95547   0.57133   0.00000  Uiso   1.00
O361   O     0.49604   0.08368   0.40046   0.00000  Uiso   1.00
O362   O     0.67945   0.31723   0.47406   0.00000  Uiso   1.00
N363   N     0.77439   0.95100   0.69772   0.00000  Uiso   1.00
N364   N     0.53988   0.04235   0.57592   0.00000  Uiso   1.00
N365   N     0.67056   0.20879   0.34097   0.00000  Uiso   1.00
N366   N     0.78493   0.05383   0.58527   0.00000  Uiso   1.00
N367   N     0.55041   0.14518   0.46347   0.00000  Uiso   1.00
N368   N     0.68110   0.31162   0.22852   0.00000  Uiso   1.00
