data_job_03694
_audit_creation_date              2018-12-19
_audit_creation_method            'Materials Studio'
_symmetry_space_group_name_H-M    'P1'
_symmetry_Int_Tables_number       1
_symmetry_cell_setting            triclinic
loop_
_symmetry_equiv_pos_as_xyz
  x,y,z
_cell_length_a                    20.8229
_cell_length_b                    23.3174
_cell_length_c                    14.4378
_cell_angle_alpha                 90.0000
_cell_angle_beta                  105.5100
_cell_angle_gamma                 90.0000
loop_
_atom_site_label
_atom_site_type_symbol
_atom_site_fract_x
_atom_site_fract_y
_atom_site_fract_z
_atom_site_U_iso_or_equiv
_atom_site_adp_type
_atom_site_occupancy
C1     C     0.33173   0.97175   0.69685   0.00000  Uiso   1.00
C2     C     0.25978   0.97752   0.70183   0.00000  Uiso   1.00
C3     C     0.20426   0.98237   0.62363   0.00000  Uiso   1.00
C4     C     0.14276   0.98723   0.64326   0.00000  Uiso   1.00
C5     C     0.03191   0.99620   0.63662   0.00000  Uiso   1.00
C6     C     0.36988   0.02088   0.75684   0.00000  Uiso   1.00
C7     C     0.40694   0.06219   0.72490   0.00000  Uiso   1.00
C8     C     0.43812   0.10355   0.79086   0.00000  Uiso   1.00
C9     C     0.49824   0.17982   0.86964   0.00000  Uiso   1.00
C10    C     0.35833   0.91688   0.75108   0.00000  Uiso   1.00
C11    C     0.38570   0.87074   0.71429   0.00000  Uiso   1.00
C12    C     0.40718   0.82454   0.77540   0.00000  Uiso   1.00
C13    C     0.44938   0.73933   0.84523   0.00000  Uiso   1.00
C14    C     0.32123   0.97176   0.87078   0.00000  Uiso   1.00
C15    C     0.25408   0.97752   0.79630   0.00000  Uiso   1.00
C16    C     0.19264   0.98237   0.81606   0.00000  Uiso   1.00
C17    C     0.13704   0.98722   0.73791   0.00000  Uiso   1.00
C18    C     0.36417   0.02088   0.85131   0.00000  Uiso   1.00
C19    C     0.39531   0.06219   0.91733   0.00000  Uiso   1.00
C20    C     0.43241   0.10355   0.88550   0.00000  Uiso   1.00
C21    C     0.35263   0.91688   0.84555   0.00000  Uiso   1.00
C22    C     0.37407   0.87074   0.90673   0.00000  Uiso   1.00
C23    C     0.40147   0.82454   0.87004   0.00000  Uiso   1.00
H24    H     0.33618   0.97176   0.62330   0.00000  Uiso   1.00
H25    H     0.20870   0.98237   0.55053   0.00000  Uiso   1.00
H26    H     0.41135   0.06217   0.65179   0.00000  Uiso   1.00
H27    H     0.39011   0.87075   0.64118   0.00000  Uiso   1.00
H28    H     0.06486   0.99415   0.51151   0.00000  Uiso   1.00
H29    H     0.49217   0.16241   0.72503   0.00000  Uiso   1.00
H30    H     0.44739   0.75877   0.70267   0.00000  Uiso   1.00
H31    H     0.31678   0.97176   0.94434   0.00000  Uiso   1.00
H32    H     0.18824   0.98237   0.88918   0.00000  Uiso   1.00
H33    H     0.39089   0.06217   0.99044   0.00000  Uiso   1.00
H34    H     0.36965   0.87076   0.97983   0.00000  Uiso   1.00
H35    H     0.04825   0.99416   0.78637   0.00000  Uiso   1.00
H36    H     0.47557   0.16241   0.99989   0.00000  Uiso   1.00
H37    H     0.43078   0.75878   0.97752   0.00000  Uiso   1.00
O38    O     0.97234   0.00116   0.60686   0.00000  Uiso   1.00
O39    O     0.53298   0.22189   0.88700   0.00000  Uiso   1.00
O40    O     0.47422   0.69233   0.85765   0.00000  Uiso   1.00
N41    N     0.07859   0.99269   0.58377   0.00000  Uiso   1.00
N42    N     0.47809   0.15000   0.78339   0.00000  Uiso   1.00
N43    N     0.43624   0.77264   0.76249   0.00000  Uiso   1.00
N44    N     0.06965   0.99269   0.73167   0.00000  Uiso   1.00
N45    N     0.46916   0.15000   0.93129   0.00000  Uiso   1.00
N46    N     0.42731   0.77264   0.91039   0.00000  Uiso   1.00
C47    C     0.66827   0.47175   0.80315   0.00000  Uiso   1.00
C48    C     0.74022   0.47752   0.79817   0.00000  Uiso   1.00
C49    C     0.79574   0.48237   0.87637   0.00000  Uiso   1.00
C50    C     0.85724   0.48723   0.85674   0.00000  Uiso   1.00
C51    C     0.96809   0.49620   0.86338   0.00000  Uiso   1.00
C52    C     0.63012   0.52088   0.74316   0.00000  Uiso   1.00
C53    C     0.59306   0.56219   0.77510   0.00000  Uiso   1.00
C54    C     0.56188   0.60355   0.70914   0.00000  Uiso   1.00
C55    C     0.50176   0.67982   0.63036   0.00000  Uiso   1.00
C56    C     0.64167   0.41688   0.74892   0.00000  Uiso   1.00
C57    C     0.61430   0.37074   0.78571   0.00000  Uiso   1.00
C58    C     0.59282   0.32454   0.72460   0.00000  Uiso   1.00
C59    C     0.55062   0.23933   0.65477   0.00000  Uiso   1.00
C60    C     0.67877   0.47176   0.62922   0.00000  Uiso   1.00
C61    C     0.74592   0.47752   0.70370   0.00000  Uiso   1.00
C62    C     0.80736   0.48237   0.68394   0.00000  Uiso   1.00
C63    C     0.86296   0.48722   0.76209   0.00000  Uiso   1.00
C64    C     0.63583   0.52088   0.64869   0.00000  Uiso   1.00
C65    C     0.60469   0.56219   0.58267   0.00000  Uiso   1.00
C66    C     0.56759   0.60355   0.61450   0.00000  Uiso   1.00
C67    C     0.64737   0.41688   0.65445   0.00000  Uiso   1.00
C68    C     0.62593   0.37074   0.59327   0.00000  Uiso   1.00
C69    C     0.59853   0.32454   0.62996   0.00000  Uiso   1.00
H70    H     0.66382   0.47176   0.87670   0.00000  Uiso   1.00
H71    H     0.79130   0.48237   0.94947   0.00000  Uiso   1.00
H72    H     0.58865   0.56217   0.84821   0.00000  Uiso   1.00
H73    H     0.60989   0.37075   0.85882   0.00000  Uiso   1.00
H74    H     0.93514   0.49415   0.98849   0.00000  Uiso   1.00
H75    H     0.50783   0.66241   0.77497   0.00000  Uiso   1.00
H76    H     0.55261   0.25877   0.79733   0.00000  Uiso   1.00
H77    H     0.68322   0.47176   0.55566   0.00000  Uiso   1.00
H78    H     0.81176   0.48237   0.61082   0.00000  Uiso   1.00
H79    H     0.60911   0.56217   0.50956   0.00000  Uiso   1.00
H80    H     0.63035   0.37076   0.52017   0.00000  Uiso   1.00
H81    H     0.95175   0.49416   0.71363   0.00000  Uiso   1.00
H82    H     0.52443   0.66241   0.50011   0.00000  Uiso   1.00
H83    H     0.56922   0.25878   0.52248   0.00000  Uiso   1.00
O84    O     0.02766   0.50116   0.89314   0.00000  Uiso   1.00
O85    O     0.46702   0.72189   0.61300   0.00000  Uiso   1.00
O86    O     0.52578   0.19233   0.64235   0.00000  Uiso   1.00
N87    N     0.92141   0.49269   0.91623   0.00000  Uiso   1.00
N88    N     0.52191   0.65000   0.71661   0.00000  Uiso   1.00
N89    N     0.56376   0.27264   0.73751   0.00000  Uiso   1.00
N90    N     0.93035   0.49269   0.76833   0.00000  Uiso   1.00
N91    N     0.53084   0.65000   0.56871   0.00000  Uiso   1.00
N92    N     0.57269   0.27264   0.58961   0.00000  Uiso   1.00
C93    C     0.66827   0.02825   0.30315   0.00000  Uiso   1.00
C94    C     0.74022   0.02248   0.29817   0.00000  Uiso   1.00
C95    C     0.79574   0.01763   0.37637   0.00000  Uiso   1.00
C96    C     0.85724   0.01277   0.35674   0.00000  Uiso   1.00
C97    C     0.96809   0.00380   0.36338   0.00000  Uiso   1.00
C98    C     0.63012   0.97912   0.24316   0.00000  Uiso   1.00
C99    C     0.59306   0.93781   0.27510   0.00000  Uiso   1.00
C100   C     0.56188   0.89645   0.20914   0.00000  Uiso   1.00
C101   C     0.50176   0.82018   0.13036   0.00000  Uiso   1.00
C102   C     0.64167   0.08312   0.24892   0.00000  Uiso   1.00
C103   C     0.61430   0.12926   0.28571   0.00000  Uiso   1.00
C104   C     0.59282   0.17546   0.22460   0.00000  Uiso   1.00
C105   C     0.55062   0.26067   0.15477   0.00000  Uiso   1.00
C106   C     0.67877   0.02824   0.12922   0.00000  Uiso   1.00
C107   C     0.74592   0.02248   0.20370   0.00000  Uiso   1.00
C108   C     0.80736   0.01763   0.18394   0.00000  Uiso   1.00
C109   C     0.86296   0.01278   0.26209   0.00000  Uiso   1.00
C110   C     0.63583   0.97912   0.14869   0.00000  Uiso   1.00
C111   C     0.60469   0.93781   0.08267   0.00000  Uiso   1.00
C112   C     0.56759   0.89645   0.11450   0.00000  Uiso   1.00
C113   C     0.64737   0.08312   0.15445   0.00000  Uiso   1.00
C114   C     0.62593   0.12926   0.09327   0.00000  Uiso   1.00
C115   C     0.59853   0.17546   0.12996   0.00000  Uiso   1.00
H116   H     0.66382   0.02824   0.37670   0.00000  Uiso   1.00
H117   H     0.79130   0.01763   0.44947   0.00000  Uiso   1.00
H118   H     0.58865   0.93783   0.34821   0.00000  Uiso   1.00
H119   H     0.60989   0.12925   0.35882   0.00000  Uiso   1.00
H120   H     0.93514   0.00585   0.48849   0.00000  Uiso   1.00
H121   H     0.50783   0.83759   0.27497   0.00000  Uiso   1.00
H122   H     0.55261   0.24123   0.29733   0.00000  Uiso   1.00
H123   H     0.68322   0.02824   0.05566   0.00000  Uiso   1.00
H124   H     0.81176   0.01763   0.11082   0.00000  Uiso   1.00
H125   H     0.60911   0.93783   0.00956   0.00000  Uiso   1.00
H126   H     0.63035   0.12924   0.02017   0.00000  Uiso   1.00
H127   H     0.95175   0.00584   0.21363   0.00000  Uiso   1.00
H128   H     0.52443   0.83759   0.00011   0.00000  Uiso   1.00
H129   H     0.56922   0.24122   0.02248   0.00000  Uiso   1.00
O130   O     0.02766   0.99884   0.39314   0.00000  Uiso   1.00
O131   O     0.46702   0.77811   0.11300   0.00000  Uiso   1.00
O132   O     0.52578   0.30767   0.14235   0.00000  Uiso   1.00
N133   N     0.92141   0.00731   0.41623   0.00000  Uiso   1.00
N134   N     0.52191   0.85000   0.21661   0.00000  Uiso   1.00
N135   N     0.56376   0.22736   0.23751   0.00000  Uiso   1.00
N136   N     0.93035   0.00731   0.26833   0.00000  Uiso   1.00
N137   N     0.53084   0.85000   0.06871   0.00000  Uiso   1.00
N138   N     0.57269   0.22736   0.08961   0.00000  Uiso   1.00
C139   C     0.33173   0.52825   0.19685   0.00000  Uiso   1.00
C140   C     0.25978   0.52248   0.20183   0.00000  Uiso   1.00
C141   C     0.20426   0.51763   0.12363   0.00000  Uiso   1.00
C142   C     0.14276   0.51277   0.14326   0.00000  Uiso   1.00
C143   C     0.03191   0.50380   0.13662   0.00000  Uiso   1.00
C144   C     0.36988   0.47912   0.25684   0.00000  Uiso   1.00
C145   C     0.40694   0.43781   0.22490   0.00000  Uiso   1.00
C146   C     0.43812   0.39645   0.29086   0.00000  Uiso   1.00
C147   C     0.49824   0.32018   0.36964   0.00000  Uiso   1.00
C148   C     0.35833   0.58312   0.25108   0.00000  Uiso   1.00
C149   C     0.38570   0.62926   0.21429   0.00000  Uiso   1.00
C150   C     0.40718   0.67546   0.27540   0.00000  Uiso   1.00
C151   C     0.44938   0.76067   0.34523   0.00000  Uiso   1.00
C152   C     0.32123   0.52824   0.37078   0.00000  Uiso   1.00
C153   C     0.25408   0.52248   0.29630   0.00000  Uiso   1.00
C154   C     0.19264   0.51763   0.31606   0.00000  Uiso   1.00
C155   C     0.13704   0.51278   0.23791   0.00000  Uiso   1.00
C156   C     0.36417   0.47912   0.35131   0.00000  Uiso   1.00
C157   C     0.39531   0.43781   0.41733   0.00000  Uiso   1.00
C158   C     0.43241   0.39645   0.38550   0.00000  Uiso   1.00
C159   C     0.35263   0.58312   0.34555   0.00000  Uiso   1.00
C160   C     0.37407   0.62926   0.40673   0.00000  Uiso   1.00
C161   C     0.40147   0.67546   0.37004   0.00000  Uiso   1.00
H162   H     0.33618   0.52824   0.12330   0.00000  Uiso   1.00
H163   H     0.20870   0.51763   0.05053   0.00000  Uiso   1.00
H164   H     0.41135   0.43783   0.15179   0.00000  Uiso   1.00
H165   H     0.39011   0.62925   0.14118   0.00000  Uiso   1.00
H166   H     0.06486   0.50585   0.01151   0.00000  Uiso   1.00
H167   H     0.49217   0.33759   0.22503   0.00000  Uiso   1.00
H168   H     0.44739   0.74123   0.20267   0.00000  Uiso   1.00
H169   H     0.31678   0.52824   0.44434   0.00000  Uiso   1.00
H170   H     0.18824   0.51763   0.38918   0.00000  Uiso   1.00
H171   H     0.39089   0.43783   0.49044   0.00000  Uiso   1.00
H172   H     0.36965   0.62924   0.47983   0.00000  Uiso   1.00
H173   H     0.04825   0.50584   0.28637   0.00000  Uiso   1.00
H174   H     0.47557   0.33759   0.49989   0.00000  Uiso   1.00
H175   H     0.43078   0.74122   0.47752   0.00000  Uiso   1.00
O176   O     0.97234   0.49884   0.10686   0.00000  Uiso   1.00
O177   O     0.53298   0.27811   0.38700   0.00000  Uiso   1.00
O178   O     0.47422   0.80767   0.35765   0.00000  Uiso   1.00
N179   N     0.07859   0.50731   0.08377   0.00000  Uiso   1.00
N180   N     0.47809   0.35000   0.28339   0.00000  Uiso   1.00
N181   N     0.43624   0.72736   0.26249   0.00000  Uiso   1.00
N182   N     0.06965   0.50731   0.23167   0.00000  Uiso   1.00
N183   N     0.46916   0.35000   0.43129   0.00000  Uiso   1.00
N184   N     0.42731   0.72736   0.41039   0.00000  Uiso   1.00
