data_job_02039
_audit_creation_date              2018-12-19
_audit_creation_method            'Materials Studio'
_symmetry_space_group_name_H-M    'P1'
_symmetry_Int_Tables_number       1
_symmetry_cell_setting            triclinic
loop_
_symmetry_equiv_pos_as_xyz
  x,y,z
_cell_length_a                    26.6262
_cell_length_b                    12.8682
_cell_length_c                    40.9397
_cell_angle_alpha                 90.0000
_cell_angle_beta                  146.9510
_cell_angle_gamma                 90.0000
loop_
_atom_site_label
_atom_site_type_symbol
_atom_site_fract_x
_atom_site_fract_y
_atom_site_fract_z
_atom_site_U_iso_or_equiv
_atom_site_adp_type
_atom_site_occupancy
C1     C     0.46464   0.49992   0.07104   0.00000  Uiso   1.00
C2     C     0.42542   0.53025   0.08287   0.00000  Uiso   1.00
C3     C     0.47653   0.55603   0.13821   0.00000  Uiso   1.00
C4     C     0.42774   0.58150   0.13966   0.00000  Uiso   1.00
C5     C     0.38150   0.62860   0.16594   0.00000  Uiso   1.00
C6     C     0.42402   0.39363   0.04092   0.00000  Uiso   1.00
C7     C     0.47397   0.30455   0.06098   0.00000  Uiso   1.00
C8     C     0.42400   0.21501   0.02710   0.00000  Uiso   1.00
C9     C     0.37560   0.05002   0.98823   0.00000  Uiso   1.00
C10    C     0.42283   0.57544   0.02367   0.00000  Uiso   1.00
C11    C     0.47176   0.63920   0.02923   0.00000  Uiso   1.00
C12    C     0.42078   0.70272   0.98083   0.00000  Uiso   1.00
C13    C     0.37052   0.82002   0.91518   0.00000  Uiso   1.00
C14    C     0.28711   0.49931   0.97521   0.00000  Uiso   1.00
C15    C     0.32899   0.52992   0.03082   0.00000  Uiso   1.00
C16    C     0.28011   0.55536   0.03218   0.00000  Uiso   1.00
C17    C     0.33114   0.58117   0.08751   0.00000  Uiso   1.00
C18    C     0.32760   0.39329   0.98887   0.00000  Uiso   1.00
C19    C     0.27754   0.30387   0.95495   0.00000  Uiso   1.00
C20    C     0.32739   0.21467   0.97496   0.00000  Uiso   1.00
C21    C     0.32639   0.57511   0.97162   0.00000  Uiso   1.00
C22    C     0.27533   0.63853   0.92320   0.00000  Uiso   1.00
C23    C     0.32418   0.70238   0.92868   0.00000  Uiso   1.00
H24    H     0.53972   0.50017   0.11157   0.00000  Uiso   1.00
H25    H     0.55116   0.55627   0.17848   0.00000  Uiso   1.00
H26    H     0.54859   0.30483   0.10126   0.00000  Uiso   1.00
H27    H     0.54638   0.63944   0.06951   0.00000  Uiso   1.00
H28    H     0.52131   0.61829   0.22971   0.00000  Uiso   1.00
H29    H     0.51590   0.08812   0.06687   0.00000  Uiso   1.00
H30    H     0.51125   0.79370   0.99994   0.00000  Uiso   1.00
H31    H     0.21203   0.49904   0.93469   0.00000  Uiso   1.00
H32    H     0.20548   0.55509   0.99189   0.00000  Uiso   1.00
H33    H     0.20292   0.30364   0.91467   0.00000  Uiso   1.00
H34    H     0.20071   0.63825   0.88293   0.00000  Uiso   1.00
H35    H     0.24075   0.61733   0.07828   0.00000  Uiso   1.00
H36    H     0.23534   0.08715   0.91543   0.00000  Uiso   1.00
H37    H     0.23068   0.79274   0.84850   0.00000  Uiso   1.00
O38    O     0.38264   0.65466   0.19482   0.00000  Uiso   1.00
O39    O     0.37554   0.95910   0.98118   0.00000  Uiso   1.00
O40    O     0.36943   0.88482   0.89336   0.00000  Uiso   1.00
N41    N     0.45618   0.61039   0.18622   0.00000  Uiso   1.00
N42    N     0.45112   0.11471   0.03398   0.00000  Uiso   1.00
N43    N     0.44677   0.77435   0.97139   0.00000  Uiso   1.00
N44    N     0.30521   0.60987   0.10473   0.00000  Uiso   1.00
N45    N     0.30015   0.11419   0.95249   0.00000  Uiso   1.00
N46    N     0.29580   0.77383   0.88990   0.00000  Uiso   1.00
C47    C     0.96464   0.99992   0.07104   0.00000  Uiso   1.00
C48    C     0.92542   0.03025   0.08287   0.00000  Uiso   1.00
C49    C     0.97653   0.05603   0.13821   0.00000  Uiso   1.00
C50    C     0.92774   0.08150   0.13966   0.00000  Uiso   1.00
C51    C     0.88150   0.12860   0.16594   0.00000  Uiso   1.00
C52    C     0.92402   0.89363   0.04092   0.00000  Uiso   1.00
C53    C     0.97397   0.80455   0.06098   0.00000  Uiso   1.00
C54    C     0.92400   0.71501   0.02710   0.00000  Uiso   1.00
C55    C     0.87560   0.55002   0.98823   0.00000  Uiso   1.00
C56    C     0.92283   0.07544   0.02367   0.00000  Uiso   1.00
C57    C     0.97176   0.13920   0.02923   0.00000  Uiso   1.00
C58    C     0.92078   0.20272   0.98083   0.00000  Uiso   1.00
C59    C     0.87052   0.32002   0.91518   0.00000  Uiso   1.00
C60    C     0.78711   0.99931   0.97521   0.00000  Uiso   1.00
C61    C     0.82899   0.02992   0.03082   0.00000  Uiso   1.00
C62    C     0.78011   0.05536   0.03218   0.00000  Uiso   1.00
C63    C     0.83114   0.08117   0.08751   0.00000  Uiso   1.00
C64    C     0.82760   0.89329   0.98887   0.00000  Uiso   1.00
C65    C     0.77754   0.80387   0.95495   0.00000  Uiso   1.00
C66    C     0.82739   0.71467   0.97496   0.00000  Uiso   1.00
C67    C     0.82639   0.07511   0.97162   0.00000  Uiso   1.00
C68    C     0.77533   0.13853   0.92320   0.00000  Uiso   1.00
C69    C     0.82418   0.20238   0.92868   0.00000  Uiso   1.00
H70    H     0.03972   0.00017   0.11157   0.00000  Uiso   1.00
H71    H     0.05116   0.05627   0.17848   0.00000  Uiso   1.00
H72    H     0.04859   0.80483   0.10126   0.00000  Uiso   1.00
H73    H     0.04638   0.13944   0.06951   0.00000  Uiso   1.00
H74    H     0.02131   0.11829   0.22971   0.00000  Uiso   1.00
H75    H     0.01590   0.58812   0.06687   0.00000  Uiso   1.00
H76    H     0.01125   0.29370   0.99994   0.00000  Uiso   1.00
H77    H     0.71203   0.99904   0.93469   0.00000  Uiso   1.00
H78    H     0.70548   0.05509   0.99189   0.00000  Uiso   1.00
H79    H     0.70292   0.80364   0.91467   0.00000  Uiso   1.00
H80    H     0.70071   0.13825   0.88293   0.00000  Uiso   1.00
H81    H     0.74075   0.11733   0.07828   0.00000  Uiso   1.00
H82    H     0.73534   0.58715   0.91543   0.00000  Uiso   1.00
H83    H     0.73068   0.29274   0.84850   0.00000  Uiso   1.00
O84    O     0.88264   0.15466   0.19482   0.00000  Uiso   1.00
O85    O     0.87554   0.45910   0.98118   0.00000  Uiso   1.00
O86    O     0.86943   0.38482   0.89336   0.00000  Uiso   1.00
N87    N     0.95618   0.11039   0.18622   0.00000  Uiso   1.00
N88    N     0.95112   0.61471   0.03398   0.00000  Uiso   1.00
N89    N     0.94677   0.27435   0.97139   0.00000  Uiso   1.00
N90    N     0.80521   0.10987   0.10473   0.00000  Uiso   1.00
N91    N     0.80015   0.61419   0.95249   0.00000  Uiso   1.00
N92    N     0.79580   0.27383   0.88990   0.00000  Uiso   1.00
C93    C     0.53536   0.49992   0.42896   0.00000  Uiso   1.00
C94    C     0.57458   0.53025   0.41713   0.00000  Uiso   1.00
C95    C     0.52347   0.55603   0.36179   0.00000  Uiso   1.00
C96    C     0.57226   0.58150   0.36034   0.00000  Uiso   1.00
C97    C     0.61850   0.62860   0.33406   0.00000  Uiso   1.00
C98    C     0.57598   0.39363   0.45908   0.00000  Uiso   1.00
C99    C     0.52603   0.30455   0.43902   0.00000  Uiso   1.00
C100   C     0.57600   0.21501   0.47290   0.00000  Uiso   1.00
C101   C     0.62440   0.05002   0.51177   0.00000  Uiso   1.00
C102   C     0.57717   0.57544   0.47633   0.00000  Uiso   1.00
C103   C     0.52824   0.63920   0.47077   0.00000  Uiso   1.00
C104   C     0.57922   0.70272   0.51917   0.00000  Uiso   1.00
C105   C     0.62948   0.82002   0.58482   0.00000  Uiso   1.00
C106   C     0.71289   0.49931   0.52479   0.00000  Uiso   1.00
C107   C     0.67101   0.52992   0.46918   0.00000  Uiso   1.00
C108   C     0.71989   0.55536   0.46782   0.00000  Uiso   1.00
C109   C     0.66886   0.58117   0.41249   0.00000  Uiso   1.00
C110   C     0.67240   0.39329   0.51113   0.00000  Uiso   1.00
C111   C     0.72246   0.30387   0.54505   0.00000  Uiso   1.00
C112   C     0.67261   0.21467   0.52504   0.00000  Uiso   1.00
C113   C     0.67361   0.57511   0.52838   0.00000  Uiso   1.00
C114   C     0.72467   0.63853   0.57680   0.00000  Uiso   1.00
C115   C     0.67582   0.70238   0.57132   0.00000  Uiso   1.00
H116   H     0.46028   0.50017   0.38843   0.00000  Uiso   1.00
H117   H     0.44884   0.55627   0.32152   0.00000  Uiso   1.00
H118   H     0.45141   0.30483   0.39874   0.00000  Uiso   1.00
H119   H     0.45362   0.63944   0.43049   0.00000  Uiso   1.00
H120   H     0.47869   0.61829   0.27029   0.00000  Uiso   1.00
H121   H     0.48410   0.08812   0.43313   0.00000  Uiso   1.00
H122   H     0.48875   0.79370   0.50006   0.00000  Uiso   1.00
H123   H     0.78797   0.49904   0.56531   0.00000  Uiso   1.00
H124   H     0.79452   0.55509   0.50811   0.00000  Uiso   1.00
H125   H     0.79708   0.30364   0.58533   0.00000  Uiso   1.00
H126   H     0.79929   0.63825   0.61707   0.00000  Uiso   1.00
H127   H     0.75925   0.61733   0.42172   0.00000  Uiso   1.00
H128   H     0.76466   0.08715   0.58457   0.00000  Uiso   1.00
H129   H     0.76932   0.79274   0.65150   0.00000  Uiso   1.00
O130   O     0.61736   0.65466   0.30518   0.00000  Uiso   1.00
O131   O     0.62446   0.95910   0.51882   0.00000  Uiso   1.00
O132   O     0.63057   0.88482   0.60664   0.00000  Uiso   1.00
N133   N     0.54382   0.61039   0.31378   0.00000  Uiso   1.00
N134   N     0.54888   0.11471   0.46602   0.00000  Uiso   1.00
N135   N     0.55323   0.77435   0.52861   0.00000  Uiso   1.00
N136   N     0.69479   0.60987   0.39527   0.00000  Uiso   1.00
N137   N     0.69985   0.11419   0.54751   0.00000  Uiso   1.00
N138   N     0.70420   0.77383   0.61010   0.00000  Uiso   1.00
C139   C     0.03536   0.99992   0.42896   0.00000  Uiso   1.00
C140   C     0.07458   0.03025   0.41713   0.00000  Uiso   1.00
C141   C     0.02347   0.05603   0.36179   0.00000  Uiso   1.00
C142   C     0.07226   0.08150   0.36034   0.00000  Uiso   1.00
C143   C     0.11850   0.12860   0.33406   0.00000  Uiso   1.00
C144   C     0.07598   0.89363   0.45908   0.00000  Uiso   1.00
C145   C     0.02603   0.80455   0.43902   0.00000  Uiso   1.00
C146   C     0.07600   0.71501   0.47290   0.00000  Uiso   1.00
C147   C     0.12440   0.55002   0.51177   0.00000  Uiso   1.00
C148   C     0.07717   0.07544   0.47633   0.00000  Uiso   1.00
C149   C     0.02824   0.13920   0.47077   0.00000  Uiso   1.00
C150   C     0.07922   0.20272   0.51917   0.00000  Uiso   1.00
C151   C     0.12948   0.32002   0.58482   0.00000  Uiso   1.00
C152   C     0.21289   0.99931   0.52479   0.00000  Uiso   1.00
C153   C     0.17101   0.02992   0.46918   0.00000  Uiso   1.00
C154   C     0.21989   0.05536   0.46782   0.00000  Uiso   1.00
C155   C     0.16886   0.08117   0.41249   0.00000  Uiso   1.00
C156   C     0.17240   0.89329   0.51113   0.00000  Uiso   1.00
C157   C     0.22246   0.80387   0.54505   0.00000  Uiso   1.00
C158   C     0.17261   0.71467   0.52504   0.00000  Uiso   1.00
C159   C     0.17361   0.07511   0.52838   0.00000  Uiso   1.00
C160   C     0.22467   0.13853   0.57680   0.00000  Uiso   1.00
C161   C     0.17582   0.20238   0.57132   0.00000  Uiso   1.00
H162   H     0.96028   0.00017   0.38843   0.00000  Uiso   1.00
H163   H     0.94884   0.05627   0.32152   0.00000  Uiso   1.00
H164   H     0.95141   0.80483   0.39874   0.00000  Uiso   1.00
H165   H     0.95362   0.13944   0.43049   0.00000  Uiso   1.00
H166   H     0.97869   0.11829   0.27029   0.00000  Uiso   1.00
H167   H     0.98410   0.58812   0.43313   0.00000  Uiso   1.00
H168   H     0.98875   0.29370   0.50006   0.00000  Uiso   1.00
H169   H     0.28797   0.99904   0.56531   0.00000  Uiso   1.00
H170   H     0.29452   0.05509   0.50811   0.00000  Uiso   1.00
H171   H     0.29708   0.80364   0.58533   0.00000  Uiso   1.00
H172   H     0.29929   0.13825   0.61707   0.00000  Uiso   1.00
H173   H     0.25925   0.11733   0.42172   0.00000  Uiso   1.00
H174   H     0.26466   0.58715   0.58457   0.00000  Uiso   1.00
H175   H     0.26932   0.29274   0.65150   0.00000  Uiso   1.00
O176   O     0.11736   0.15466   0.30518   0.00000  Uiso   1.00
O177   O     0.12446   0.45910   0.51882   0.00000  Uiso   1.00
O178   O     0.13057   0.38482   0.60664   0.00000  Uiso   1.00
N179   N     0.04382   0.11039   0.31378   0.00000  Uiso   1.00
N180   N     0.04888   0.61471   0.46602   0.00000  Uiso   1.00
N181   N     0.05323   0.27435   0.52861   0.00000  Uiso   1.00
N182   N     0.19479   0.10987   0.39527   0.00000  Uiso   1.00
N183   N     0.19985   0.61419   0.54751   0.00000  Uiso   1.00
N184   N     0.20420   0.27383   0.61010   0.00000  Uiso   1.00
C185   C     0.53536   0.50008   0.92896   0.00000  Uiso   1.00
C186   C     0.57458   0.46975   0.91713   0.00000  Uiso   1.00
C187   C     0.52347   0.44397   0.86179   0.00000  Uiso   1.00
C188   C     0.57226   0.41850   0.86034   0.00000  Uiso   1.00
C189   C     0.61850   0.37140   0.83406   0.00000  Uiso   1.00
C190   C     0.57598   0.60637   0.95908   0.00000  Uiso   1.00
C191   C     0.52603   0.69545   0.93902   0.00000  Uiso   1.00
C192   C     0.57600   0.78499   0.97290   0.00000  Uiso   1.00
C193   C     0.62440   0.94998   0.01177   0.00000  Uiso   1.00
C194   C     0.57717   0.42456   0.97633   0.00000  Uiso   1.00
C195   C     0.52824   0.36080   0.97077   0.00000  Uiso   1.00
C196   C     0.57922   0.29728   0.01917   0.00000  Uiso   1.00
C197   C     0.62948   0.17998   0.08482   0.00000  Uiso   1.00
C198   C     0.71289   0.50069   0.02479   0.00000  Uiso   1.00
C199   C     0.67101   0.47008   0.96918   0.00000  Uiso   1.00
C200   C     0.71989   0.44464   0.96782   0.00000  Uiso   1.00
C201   C     0.66886   0.41883   0.91249   0.00000  Uiso   1.00
C202   C     0.67240   0.60671   0.01113   0.00000  Uiso   1.00
C203   C     0.72246   0.69613   0.04505   0.00000  Uiso   1.00
C204   C     0.67261   0.78533   0.02504   0.00000  Uiso   1.00
C205   C     0.67361   0.42489   0.02838   0.00000  Uiso   1.00
C206   C     0.72467   0.36147   0.07680   0.00000  Uiso   1.00
C207   C     0.67582   0.29762   0.07132   0.00000  Uiso   1.00
H208   H     0.46028   0.49983   0.88843   0.00000  Uiso   1.00
H209   H     0.44884   0.44373   0.82152   0.00000  Uiso   1.00
H210   H     0.45141   0.69517   0.89874   0.00000  Uiso   1.00
H211   H     0.45362   0.36056   0.93049   0.00000  Uiso   1.00
H212   H     0.47869   0.38171   0.77029   0.00000  Uiso   1.00
H213   H     0.48410   0.91188   0.93313   0.00000  Uiso   1.00
H214   H     0.48875   0.20630   0.00006   0.00000  Uiso   1.00
H215   H     0.78797   0.50096   0.06531   0.00000  Uiso   1.00
H216   H     0.79452   0.44491   0.00811   0.00000  Uiso   1.00
H217   H     0.79708   0.69636   0.08533   0.00000  Uiso   1.00
H218   H     0.79929   0.36175   0.11707   0.00000  Uiso   1.00
H219   H     0.75925   0.38267   0.92172   0.00000  Uiso   1.00
H220   H     0.76466   0.91285   0.08457   0.00000  Uiso   1.00
H221   H     0.76932   0.20726   0.15150   0.00000  Uiso   1.00
O222   O     0.61736   0.34534   0.80518   0.00000  Uiso   1.00
O223   O     0.62446   0.04090   0.01882   0.00000  Uiso   1.00
O224   O     0.63057   0.11518   0.10664   0.00000  Uiso   1.00
N225   N     0.54382   0.38961   0.81378   0.00000  Uiso   1.00
N226   N     0.54888   0.88529   0.96602   0.00000  Uiso   1.00
N227   N     0.55323   0.22565   0.02861   0.00000  Uiso   1.00
N228   N     0.69479   0.39013   0.89527   0.00000  Uiso   1.00
N229   N     0.69985   0.88581   0.04751   0.00000  Uiso   1.00
N230   N     0.70420   0.22617   0.11010   0.00000  Uiso   1.00
C231   C     0.03536   0.00008   0.92896   0.00000  Uiso   1.00
C232   C     0.07458   0.96975   0.91713   0.00000  Uiso   1.00
C233   C     0.02347   0.94397   0.86179   0.00000  Uiso   1.00
C234   C     0.07226   0.91850   0.86034   0.00000  Uiso   1.00
C235   C     0.11850   0.87140   0.83406   0.00000  Uiso   1.00
C236   C     0.07598   0.10637   0.95908   0.00000  Uiso   1.00
C237   C     0.02603   0.19545   0.93902   0.00000  Uiso   1.00
C238   C     0.07600   0.28499   0.97290   0.00000  Uiso   1.00
C239   C     0.12440   0.44998   0.01177   0.00000  Uiso   1.00
C240   C     0.07717   0.92456   0.97633   0.00000  Uiso   1.00
C241   C     0.02824   0.86080   0.97077   0.00000  Uiso   1.00
C242   C     0.07922   0.79728   0.01917   0.00000  Uiso   1.00
C243   C     0.12948   0.67998   0.08482   0.00000  Uiso   1.00
C244   C     0.21289   0.00069   0.02479   0.00000  Uiso   1.00
C245   C     0.17101   0.97008   0.96918   0.00000  Uiso   1.00
C246   C     0.21989   0.94464   0.96782   0.00000  Uiso   1.00
C247   C     0.16886   0.91883   0.91249   0.00000  Uiso   1.00
C248   C     0.17240   0.10671   0.01113   0.00000  Uiso   1.00
C249   C     0.22246   0.19613   0.04505   0.00000  Uiso   1.00
C250   C     0.17261   0.28533   0.02504   0.00000  Uiso   1.00
C251   C     0.17361   0.92489   0.02838   0.00000  Uiso   1.00
C252   C     0.22467   0.86147   0.07680   0.00000  Uiso   1.00
C253   C     0.17582   0.79762   0.07132   0.00000  Uiso   1.00
H254   H     0.96028   0.99983   0.88843   0.00000  Uiso   1.00
H255   H     0.94884   0.94373   0.82152   0.00000  Uiso   1.00
H256   H     0.95141   0.19517   0.89874   0.00000  Uiso   1.00
H257   H     0.95362   0.86056   0.93049   0.00000  Uiso   1.00
H258   H     0.97869   0.88171   0.77029   0.00000  Uiso   1.00
H259   H     0.98410   0.41188   0.93313   0.00000  Uiso   1.00
H260   H     0.98875   0.70630   0.00006   0.00000  Uiso   1.00
H261   H     0.28797   0.00096   0.06531   0.00000  Uiso   1.00
H262   H     0.29452   0.94491   0.00811   0.00000  Uiso   1.00
H263   H     0.29708   0.19636   0.08533   0.00000  Uiso   1.00
H264   H     0.29929   0.86175   0.11707   0.00000  Uiso   1.00
H265   H     0.25925   0.88267   0.92172   0.00000  Uiso   1.00
H266   H     0.26466   0.41285   0.08457   0.00000  Uiso   1.00
H267   H     0.26932   0.70726   0.15150   0.00000  Uiso   1.00
O268   O     0.11736   0.84534   0.80518   0.00000  Uiso   1.00
O269   O     0.12446   0.54090   0.01882   0.00000  Uiso   1.00
O270   O     0.13057   0.61518   0.10664   0.00000  Uiso   1.00
N271   N     0.04382   0.88961   0.81378   0.00000  Uiso   1.00
N272   N     0.04888   0.38529   0.96602   0.00000  Uiso   1.00
N273   N     0.05323   0.72565   0.02861   0.00000  Uiso   1.00
N274   N     0.19479   0.89013   0.89527   0.00000  Uiso   1.00
N275   N     0.19985   0.38581   0.04751   0.00000  Uiso   1.00
N276   N     0.20420   0.72617   0.11010   0.00000  Uiso   1.00
C277   C     0.46464   0.50008   0.57104   0.00000  Uiso   1.00
C278   C     0.42542   0.46975   0.58287   0.00000  Uiso   1.00
C279   C     0.47653   0.44397   0.63821   0.00000  Uiso   1.00
C280   C     0.42774   0.41850   0.63966   0.00000  Uiso   1.00
C281   C     0.38150   0.37140   0.66594   0.00000  Uiso   1.00
C282   C     0.42402   0.60637   0.54092   0.00000  Uiso   1.00
C283   C     0.47397   0.69545   0.56098   0.00000  Uiso   1.00
C284   C     0.42400   0.78499   0.52710   0.00000  Uiso   1.00
C285   C     0.37560   0.94998   0.48823   0.00000  Uiso   1.00
C286   C     0.42283   0.42456   0.52367   0.00000  Uiso   1.00
C287   C     0.47176   0.36080   0.52923   0.00000  Uiso   1.00
C288   C     0.42078   0.29728   0.48083   0.00000  Uiso   1.00
C289   C     0.37052   0.17998   0.41518   0.00000  Uiso   1.00
C290   C     0.28711   0.50069   0.47521   0.00000  Uiso   1.00
C291   C     0.32899   0.47008   0.53082   0.00000  Uiso   1.00
C292   C     0.28011   0.44464   0.53218   0.00000  Uiso   1.00
C293   C     0.33114   0.41883   0.58751   0.00000  Uiso   1.00
C294   C     0.32760   0.60671   0.48887   0.00000  Uiso   1.00
C295   C     0.27754   0.69613   0.45495   0.00000  Uiso   1.00
C296   C     0.32739   0.78533   0.47496   0.00000  Uiso   1.00
C297   C     0.32639   0.42489   0.47162   0.00000  Uiso   1.00
C298   C     0.27533   0.36147   0.42320   0.00000  Uiso   1.00
C299   C     0.32418   0.29762   0.42868   0.00000  Uiso   1.00
H300   H     0.53972   0.49983   0.61157   0.00000  Uiso   1.00
H301   H     0.55116   0.44373   0.67848   0.00000  Uiso   1.00
H302   H     0.54859   0.69517   0.60126   0.00000  Uiso   1.00
H303   H     0.54638   0.36056   0.56951   0.00000  Uiso   1.00
H304   H     0.52131   0.38171   0.72971   0.00000  Uiso   1.00
H305   H     0.51590   0.91188   0.56687   0.00000  Uiso   1.00
H306   H     0.51125   0.20630   0.49994   0.00000  Uiso   1.00
H307   H     0.21203   0.50096   0.43469   0.00000  Uiso   1.00
H308   H     0.20548   0.44491   0.49189   0.00000  Uiso   1.00
H309   H     0.20292   0.69636   0.41467   0.00000  Uiso   1.00
H310   H     0.20071   0.36175   0.38293   0.00000  Uiso   1.00
H311   H     0.24075   0.38267   0.57828   0.00000  Uiso   1.00
H312   H     0.23534   0.91285   0.41543   0.00000  Uiso   1.00
H313   H     0.23068   0.20726   0.34850   0.00000  Uiso   1.00
O314   O     0.38264   0.34534   0.69482   0.00000  Uiso   1.00
O315   O     0.37554   0.04090   0.48118   0.00000  Uiso   1.00
O316   O     0.36943   0.11518   0.39336   0.00000  Uiso   1.00
N317   N     0.45618   0.38961   0.68622   0.00000  Uiso   1.00
N318   N     0.45112   0.88529   0.53398   0.00000  Uiso   1.00
N319   N     0.44677   0.22565   0.47139   0.00000  Uiso   1.00
N320   N     0.30521   0.39013   0.60473   0.00000  Uiso   1.00
N321   N     0.30015   0.88581   0.45249   0.00000  Uiso   1.00
N322   N     0.29580   0.22617   0.38990   0.00000  Uiso   1.00
C323   C     0.96464   0.00008   0.57104   0.00000  Uiso   1.00
C324   C     0.92542   0.96975   0.58287   0.00000  Uiso   1.00
C325   C     0.97653   0.94397   0.63821   0.00000  Uiso   1.00
C326   C     0.92774   0.91850   0.63966   0.00000  Uiso   1.00
C327   C     0.88150   0.87140   0.66594   0.00000  Uiso   1.00
C328   C     0.92402   0.10637   0.54092   0.00000  Uiso   1.00
C329   C     0.97397   0.19545   0.56098   0.00000  Uiso   1.00
C330   C     0.92400   0.28499   0.52710   0.00000  Uiso   1.00
C331   C     0.87560   0.44998   0.48823   0.00000  Uiso   1.00
C332   C     0.92283   0.92456   0.52367   0.00000  Uiso   1.00
C333   C     0.97176   0.86080   0.52923   0.00000  Uiso   1.00
C334   C     0.92078   0.79728   0.48083   0.00000  Uiso   1.00
C335   C     0.87052   0.67998   0.41518   0.00000  Uiso   1.00
C336   C     0.78711   0.00069   0.47521   0.00000  Uiso   1.00
C337   C     0.82899   0.97008   0.53082   0.00000  Uiso   1.00
C338   C     0.78011   0.94464   0.53218   0.00000  Uiso   1.00
C339   C     0.83114   0.91883   0.58751   0.00000  Uiso   1.00
C340   C     0.82760   0.10671   0.48887   0.00000  Uiso   1.00
C341   C     0.77754   0.19613   0.45495   0.00000  Uiso   1.00
C342   C     0.82739   0.28533   0.47496   0.00000  Uiso   1.00
C343   C     0.82639   0.92489   0.47162   0.00000  Uiso   1.00
C344   C     0.77533   0.86147   0.42320   0.00000  Uiso   1.00
C345   C     0.82418   0.79762   0.42868   0.00000  Uiso   1.00
H346   H     0.03972   0.99983   0.61157   0.00000  Uiso   1.00
H347   H     0.05116   0.94373   0.67848   0.00000  Uiso   1.00
H348   H     0.04859   0.19517   0.60126   0.00000  Uiso   1.00
H349   H     0.04638   0.86056   0.56951   0.00000  Uiso   1.00
H350   H     0.02131   0.88171   0.72971   0.00000  Uiso   1.00
H351   H     0.01590   0.41188   0.56687   0.00000  Uiso   1.00
H352   H     0.01125   0.70630   0.49994   0.00000  Uiso   1.00
H353   H     0.71203   0.00096   0.43469   0.00000  Uiso   1.00
H354   H     0.70548   0.94491   0.49189   0.00000  Uiso   1.00
H355   H     0.70292   0.19636   0.41467   0.00000  Uiso   1.00
H356   H     0.70071   0.86175   0.38293   0.00000  Uiso   1.00
H357   H     0.74075   0.88267   0.57828   0.00000  Uiso   1.00
H358   H     0.73534   0.41285   0.41543   0.00000  Uiso   1.00
H359   H     0.73068   0.70726   0.34850   0.00000  Uiso   1.00
O360   O     0.88264   0.84534   0.69482   0.00000  Uiso   1.00
O361   O     0.87554   0.54090   0.48118   0.00000  Uiso   1.00
O362   O     0.86943   0.61518   0.39336   0.00000  Uiso   1.00
N363   N     0.95618   0.88961   0.68622   0.00000  Uiso   1.00
N364   N     0.95112   0.38529   0.53398   0.00000  Uiso   1.00
N365   N     0.94677   0.72565   0.47139   0.00000  Uiso   1.00
N366   N     0.80521   0.89013   0.60473   0.00000  Uiso   1.00
N367   N     0.80015   0.38581   0.45249   0.00000  Uiso   1.00
N368   N     0.79580   0.72617   0.38990   0.00000  Uiso   1.00
