data_job_00862
_audit_creation_date              2018-12-19
_audit_creation_method            'Materials Studio'
_symmetry_space_group_name_H-M    'P1'
_symmetry_Int_Tables_number       1
_symmetry_cell_setting            triclinic
loop_
_symmetry_equiv_pos_as_xyz
  x,y,z
_cell_length_a                    12.3931
_cell_length_b                    18.3237
_cell_length_c                    14.0251
_cell_angle_alpha                 90.0000
_cell_angle_beta                  121.0381
_cell_angle_gamma                 90.0000
loop_
_atom_site_label
_atom_site_type_symbol
_atom_site_fract_x
_atom_site_fract_y
_atom_site_fract_z
_atom_site_U_iso_or_equiv
_atom_site_adp_type
_atom_site_occupancy
C1     C     0.79338   0.70271   0.85922   0.00000  Uiso   1.00
C2     C     0.76778   0.67135   0.94639   0.00000  Uiso   1.00
C3     C     0.69525   0.61017   0.93302   0.00000  Uiso   1.00
C4     C     0.68324   0.59030   0.02264   0.00000  Uiso   1.00
C5     C     0.63455   0.53556   0.14286   0.00000  Uiso   1.00
C6     C     0.74988   0.78197   0.84284   0.00000  Uiso   1.00
C7     C     0.66231   0.81381   0.74239   0.00000  Uiso   1.00
C8     C     0.63525   0.88708   0.74485   0.00000  Uiso   1.00
C9     C     0.55884   0.00410   0.70429   0.00000  Uiso   1.00
C10    C     0.93625   0.70517   0.91380   0.00000  Uiso   1.00
C11    C     0.00537   0.67245   0.87302   0.00000  Uiso   1.00
C12    C     0.13522   0.68106   0.93521   0.00000  Uiso   1.00
C13    C     0.34816   0.67883   0.00483   0.00000  Uiso   1.00
C14    C     0.90105   0.77621   0.04217   0.00000  Uiso   1.00
C15    C     0.82626   0.71127   0.04576   0.00000  Uiso   1.00
C16    C     0.81437   0.69149   0.13543   0.00000  Uiso   1.00
C17    C     0.74183   0.63030   0.12220   0.00000  Uiso   1.00
C18    C     0.80836   0.82190   0.94221   0.00000  Uiso   1.00
C19    C     0.78143   0.89513   0.94481   0.00000  Uiso   1.00
C20    C     0.69384   0.92707   0.84440   0.00000  Uiso   1.00
C21    C     0.99473   0.74509   0.01318   0.00000  Uiso   1.00
C22    C     0.12449   0.75376   0.07544   0.00000  Uiso   1.00
C23    C     0.19381   0.72106   0.03476   0.00000  Uiso   1.00
H24    H     0.74785   0.67163   0.78185   0.00000  Uiso   1.00
H25    H     0.65000   0.57930   0.85609   0.00000  Uiso   1.00
H26    H     0.61708   0.78291   0.66551   0.00000  Uiso   1.00
H27    H     0.96009   0.64156   0.79611   0.00000  Uiso   1.00
H28    H     0.56726   0.49455   0.98222   0.00000  Uiso   1.00
H29    H     0.49789   0.92388   0.58035   0.00000  Uiso   1.00
H30    H     0.22119   0.62582   0.85575   0.00000  Uiso   1.00
H31    H     0.94658   0.80729   0.11954   0.00000  Uiso   1.00
H32    H     0.85963   0.72239   0.21232   0.00000  Uiso   1.00
H33    H     0.82671   0.92601   0.02173   0.00000  Uiso   1.00
H34    H     0.16972   0.78466   0.15233   0.00000  Uiso   1.00
H35    H     0.73741   0.61069   0.27134   0.00000  Uiso   1.00
H36    H     0.66803   0.04003   0.86946   0.00000  Uiso   1.00
H37    H     0.39133   0.74197   0.14488   0.00000  Uiso   1.00
O38    O     0.59152   0.49434   0.18171   0.00000  Uiso   1.00
O39    O     0.50052   0.05761   0.65446   0.00000  Uiso   1.00
O40    O     0.44946   0.66656   0.01579   0.00000  Uiso   1.00
N41    N     0.61926   0.53352   0.03754   0.00000  Uiso   1.00
N42    N     0.55438   0.93492   0.66181   0.00000  Uiso   1.00
N43    N     0.23060   0.65628   0.91928   0.00000  Uiso   1.00
N44    N     0.71081   0.59602   0.19312   0.00000  Uiso   1.00
N45    N     0.64593   0.99742   0.81739   0.00000  Uiso   1.00
N46    N     0.32216   0.71878   0.07486   0.00000  Uiso   1.00
C47    C     0.15603   0.77155   0.62864   0.00000  Uiso   1.00
C48    C     0.22033   0.74551   0.56686   0.00000  Uiso   1.00
C49    C     0.28895   0.68151   0.58814   0.00000  Uiso   1.00
C50    C     0.34037   0.66748   0.52242   0.00000  Uiso   1.00
C51    C     0.44280   0.61972   0.43930   0.00000  Uiso   1.00
C52    C     0.20895   0.84735   0.67302   0.00000  Uiso   1.00
C53    C     0.26799   0.86897   0.78356   0.00000  Uiso   1.00
C54    C     0.30981   0.94067   0.80720   0.00000  Uiso   1.00
C55    C     0.39449   0.05102   0.88890   0.00000  Uiso   1.00
C56    C     0.01779   0.78274   0.54011   0.00000  Uiso   1.00
C57    C     0.91608   0.75005   0.53891   0.00000  Uiso   1.00
C58    C     0.79696   0.76737   0.45067   0.00000  Uiso   1.00
C59    C     0.58483   0.77740   0.32600   0.00000  Uiso   1.00
C60    C     0.12534   0.86046   0.47407   0.00000  Uiso   1.00
C61    C     0.20366   0.79380   0.48291   0.00000  Uiso   1.00
C62    C     0.25499   0.77987   0.41713   0.00000  Uiso   1.00
C63    C     0.32367   0.71586   0.43831   0.00000  Uiso   1.00
C64    C     0.19228   0.89564   0.58907   0.00000  Uiso   1.00
C65    C     0.23402   0.96733   0.61255   0.00000  Uiso   1.00
C66    C     0.29311   0.98905   0.72310   0.00000  Uiso   1.00
C67    C     0.00111   0.83102   0.45615   0.00000  Uiso   1.00
C68    C     0.88212   0.84841   0.36790   0.00000  Uiso   1.00
C69    C     0.78025   0.81574   0.36656   0.00000  Uiso   1.00
H70    H     0.16902   0.73396   0.69400   0.00000  Uiso   1.00
H71    H     0.30184   0.64415   0.65313   0.00000  Uiso   1.00
H72    H     0.28086   0.83159   0.84851   0.00000  Uiso   1.00
H73    H     0.92902   0.71268   0.60390   0.00000  Uiso   1.00
H74    H     0.44179   0.56589   0.57081   0.00000  Uiso   1.00
H75    H     0.39752   0.96111   0.98279   0.00000  Uiso   1.00
H76    H     0.65558   0.71037   0.46697   0.00000  Uiso   1.00
H77    H     0.11235   0.89806   0.40871   0.00000  Uiso   1.00
H78    H     0.24207   0.81725   0.35217   0.00000  Uiso   1.00
H79    H     0.22110   0.00468   0.54756   0.00000  Uiso   1.00
H80    H     0.86925   0.88578   0.30294   0.00000  Uiso   1.00
H81    H     0.39328   0.70639   0.32655   0.00000  Uiso   1.00
H82    H     0.34901   0.10161   0.73853   0.00000  Uiso   1.00
H83    H     0.60708   0.85087   0.22271   0.00000  Uiso   1.00
O84    O     0.50392   0.58003   0.41666   0.00000  Uiso   1.00
O85    O     0.44582   0.09854   0.95716   0.00000  Uiso   1.00
O86    O     0.47243   0.76958   0.28042   0.00000  Uiso   1.00
N87    N     0.41255   0.61004   0.52107   0.00000  Uiso   1.00
N88    N     0.37118   0.97954   0.90625   0.00000  Uiso   1.00
N89    N     0.67753   0.74514   0.42402   0.00000  Uiso   1.00
N90    N     0.38645   0.68564   0.38963   0.00000  Uiso   1.00
N91    N     0.34508   0.05514   0.77481   0.00000  Uiso   1.00
N92    N     0.65143   0.82074   0.29258   0.00000  Uiso   1.00
C93    C     0.79338   0.29729   0.35922   0.00000  Uiso   1.00
C94    C     0.76778   0.32865   0.44639   0.00000  Uiso   1.00
C95    C     0.69525   0.38983   0.43302   0.00000  Uiso   1.00
C96    C     0.68324   0.40970   0.52264   0.00000  Uiso   1.00
C97    C     0.63455   0.46444   0.64286   0.00000  Uiso   1.00
C98    C     0.74988   0.21803   0.34284   0.00000  Uiso   1.00
C99    C     0.66231   0.18619   0.24239   0.00000  Uiso   1.00
C100   C     0.63525   0.11292   0.24485   0.00000  Uiso   1.00
C101   C     0.55884   0.99590   0.20429   0.00000  Uiso   1.00
C102   C     0.93625   0.29483   0.41380   0.00000  Uiso   1.00
C103   C     0.00537   0.32755   0.37302   0.00000  Uiso   1.00
C104   C     0.13522   0.31894   0.43521   0.00000  Uiso   1.00
C105   C     0.34816   0.32117   0.50483   0.00000  Uiso   1.00
C106   C     0.90105   0.22379   0.54217   0.00000  Uiso   1.00
C107   C     0.82626   0.28873   0.54576   0.00000  Uiso   1.00
C108   C     0.81437   0.30851   0.63543   0.00000  Uiso   1.00
C109   C     0.74183   0.36970   0.62220   0.00000  Uiso   1.00
C110   C     0.80836   0.17810   0.44221   0.00000  Uiso   1.00
C111   C     0.78143   0.10487   0.44481   0.00000  Uiso   1.00
C112   C     0.69384   0.07293   0.34440   0.00000  Uiso   1.00
C113   C     0.99473   0.25491   0.51318   0.00000  Uiso   1.00
C114   C     0.12449   0.24624   0.57544   0.00000  Uiso   1.00
C115   C     0.19381   0.27894   0.53476   0.00000  Uiso   1.00
H116   H     0.74785   0.32837   0.28185   0.00000  Uiso   1.00
H117   H     0.65000   0.42070   0.35609   0.00000  Uiso   1.00
H118   H     0.61708   0.21709   0.16551   0.00000  Uiso   1.00
H119   H     0.96009   0.35844   0.29611   0.00000  Uiso   1.00
H120   H     0.56726   0.50545   0.48222   0.00000  Uiso   1.00
H121   H     0.49789   0.07612   0.08035   0.00000  Uiso   1.00
H122   H     0.22119   0.37418   0.35575   0.00000  Uiso   1.00
H123   H     0.94658   0.19271   0.61954   0.00000  Uiso   1.00
H124   H     0.85963   0.27761   0.71232   0.00000  Uiso   1.00
H125   H     0.82671   0.07399   0.52173   0.00000  Uiso   1.00
H126   H     0.16972   0.21534   0.65233   0.00000  Uiso   1.00
H127   H     0.73741   0.38931   0.77134   0.00000  Uiso   1.00
H128   H     0.66803   0.95997   0.36946   0.00000  Uiso   1.00
H129   H     0.39133   0.25803   0.64488   0.00000  Uiso   1.00
O130   O     0.59152   0.50566   0.68171   0.00000  Uiso   1.00
O131   O     0.50052   0.94239   0.15446   0.00000  Uiso   1.00
O132   O     0.44946   0.33344   0.51579   0.00000  Uiso   1.00
N133   N     0.61926   0.46648   0.53754   0.00000  Uiso   1.00
N134   N     0.55438   0.06508   0.16181   0.00000  Uiso   1.00
N135   N     0.23060   0.34372   0.41928   0.00000  Uiso   1.00
N136   N     0.71081   0.40398   0.69312   0.00000  Uiso   1.00
N137   N     0.64593   0.00258   0.31739   0.00000  Uiso   1.00
N138   N     0.32216   0.28122   0.57486   0.00000  Uiso   1.00
C139   C     0.15603   0.22845   0.12864   0.00000  Uiso   1.00
C140   C     0.22033   0.25449   0.06686   0.00000  Uiso   1.00
C141   C     0.28895   0.31849   0.08814   0.00000  Uiso   1.00
C142   C     0.34037   0.33252   0.02242   0.00000  Uiso   1.00
C143   C     0.44280   0.38028   0.93930   0.00000  Uiso   1.00
C144   C     0.20895   0.15265   0.17302   0.00000  Uiso   1.00
C145   C     0.26799   0.13103   0.28356   0.00000  Uiso   1.00
C146   C     0.30981   0.05933   0.30720   0.00000  Uiso   1.00
C147   C     0.39449   0.94898   0.38890   0.00000  Uiso   1.00
C148   C     0.01779   0.21726   0.04011   0.00000  Uiso   1.00
C149   C     0.91608   0.24995   0.03891   0.00000  Uiso   1.00
C150   C     0.79696   0.23263   0.95067   0.00000  Uiso   1.00
C151   C     0.58483   0.22260   0.82600   0.00000  Uiso   1.00
C152   C     0.12534   0.13954   0.97407   0.00000  Uiso   1.00
C153   C     0.20366   0.20620   0.98291   0.00000  Uiso   1.00
C154   C     0.25499   0.22013   0.91713   0.00000  Uiso   1.00
C155   C     0.32367   0.28414   0.93831   0.00000  Uiso   1.00
C156   C     0.19228   0.10436   0.08907   0.00000  Uiso   1.00
C157   C     0.23402   0.03267   0.11255   0.00000  Uiso   1.00
C158   C     0.29311   0.01095   0.22310   0.00000  Uiso   1.00
C159   C     0.00111   0.16898   0.95615   0.00000  Uiso   1.00
C160   C     0.88212   0.15159   0.86790   0.00000  Uiso   1.00
C161   C     0.78025   0.18426   0.86656   0.00000  Uiso   1.00
H162   H     0.16902   0.26604   0.19400   0.00000  Uiso   1.00
H163   H     0.30184   0.35585   0.15313   0.00000  Uiso   1.00
H164   H     0.28086   0.16841   0.34851   0.00000  Uiso   1.00
H165   H     0.92902   0.28732   0.10390   0.00000  Uiso   1.00
H166   H     0.44179   0.43411   0.07081   0.00000  Uiso   1.00
H167   H     0.39752   0.03889   0.48279   0.00000  Uiso   1.00
H168   H     0.65558   0.28963   0.96697   0.00000  Uiso   1.00
H169   H     0.11235   0.10194   0.90871   0.00000  Uiso   1.00
H170   H     0.24207   0.18275   0.85217   0.00000  Uiso   1.00
H171   H     0.22110   0.99532   0.04756   0.00000  Uiso   1.00
H172   H     0.86925   0.11422   0.80294   0.00000  Uiso   1.00
H173   H     0.39328   0.29361   0.82655   0.00000  Uiso   1.00
H174   H     0.34901   0.89839   0.23853   0.00000  Uiso   1.00
H175   H     0.60708   0.14913   0.72271   0.00000  Uiso   1.00
O176   O     0.50392   0.41997   0.91666   0.00000  Uiso   1.00
O177   O     0.44582   0.90146   0.45716   0.00000  Uiso   1.00
O178   O     0.47243   0.23042   0.78042   0.00000  Uiso   1.00
N179   N     0.41255   0.38996   0.02107   0.00000  Uiso   1.00
N180   N     0.37118   0.02046   0.40625   0.00000  Uiso   1.00
N181   N     0.67753   0.25486   0.92402   0.00000  Uiso   1.00
N182   N     0.38645   0.31436   0.88963   0.00000  Uiso   1.00
N183   N     0.34508   0.94486   0.27481   0.00000  Uiso   1.00
N184   N     0.65143   0.17926   0.79258   0.00000  Uiso   1.00
