data_job_04003
_audit_creation_date              2018-12-19
_audit_creation_method            'Materials Studio'
_symmetry_space_group_name_H-M    'P1'
_symmetry_Int_Tables_number       1
_symmetry_cell_setting            triclinic
loop_
_symmetry_equiv_pos_as_xyz
  x,y,z
_cell_length_a                    18.3942
_cell_length_b                    12.5195
_cell_length_c                    17.9672
_cell_angle_alpha                 90.0000
_cell_angle_beta                  92.2422
_cell_angle_gamma                 90.0000
loop_
_atom_site_label
_atom_site_type_symbol
_atom_site_fract_x
_atom_site_fract_y
_atom_site_fract_z
_atom_site_U_iso_or_equiv
_atom_site_adp_type
_atom_site_occupancy
C1     C     0.29554   0.88157   0.59821   0.00000  Uiso   1.00
C2     C     0.23567   0.80070   0.57912   0.00000  Uiso   1.00
C3     C     0.22321   0.70659   0.61739   0.00000  Uiso   1.00
C4     C     0.16572   0.64340   0.59113   0.00000  Uiso   1.00
C5     C     0.07940   0.51326   0.57095   0.00000  Uiso   1.00
C6     C     0.33892   0.89357   0.52808   0.00000  Uiso   1.00
C7     C     0.41326   0.87756   0.52344   0.00000  Uiso   1.00
C8     C     0.44268   0.89256   0.45422   0.00000  Uiso   1.00
C9     C     0.51665   0.90668   0.35481   0.00000  Uiso   1.00
C10    C     0.25725   0.98820   0.60882   0.00000  Uiso   1.00
C11    C     0.26294   0.05178   0.67206   0.00000  Uiso   1.00
C12    C     0.22361   0.14647   0.67080   0.00000  Uiso   1.00
C13    C     0.17078   0.30751   0.69675   0.00000  Uiso   1.00
C14    C     0.21560   0.93670   0.48352   0.00000  Uiso   1.00
C15    C     0.19226   0.83065   0.51683   0.00000  Uiso   1.00
C16    C     0.13477   0.76759   0.49050   0.00000  Uiso   1.00
C17    C     0.12222   0.67340   0.52873   0.00000  Uiso   1.00
C18    C     0.29550   0.92352   0.46579   0.00000  Uiso   1.00
C19    C     0.32482   0.93856   0.39655   0.00000  Uiso   1.00
C20    C     0.39918   0.92256   0.39181   0.00000  Uiso   1.00
C21    C     0.21382   0.01815   0.54653   0.00000  Uiso   1.00
C22    C     0.17449   0.11277   0.54517   0.00000  Uiso   1.00
C23    C     0.18011   0.17647   0.60839   0.00000  Uiso   1.00
H24    H     0.32935   0.85825   0.64670   0.00000  Uiso   1.00
H25    H     0.25683   0.68344   0.66559   0.00000  Uiso   1.00
H26    H     0.44685   0.85439   0.57166   0.00000  Uiso   1.00
H27    H     0.29654   0.02857   0.72025   0.00000  Uiso   1.00
H28    H     0.15730   0.50281   0.65905   0.00000  Uiso   1.00
H29    H     0.55797   0.86331   0.46099   0.00000  Uiso   1.00
H30    H     0.24103   0.23061   0.77433   0.00000  Uiso   1.00
H31    H     0.18179   0.96002   0.43502   0.00000  Uiso   1.00
H32    H     0.10118   0.79079   0.44229   0.00000  Uiso   1.00
H33    H     0.29120   0.96174   0.34836   0.00000  Uiso   1.00
H34    H     0.14089   0.13592   0.49695   0.00000  Uiso   1.00
H35    H     0.03097   0.58994   0.47781   0.00000  Uiso   1.00
H36    H     0.43164   0.95044   0.27975   0.00000  Uiso   1.00
H37    H     0.11469   0.31774   0.59309   0.00000  Uiso   1.00
O38    O     0.04378   0.43320   0.57702   0.00000  Uiso   1.00
O39    O     0.56944   0.90617   0.31719   0.00000  Uiso   1.00
O40    O     0.15362   0.38806   0.72827   0.00000  Uiso   1.00
N41    N     0.13863   0.54655   0.61541   0.00000  Uiso   1.00
N42    N     0.51322   0.88358   0.43023   0.00000  Uiso   1.00
N43    N     0.21692   0.22699   0.72317   0.00000  Uiso   1.00
N44    N     0.07065   0.59344   0.51788   0.00000  Uiso   1.00
N45    N     0.44524   0.93046   0.33271   0.00000  Uiso   1.00
N46    N     0.14894   0.27387   0.62564   0.00000  Uiso   1.00
C47    C     0.70446   0.88157   0.90179   0.00000  Uiso   1.00
C48    C     0.76433   0.80070   0.92088   0.00000  Uiso   1.00
C49    C     0.77679   0.70659   0.88261   0.00000  Uiso   1.00
C50    C     0.83428   0.64340   0.90887   0.00000  Uiso   1.00
C51    C     0.92060   0.51326   0.92905   0.00000  Uiso   1.00
C52    C     0.66108   0.89357   0.97192   0.00000  Uiso   1.00
C53    C     0.58674   0.87756   0.97656   0.00000  Uiso   1.00
C54    C     0.55732   0.89256   0.04578   0.00000  Uiso   1.00
C55    C     0.48335   0.90668   0.14519   0.00000  Uiso   1.00
C56    C     0.74275   0.98820   0.89118   0.00000  Uiso   1.00
C57    C     0.73706   0.05178   0.82794   0.00000  Uiso   1.00
C58    C     0.77639   0.14647   0.82920   0.00000  Uiso   1.00
C59    C     0.82922   0.30751   0.80325   0.00000  Uiso   1.00
C60    C     0.78440   0.93670   0.01648   0.00000  Uiso   1.00
C61    C     0.80774   0.83065   0.98317   0.00000  Uiso   1.00
C62    C     0.86523   0.76759   0.00950   0.00000  Uiso   1.00
C63    C     0.87778   0.67340   0.97127   0.00000  Uiso   1.00
C64    C     0.70450   0.92352   0.03421   0.00000  Uiso   1.00
C65    C     0.67518   0.93856   0.10345   0.00000  Uiso   1.00
C66    C     0.60082   0.92256   0.10819   0.00000  Uiso   1.00
C67    C     0.78618   0.01815   0.95347   0.00000  Uiso   1.00
C68    C     0.82551   0.11277   0.95483   0.00000  Uiso   1.00
C69    C     0.81989   0.17647   0.89161   0.00000  Uiso   1.00
H70    H     0.67065   0.85825   0.85330   0.00000  Uiso   1.00
H71    H     0.74317   0.68344   0.83441   0.00000  Uiso   1.00
H72    H     0.55315   0.85439   0.92834   0.00000  Uiso   1.00
H73    H     0.70346   0.02857   0.77975   0.00000  Uiso   1.00
H74    H     0.84270   0.50281   0.84095   0.00000  Uiso   1.00
H75    H     0.44203   0.86331   0.03901   0.00000  Uiso   1.00
H76    H     0.75897   0.23061   0.72567   0.00000  Uiso   1.00
H77    H     0.81821   0.96002   0.06498   0.00000  Uiso   1.00
H78    H     0.89882   0.79079   0.05771   0.00000  Uiso   1.00
H79    H     0.70880   0.96174   0.15164   0.00000  Uiso   1.00
H80    H     0.85911   0.13592   0.00305   0.00000  Uiso   1.00
H81    H     0.96903   0.58994   0.02219   0.00000  Uiso   1.00
H82    H     0.56836   0.95044   0.22025   0.00000  Uiso   1.00
H83    H     0.88531   0.31774   0.90691   0.00000  Uiso   1.00
O84    O     0.95622   0.43320   0.92298   0.00000  Uiso   1.00
O85    O     0.43056   0.90617   0.18281   0.00000  Uiso   1.00
O86    O     0.84638   0.38806   0.77173   0.00000  Uiso   1.00
N87    N     0.86137   0.54655   0.88459   0.00000  Uiso   1.00
N88    N     0.48678   0.88358   0.06977   0.00000  Uiso   1.00
N89    N     0.78308   0.22699   0.77683   0.00000  Uiso   1.00
N90    N     0.92935   0.59344   0.98212   0.00000  Uiso   1.00
N91    N     0.55476   0.93046   0.16729   0.00000  Uiso   1.00
N92    N     0.85106   0.27387   0.87436   0.00000  Uiso   1.00
C93    C     0.70446   0.11843   0.40179   0.00000  Uiso   1.00
C94    C     0.76433   0.19930   0.42088   0.00000  Uiso   1.00
C95    C     0.77679   0.29341   0.38261   0.00000  Uiso   1.00
C96    C     0.83428   0.35660   0.40887   0.00000  Uiso   1.00
C97    C     0.92060   0.48674   0.42905   0.00000  Uiso   1.00
C98    C     0.66108   0.10643   0.47192   0.00000  Uiso   1.00
C99    C     0.58674   0.12244   0.47656   0.00000  Uiso   1.00
C100   C     0.55732   0.10744   0.54578   0.00000  Uiso   1.00
C101   C     0.48335   0.09332   0.64519   0.00000  Uiso   1.00
C102   C     0.74275   0.01180   0.39118   0.00000  Uiso   1.00
C103   C     0.73706   0.94822   0.32794   0.00000  Uiso   1.00
C104   C     0.77639   0.85353   0.32920   0.00000  Uiso   1.00
C105   C     0.82922   0.69249   0.30325   0.00000  Uiso   1.00
C106   C     0.78440   0.06330   0.51648   0.00000  Uiso   1.00
C107   C     0.80774   0.16935   0.48317   0.00000  Uiso   1.00
C108   C     0.86523   0.23241   0.50950   0.00000  Uiso   1.00
C109   C     0.87778   0.32660   0.47127   0.00000  Uiso   1.00
C110   C     0.70450   0.07648   0.53421   0.00000  Uiso   1.00
C111   C     0.67518   0.06144   0.60345   0.00000  Uiso   1.00
C112   C     0.60082   0.07744   0.60819   0.00000  Uiso   1.00
C113   C     0.78618   0.98185   0.45347   0.00000  Uiso   1.00
C114   C     0.82551   0.88723   0.45483   0.00000  Uiso   1.00
C115   C     0.81989   0.82353   0.39161   0.00000  Uiso   1.00
H116   H     0.67065   0.14175   0.35330   0.00000  Uiso   1.00
H117   H     0.74317   0.31656   0.33441   0.00000  Uiso   1.00
H118   H     0.55315   0.14561   0.42834   0.00000  Uiso   1.00
H119   H     0.70346   0.97143   0.27975   0.00000  Uiso   1.00
H120   H     0.84270   0.49719   0.34095   0.00000  Uiso   1.00
H121   H     0.44203   0.13669   0.53901   0.00000  Uiso   1.00
H122   H     0.75897   0.76939   0.22567   0.00000  Uiso   1.00
H123   H     0.81821   0.03998   0.56498   0.00000  Uiso   1.00
H124   H     0.89882   0.20921   0.55771   0.00000  Uiso   1.00
H125   H     0.70880   0.03826   0.65164   0.00000  Uiso   1.00
H126   H     0.85911   0.86408   0.50305   0.00000  Uiso   1.00
H127   H     0.96903   0.41006   0.52219   0.00000  Uiso   1.00
H128   H     0.56836   0.04956   0.72025   0.00000  Uiso   1.00
H129   H     0.88531   0.68226   0.40691   0.00000  Uiso   1.00
O130   O     0.95622   0.56680   0.42298   0.00000  Uiso   1.00
O131   O     0.43056   0.09383   0.68281   0.00000  Uiso   1.00
O132   O     0.84638   0.61194   0.27173   0.00000  Uiso   1.00
N133   N     0.86137   0.45345   0.38459   0.00000  Uiso   1.00
N134   N     0.48678   0.11642   0.56977   0.00000  Uiso   1.00
N135   N     0.78308   0.77301   0.27683   0.00000  Uiso   1.00
N136   N     0.92935   0.40656   0.48212   0.00000  Uiso   1.00
N137   N     0.55476   0.06954   0.66729   0.00000  Uiso   1.00
N138   N     0.85106   0.72613   0.37436   0.00000  Uiso   1.00
C139   C     0.29554   0.11843   0.09821   0.00000  Uiso   1.00
C140   C     0.23567   0.19930   0.07912   0.00000  Uiso   1.00
C141   C     0.22321   0.29341   0.11739   0.00000  Uiso   1.00
C142   C     0.16572   0.35660   0.09113   0.00000  Uiso   1.00
C143   C     0.07940   0.48674   0.07095   0.00000  Uiso   1.00
C144   C     0.33892   0.10643   0.02808   0.00000  Uiso   1.00
C145   C     0.41326   0.12244   0.02344   0.00000  Uiso   1.00
C146   C     0.44268   0.10744   0.95422   0.00000  Uiso   1.00
C147   C     0.51665   0.09332   0.85481   0.00000  Uiso   1.00
C148   C     0.25725   0.01180   0.10882   0.00000  Uiso   1.00
C149   C     0.26294   0.94822   0.17206   0.00000  Uiso   1.00
C150   C     0.22361   0.85353   0.17080   0.00000  Uiso   1.00
C151   C     0.17078   0.69249   0.19675   0.00000  Uiso   1.00
C152   C     0.21560   0.06330   0.98352   0.00000  Uiso   1.00
C153   C     0.19226   0.16935   0.01683   0.00000  Uiso   1.00
C154   C     0.13477   0.23241   0.99050   0.00000  Uiso   1.00
C155   C     0.12222   0.32660   0.02873   0.00000  Uiso   1.00
C156   C     0.29550   0.07648   0.96579   0.00000  Uiso   1.00
C157   C     0.32482   0.06144   0.89655   0.00000  Uiso   1.00
C158   C     0.39918   0.07744   0.89181   0.00000  Uiso   1.00
C159   C     0.21382   0.98185   0.04653   0.00000  Uiso   1.00
C160   C     0.17449   0.88723   0.04517   0.00000  Uiso   1.00
C161   C     0.18011   0.82353   0.10839   0.00000  Uiso   1.00
H162   H     0.32935   0.14175   0.14670   0.00000  Uiso   1.00
H163   H     0.25683   0.31656   0.16559   0.00000  Uiso   1.00
H164   H     0.44685   0.14561   0.07166   0.00000  Uiso   1.00
H165   H     0.29654   0.97143   0.22025   0.00000  Uiso   1.00
H166   H     0.15730   0.49719   0.15905   0.00000  Uiso   1.00
H167   H     0.55797   0.13669   0.96099   0.00000  Uiso   1.00
H168   H     0.24103   0.76939   0.27433   0.00000  Uiso   1.00
H169   H     0.18179   0.03998   0.93502   0.00000  Uiso   1.00
H170   H     0.10118   0.20921   0.94229   0.00000  Uiso   1.00
H171   H     0.29120   0.03826   0.84836   0.00000  Uiso   1.00
H172   H     0.14089   0.86408   0.99695   0.00000  Uiso   1.00
H173   H     0.03097   0.41006   0.97781   0.00000  Uiso   1.00
H174   H     0.43164   0.04956   0.77975   0.00000  Uiso   1.00
H175   H     0.11469   0.68226   0.09309   0.00000  Uiso   1.00
O176   O     0.04378   0.56680   0.07702   0.00000  Uiso   1.00
O177   O     0.56944   0.09383   0.81719   0.00000  Uiso   1.00
O178   O     0.15362   0.61194   0.22827   0.00000  Uiso   1.00
N179   N     0.13863   0.45345   0.11541   0.00000  Uiso   1.00
N180   N     0.51322   0.11642   0.93023   0.00000  Uiso   1.00
N181   N     0.21692   0.77301   0.22317   0.00000  Uiso   1.00
N182   N     0.07065   0.40656   0.01788   0.00000  Uiso   1.00
N183   N     0.44524   0.06954   0.83271   0.00000  Uiso   1.00
N184   N     0.14894   0.72613   0.12564   0.00000  Uiso   1.00
