data_job_01704
_audit_creation_date              2018-12-19
_audit_creation_method            'Materials Studio'
_symmetry_space_group_name_H-M    'P1'
_symmetry_Int_Tables_number       1
_symmetry_cell_setting            triclinic
loop_
_symmetry_equiv_pos_as_xyz
  x,y,z
_cell_length_a                    43.3302
_cell_length_b                    12.1771
_cell_length_c                    22.9885
_cell_angle_alpha                 90.0000
_cell_angle_beta                  37.7146
_cell_angle_gamma                 90.0000
loop_
_atom_site_label
_atom_site_type_symbol
_atom_site_fract_x
_atom_site_fract_y
_atom_site_fract_z
_atom_site_U_iso_or_equiv
_atom_site_adp_type
_atom_site_occupancy
C1     C     0.63274   0.23910   0.73136   0.00000  Uiso   1.00
C2     C     0.63521   0.12288   0.70314   0.00000  Uiso   1.00
C3     C     0.67706   0.05442   0.64202   0.00000  Uiso   1.00
C4     C     0.67169   0.95110   0.62526   0.00000  Uiso   1.00
C5     C     0.68246   0.77575   0.57489   0.00000  Uiso   1.00
C6     C     0.61643   0.31258   0.70537   0.00000  Uiso   1.00
C7     C     0.64248   0.40363   0.64612   0.00000  Uiso   1.00
C8     C     0.62129   0.46000   0.63125   0.00000  Uiso   1.00
C9     C     0.60289   0.57922   0.58438   0.00000  Uiso   1.00
C10    C     0.58905   0.23952   0.83965   0.00000  Uiso   1.00
C11    C     0.59208   0.26918   0.89333   0.00000  Uiso   1.00
C12    C     0.54784   0.26407   0.99152   0.00000  Uiso   1.00
C13    C     0.48694   0.26986   0.15316   0.00000  Uiso   1.00
C14    C     0.54879   0.17733   0.81030   0.00000  Uiso   1.00
C15    C     0.58961   0.08933   0.74602   0.00000  Uiso   1.00
C16    C     0.58417   0.98607   0.72935   0.00000  Uiso   1.00
C17    C     0.62600   0.91748   0.66822   0.00000  Uiso   1.00
C18    C     0.57083   0.27903   0.74824   0.00000  Uiso   1.00
C19    C     0.54960   0.33528   0.73346   0.00000  Uiso   1.00
C20    C     0.57561   0.42639   0.67420   0.00000  Uiso   1.00
C21    C     0.54345   0.20597   0.88253   0.00000  Uiso   1.00
C22    C     0.49920   0.20082   0.98066   0.00000  Uiso   1.00
C23    C     0.50216   0.23046   0.03447   0.00000  Uiso   1.00
H24    H     0.66824   0.26523   0.69798   0.00000  Uiso   1.00
H25    H     0.71234   0.08043   0.60884   0.00000  Uiso   1.00
H26    H     0.67776   0.42959   0.61296   0.00000  Uiso   1.00
H27    H     0.62737   0.29514   0.86012   0.00000  Uiso   1.00
H28    H     0.74113   0.86075   0.52891   0.00000  Uiso   1.00
H29    H     0.66821   0.59699   0.53760   0.00000  Uiso   1.00
H30    H     0.56196   0.31350   0.05880   0.00000  Uiso   1.00
H31    H     0.51329   0.15121   0.84368   0.00000  Uiso   1.00
H32    H     0.54888   0.96013   0.76254   0.00000  Uiso   1.00
H33    H     0.51431   0.30930   0.76665   0.00000  Uiso   1.00
H34    H     0.46392   0.17485   0.01382   0.00000  Uiso   1.00
H35    H     0.60846   0.76312   0.65365   0.00000  Uiso   1.00
H36    H     0.53554   0.49937   0.66235   0.00000  Uiso   1.00
H37    H     0.42929   0.21587   0.18355   0.00000  Uiso   1.00
O38    O     0.70101   0.68831   0.53525   0.00000  Uiso   1.00
O39    O     0.60535   0.65425   0.54668   0.00000  Uiso   1.00
O40    O     0.46594   0.28231   0.23047   0.00000  Uiso   1.00
N41    N     0.70502   0.86398   0.56942   0.00000  Uiso   1.00
N42    N     0.63685   0.55232   0.57753   0.00000  Uiso   1.00
N43    N     0.53751   0.28731   0.06481   0.00000  Uiso   1.00
N44    N     0.63363   0.81145   0.63654   0.00000  Uiso   1.00
N45    N     0.56546   0.49978   0.64466   0.00000  Uiso   1.00
N46    N     0.46612   0.23477   0.13193   0.00000  Uiso   1.00
C47    C     0.13274   0.73910   0.73136   0.00000  Uiso   1.00
C48    C     0.13521   0.62288   0.70314   0.00000  Uiso   1.00
C49    C     0.17706   0.55442   0.64202   0.00000  Uiso   1.00
C50    C     0.17169   0.45110   0.62526   0.00000  Uiso   1.00
C51    C     0.18246   0.27575   0.57489   0.00000  Uiso   1.00
C52    C     0.11643   0.81258   0.70537   0.00000  Uiso   1.00
C53    C     0.14248   0.90363   0.64612   0.00000  Uiso   1.00
C54    C     0.12129   0.96000   0.63125   0.00000  Uiso   1.00
C55    C     0.10289   0.07922   0.58438   0.00000  Uiso   1.00
C56    C     0.08905   0.73952   0.83965   0.00000  Uiso   1.00
C57    C     0.09208   0.76918   0.89333   0.00000  Uiso   1.00
C58    C     0.04784   0.76407   0.99152   0.00000  Uiso   1.00
C59    C     0.98694   0.76986   0.15316   0.00000  Uiso   1.00
C60    C     0.04879   0.67733   0.81030   0.00000  Uiso   1.00
C61    C     0.08961   0.58933   0.74602   0.00000  Uiso   1.00
C62    C     0.08417   0.48607   0.72935   0.00000  Uiso   1.00
C63    C     0.12600   0.41748   0.66822   0.00000  Uiso   1.00
C64    C     0.07083   0.77903   0.74824   0.00000  Uiso   1.00
C65    C     0.04960   0.83528   0.73346   0.00000  Uiso   1.00
C66    C     0.07561   0.92639   0.67420   0.00000  Uiso   1.00
C67    C     0.04345   0.70597   0.88253   0.00000  Uiso   1.00
C68    C     0.99920   0.70082   0.98066   0.00000  Uiso   1.00
C69    C     0.00216   0.73046   0.03447   0.00000  Uiso   1.00
H70    H     0.16824   0.76523   0.69798   0.00000  Uiso   1.00
H71    H     0.21234   0.58043   0.60884   0.00000  Uiso   1.00
H72    H     0.17776   0.92959   0.61296   0.00000  Uiso   1.00
H73    H     0.12737   0.79514   0.86012   0.00000  Uiso   1.00
H74    H     0.24113   0.36075   0.52891   0.00000  Uiso   1.00
H75    H     0.16821   0.09699   0.53760   0.00000  Uiso   1.00
H76    H     0.06196   0.81350   0.05880   0.00000  Uiso   1.00
H77    H     0.01329   0.65121   0.84368   0.00000  Uiso   1.00
H78    H     0.04888   0.46013   0.76254   0.00000  Uiso   1.00
H79    H     0.01431   0.80930   0.76665   0.00000  Uiso   1.00
H80    H     0.96392   0.67485   0.01382   0.00000  Uiso   1.00
H81    H     0.10846   0.26312   0.65365   0.00000  Uiso   1.00
H82    H     0.03554   0.99937   0.66235   0.00000  Uiso   1.00
H83    H     0.92929   0.71587   0.18355   0.00000  Uiso   1.00
O84    O     0.20101   0.18831   0.53525   0.00000  Uiso   1.00
O85    O     0.10535   0.15425   0.54668   0.00000  Uiso   1.00
O86    O     0.96594   0.78231   0.23047   0.00000  Uiso   1.00
N87    N     0.20502   0.36398   0.56942   0.00000  Uiso   1.00
N88    N     0.13685   0.05232   0.57753   0.00000  Uiso   1.00
N89    N     0.03751   0.78731   0.06481   0.00000  Uiso   1.00
N90    N     0.13363   0.31145   0.63654   0.00000  Uiso   1.00
N91    N     0.06546   0.99978   0.64466   0.00000  Uiso   1.00
N92    N     0.96612   0.73477   0.13193   0.00000  Uiso   1.00
C93    C     0.36726   0.23910   0.76864   0.00000  Uiso   1.00
C94    C     0.36479   0.12288   0.79686   0.00000  Uiso   1.00
C95    C     0.32294   0.05442   0.85798   0.00000  Uiso   1.00
C96    C     0.32831   0.95110   0.87474   0.00000  Uiso   1.00
C97    C     0.31754   0.77575   0.92511   0.00000  Uiso   1.00
C98    C     0.38357   0.31258   0.79463   0.00000  Uiso   1.00
C99    C     0.35752   0.40363   0.85388   0.00000  Uiso   1.00
C100   C     0.37871   0.46000   0.86875   0.00000  Uiso   1.00
C101   C     0.39711   0.57922   0.91562   0.00000  Uiso   1.00
C102   C     0.41095   0.23952   0.66035   0.00000  Uiso   1.00
C103   C     0.40792   0.26918   0.60667   0.00000  Uiso   1.00
C104   C     0.45216   0.26407   0.50848   0.00000  Uiso   1.00
C105   C     0.51306   0.26986   0.34684   0.00000  Uiso   1.00
C106   C     0.45121   0.17733   0.68970   0.00000  Uiso   1.00
C107   C     0.41039   0.08933   0.75398   0.00000  Uiso   1.00
C108   C     0.41583   0.98607   0.77065   0.00000  Uiso   1.00
C109   C     0.37400   0.91748   0.83178   0.00000  Uiso   1.00
C110   C     0.42917   0.27903   0.75176   0.00000  Uiso   1.00
C111   C     0.45040   0.33528   0.76654   0.00000  Uiso   1.00
C112   C     0.42439   0.42639   0.82580   0.00000  Uiso   1.00
C113   C     0.45655   0.20597   0.61747   0.00000  Uiso   1.00
C114   C     0.50080   0.20082   0.51934   0.00000  Uiso   1.00
C115   C     0.49784   0.23046   0.46553   0.00000  Uiso   1.00
H116   H     0.33176   0.26523   0.80202   0.00000  Uiso   1.00
H117   H     0.28766   0.08043   0.89116   0.00000  Uiso   1.00
H118   H     0.32224   0.42959   0.88704   0.00000  Uiso   1.00
H119   H     0.37263   0.29514   0.63988   0.00000  Uiso   1.00
H120   H     0.25887   0.86075   0.97109   0.00000  Uiso   1.00
H121   H     0.33179   0.59699   0.96240   0.00000  Uiso   1.00
H122   H     0.43804   0.31350   0.44120   0.00000  Uiso   1.00
H123   H     0.48671   0.15121   0.65632   0.00000  Uiso   1.00
H124   H     0.45112   0.96013   0.73746   0.00000  Uiso   1.00
H125   H     0.48569   0.30930   0.73335   0.00000  Uiso   1.00
H126   H     0.53608   0.17485   0.48618   0.00000  Uiso   1.00
H127   H     0.39154   0.76312   0.84635   0.00000  Uiso   1.00
H128   H     0.46446   0.49937   0.83765   0.00000  Uiso   1.00
H129   H     0.57071   0.21587   0.31645   0.00000  Uiso   1.00
O130   O     0.29899   0.68831   0.96475   0.00000  Uiso   1.00
O131   O     0.39465   0.65425   0.95332   0.00000  Uiso   1.00
O132   O     0.53406   0.28231   0.26953   0.00000  Uiso   1.00
N133   N     0.29498   0.86398   0.93058   0.00000  Uiso   1.00
N134   N     0.36315   0.55232   0.92247   0.00000  Uiso   1.00
N135   N     0.46249   0.28731   0.43519   0.00000  Uiso   1.00
N136   N     0.36637   0.81145   0.86346   0.00000  Uiso   1.00
N137   N     0.43454   0.49978   0.85534   0.00000  Uiso   1.00
N138   N     0.53388   0.23477   0.36807   0.00000  Uiso   1.00
C139   C     0.86726   0.73910   0.76864   0.00000  Uiso   1.00
C140   C     0.86479   0.62288   0.79686   0.00000  Uiso   1.00
C141   C     0.82294   0.55442   0.85798   0.00000  Uiso   1.00
C142   C     0.82831   0.45110   0.87474   0.00000  Uiso   1.00
C143   C     0.81754   0.27575   0.92511   0.00000  Uiso   1.00
C144   C     0.88357   0.81258   0.79463   0.00000  Uiso   1.00
C145   C     0.85752   0.90363   0.85388   0.00000  Uiso   1.00
C146   C     0.87871   0.96000   0.86875   0.00000  Uiso   1.00
C147   C     0.89711   0.07922   0.91562   0.00000  Uiso   1.00
C148   C     0.91095   0.73952   0.66035   0.00000  Uiso   1.00
C149   C     0.90792   0.76918   0.60667   0.00000  Uiso   1.00
C150   C     0.95216   0.76407   0.50848   0.00000  Uiso   1.00
C151   C     0.01306   0.76986   0.34684   0.00000  Uiso   1.00
C152   C     0.95121   0.67733   0.68970   0.00000  Uiso   1.00
C153   C     0.91039   0.58933   0.75398   0.00000  Uiso   1.00
C154   C     0.91583   0.48607   0.77065   0.00000  Uiso   1.00
C155   C     0.87400   0.41748   0.83178   0.00000  Uiso   1.00
C156   C     0.92917   0.77903   0.75176   0.00000  Uiso   1.00
C157   C     0.95040   0.83528   0.76654   0.00000  Uiso   1.00
C158   C     0.92439   0.92639   0.82580   0.00000  Uiso   1.00
C159   C     0.95655   0.70597   0.61747   0.00000  Uiso   1.00
C160   C     0.00080   0.70082   0.51934   0.00000  Uiso   1.00
C161   C     0.99784   0.73046   0.46553   0.00000  Uiso   1.00
H162   H     0.83176   0.76523   0.80202   0.00000  Uiso   1.00
H163   H     0.78766   0.58043   0.89116   0.00000  Uiso   1.00
H164   H     0.82224   0.92959   0.88704   0.00000  Uiso   1.00
H165   H     0.87263   0.79514   0.63988   0.00000  Uiso   1.00
H166   H     0.75887   0.36075   0.97109   0.00000  Uiso   1.00
H167   H     0.83179   0.09699   0.96240   0.00000  Uiso   1.00
H168   H     0.93804   0.81350   0.44120   0.00000  Uiso   1.00
H169   H     0.98671   0.65121   0.65632   0.00000  Uiso   1.00
H170   H     0.95112   0.46013   0.73746   0.00000  Uiso   1.00
H171   H     0.98569   0.80930   0.73335   0.00000  Uiso   1.00
H172   H     0.03608   0.67485   0.48618   0.00000  Uiso   1.00
H173   H     0.89154   0.26312   0.84635   0.00000  Uiso   1.00
H174   H     0.96446   0.99937   0.83765   0.00000  Uiso   1.00
H175   H     0.07071   0.71587   0.31645   0.00000  Uiso   1.00
O176   O     0.79899   0.18831   0.96475   0.00000  Uiso   1.00
O177   O     0.89465   0.15425   0.95332   0.00000  Uiso   1.00
O178   O     0.03406   0.78231   0.26953   0.00000  Uiso   1.00
N179   N     0.79498   0.36398   0.93058   0.00000  Uiso   1.00
N180   N     0.86315   0.05232   0.92247   0.00000  Uiso   1.00
N181   N     0.96249   0.78731   0.43519   0.00000  Uiso   1.00
N182   N     0.86637   0.31145   0.86346   0.00000  Uiso   1.00
N183   N     0.93454   0.99978   0.85534   0.00000  Uiso   1.00
N184   N     0.03388   0.73477   0.36807   0.00000  Uiso   1.00
C185   C     0.36726   0.76090   0.26864   0.00000  Uiso   1.00
C186   C     0.36479   0.87712   0.29686   0.00000  Uiso   1.00
C187   C     0.32294   0.94558   0.35798   0.00000  Uiso   1.00
C188   C     0.32831   0.04890   0.37474   0.00000  Uiso   1.00
C189   C     0.31754   0.22425   0.42511   0.00000  Uiso   1.00
C190   C     0.38357   0.68742   0.29463   0.00000  Uiso   1.00
C191   C     0.35752   0.59637   0.35388   0.00000  Uiso   1.00
C192   C     0.37871   0.54000   0.36875   0.00000  Uiso   1.00
C193   C     0.39711   0.42078   0.41562   0.00000  Uiso   1.00
C194   C     0.41095   0.76048   0.16035   0.00000  Uiso   1.00
C195   C     0.40792   0.73082   0.10667   0.00000  Uiso   1.00
C196   C     0.45216   0.73593   0.00848   0.00000  Uiso   1.00
C197   C     0.51306   0.73014   0.84684   0.00000  Uiso   1.00
C198   C     0.45121   0.82267   0.18970   0.00000  Uiso   1.00
C199   C     0.41039   0.91067   0.25398   0.00000  Uiso   1.00
C200   C     0.41583   0.01393   0.27065   0.00000  Uiso   1.00
C201   C     0.37400   0.08252   0.33178   0.00000  Uiso   1.00
C202   C     0.42917   0.72097   0.25176   0.00000  Uiso   1.00
C203   C     0.45040   0.66472   0.26654   0.00000  Uiso   1.00
C204   C     0.42439   0.57361   0.32580   0.00000  Uiso   1.00
C205   C     0.45655   0.79403   0.11747   0.00000  Uiso   1.00
C206   C     0.50080   0.79918   0.01934   0.00000  Uiso   1.00
C207   C     0.49784   0.76954   0.96553   0.00000  Uiso   1.00
H208   H     0.33176   0.73477   0.30202   0.00000  Uiso   1.00
H209   H     0.28766   0.91957   0.39116   0.00000  Uiso   1.00
H210   H     0.32224   0.57041   0.38704   0.00000  Uiso   1.00
H211   H     0.37263   0.70486   0.13988   0.00000  Uiso   1.00
H212   H     0.25887   0.13925   0.47109   0.00000  Uiso   1.00
H213   H     0.33179   0.40301   0.46240   0.00000  Uiso   1.00
H214   H     0.43804   0.68650   0.94120   0.00000  Uiso   1.00
H215   H     0.48671   0.84879   0.15632   0.00000  Uiso   1.00
H216   H     0.45112   0.03987   0.23746   0.00000  Uiso   1.00
H217   H     0.48569   0.69070   0.23335   0.00000  Uiso   1.00
H218   H     0.53608   0.82515   0.98618   0.00000  Uiso   1.00
H219   H     0.39154   0.23688   0.34635   0.00000  Uiso   1.00
H220   H     0.46446   0.50063   0.33765   0.00000  Uiso   1.00
H221   H     0.57071   0.78413   0.81645   0.00000  Uiso   1.00
O222   O     0.29899   0.31169   0.46475   0.00000  Uiso   1.00
O223   O     0.39465   0.34575   0.45332   0.00000  Uiso   1.00
O224   O     0.53406   0.71769   0.76953   0.00000  Uiso   1.00
N225   N     0.29498   0.13602   0.43058   0.00000  Uiso   1.00
N226   N     0.36315   0.44768   0.42247   0.00000  Uiso   1.00
N227   N     0.46249   0.71269   0.93519   0.00000  Uiso   1.00
N228   N     0.36637   0.18855   0.36346   0.00000  Uiso   1.00
N229   N     0.43454   0.50022   0.35534   0.00000  Uiso   1.00
N230   N     0.53388   0.76523   0.86807   0.00000  Uiso   1.00
C231   C     0.86726   0.26090   0.26864   0.00000  Uiso   1.00
C232   C     0.86479   0.37712   0.29686   0.00000  Uiso   1.00
C233   C     0.82294   0.44558   0.35798   0.00000  Uiso   1.00
C234   C     0.82831   0.54890   0.37474   0.00000  Uiso   1.00
C235   C     0.81754   0.72425   0.42511   0.00000  Uiso   1.00
C236   C     0.88357   0.18742   0.29463   0.00000  Uiso   1.00
C237   C     0.85752   0.09637   0.35388   0.00000  Uiso   1.00
C238   C     0.87871   0.04000   0.36875   0.00000  Uiso   1.00
C239   C     0.89711   0.92078   0.41562   0.00000  Uiso   1.00
C240   C     0.91095   0.26048   0.16035   0.00000  Uiso   1.00
C241   C     0.90792   0.23082   0.10667   0.00000  Uiso   1.00
C242   C     0.95216   0.23593   0.00848   0.00000  Uiso   1.00
C243   C     0.01306   0.23014   0.84684   0.00000  Uiso   1.00
C244   C     0.95121   0.32267   0.18970   0.00000  Uiso   1.00
C245   C     0.91039   0.41067   0.25398   0.00000  Uiso   1.00
C246   C     0.91583   0.51393   0.27065   0.00000  Uiso   1.00
C247   C     0.87400   0.58252   0.33178   0.00000  Uiso   1.00
C248   C     0.92917   0.22097   0.25176   0.00000  Uiso   1.00
C249   C     0.95040   0.16472   0.26654   0.00000  Uiso   1.00
C250   C     0.92439   0.07361   0.32580   0.00000  Uiso   1.00
C251   C     0.95655   0.29403   0.11747   0.00000  Uiso   1.00
C252   C     0.00080   0.29918   0.01934   0.00000  Uiso   1.00
C253   C     0.99784   0.26954   0.96553   0.00000  Uiso   1.00
H254   H     0.83176   0.23477   0.30202   0.00000  Uiso   1.00
H255   H     0.78766   0.41957   0.39116   0.00000  Uiso   1.00
H256   H     0.82224   0.07041   0.38704   0.00000  Uiso   1.00
H257   H     0.87263   0.20486   0.13988   0.00000  Uiso   1.00
H258   H     0.75887   0.63925   0.47109   0.00000  Uiso   1.00
H259   H     0.83179   0.90301   0.46240   0.00000  Uiso   1.00
H260   H     0.93804   0.18650   0.94120   0.00000  Uiso   1.00
H261   H     0.98671   0.34879   0.15632   0.00000  Uiso   1.00
H262   H     0.95112   0.53987   0.23746   0.00000  Uiso   1.00
H263   H     0.98569   0.19070   0.23335   0.00000  Uiso   1.00
H264   H     0.03608   0.32515   0.98618   0.00000  Uiso   1.00
H265   H     0.89154   0.73688   0.34635   0.00000  Uiso   1.00
H266   H     0.96446   0.00063   0.33765   0.00000  Uiso   1.00
H267   H     0.07071   0.28413   0.81645   0.00000  Uiso   1.00
O268   O     0.79899   0.81169   0.46475   0.00000  Uiso   1.00
O269   O     0.89465   0.84575   0.45332   0.00000  Uiso   1.00
O270   O     0.03406   0.21769   0.76953   0.00000  Uiso   1.00
N271   N     0.79498   0.63602   0.43058   0.00000  Uiso   1.00
N272   N     0.86315   0.94768   0.42247   0.00000  Uiso   1.00
N273   N     0.96249   0.21269   0.93519   0.00000  Uiso   1.00
N274   N     0.86637   0.68855   0.36346   0.00000  Uiso   1.00
N275   N     0.93454   0.00022   0.35534   0.00000  Uiso   1.00
N276   N     0.03388   0.26523   0.86807   0.00000  Uiso   1.00
C277   C     0.63274   0.76090   0.23136   0.00000  Uiso   1.00
C278   C     0.63521   0.87712   0.20314   0.00000  Uiso   1.00
C279   C     0.67706   0.94558   0.14202   0.00000  Uiso   1.00
C280   C     0.67169   0.04890   0.12526   0.00000  Uiso   1.00
C281   C     0.68246   0.22425   0.07489   0.00000  Uiso   1.00
C282   C     0.61643   0.68742   0.20537   0.00000  Uiso   1.00
C283   C     0.64248   0.59637   0.14612   0.00000  Uiso   1.00
C284   C     0.62129   0.54000   0.13125   0.00000  Uiso   1.00
C285   C     0.60289   0.42078   0.08438   0.00000  Uiso   1.00
C286   C     0.58905   0.76048   0.33965   0.00000  Uiso   1.00
C287   C     0.59208   0.73082   0.39333   0.00000  Uiso   1.00
C288   C     0.54784   0.73593   0.49152   0.00000  Uiso   1.00
C289   C     0.48694   0.73014   0.65316   0.00000  Uiso   1.00
C290   C     0.54879   0.82267   0.31030   0.00000  Uiso   1.00
C291   C     0.58961   0.91067   0.24602   0.00000  Uiso   1.00
C292   C     0.58417   0.01393   0.22935   0.00000  Uiso   1.00
C293   C     0.62600   0.08252   0.16822   0.00000  Uiso   1.00
C294   C     0.57083   0.72097   0.24824   0.00000  Uiso   1.00
C295   C     0.54960   0.66472   0.23346   0.00000  Uiso   1.00
C296   C     0.57561   0.57361   0.17420   0.00000  Uiso   1.00
C297   C     0.54345   0.79403   0.38253   0.00000  Uiso   1.00
C298   C     0.49920   0.79918   0.48066   0.00000  Uiso   1.00
C299   C     0.50216   0.76954   0.53447   0.00000  Uiso   1.00
H300   H     0.66824   0.73477   0.19798   0.00000  Uiso   1.00
H301   H     0.71234   0.91957   0.10884   0.00000  Uiso   1.00
H302   H     0.67776   0.57041   0.11296   0.00000  Uiso   1.00
H303   H     0.62737   0.70486   0.36012   0.00000  Uiso   1.00
H304   H     0.74113   0.13925   0.02891   0.00000  Uiso   1.00
H305   H     0.66821   0.40301   0.03760   0.00000  Uiso   1.00
H306   H     0.56196   0.68650   0.55880   0.00000  Uiso   1.00
H307   H     0.51329   0.84879   0.34368   0.00000  Uiso   1.00
H308   H     0.54888   0.03987   0.26254   0.00000  Uiso   1.00
H309   H     0.51431   0.69070   0.26665   0.00000  Uiso   1.00
H310   H     0.46392   0.82515   0.51382   0.00000  Uiso   1.00
H311   H     0.60846   0.23688   0.15365   0.00000  Uiso   1.00
H312   H     0.53554   0.50063   0.16235   0.00000  Uiso   1.00
H313   H     0.42929   0.78413   0.68355   0.00000  Uiso   1.00
O314   O     0.70101   0.31169   0.03525   0.00000  Uiso   1.00
O315   O     0.60535   0.34575   0.04668   0.00000  Uiso   1.00
O316   O     0.46594   0.71769   0.73047   0.00000  Uiso   1.00
N317   N     0.70502   0.13602   0.06942   0.00000  Uiso   1.00
N318   N     0.63685   0.44768   0.07753   0.00000  Uiso   1.00
N319   N     0.53751   0.71269   0.56481   0.00000  Uiso   1.00
N320   N     0.63363   0.18855   0.13654   0.00000  Uiso   1.00
N321   N     0.56546   0.50022   0.14466   0.00000  Uiso   1.00
N322   N     0.46612   0.76523   0.63193   0.00000  Uiso   1.00
C323   C     0.13274   0.26090   0.23136   0.00000  Uiso   1.00
C324   C     0.13521   0.37712   0.20314   0.00000  Uiso   1.00
C325   C     0.17706   0.44558   0.14202   0.00000  Uiso   1.00
C326   C     0.17169   0.54890   0.12526   0.00000  Uiso   1.00
C327   C     0.18246   0.72425   0.07489   0.00000  Uiso   1.00
C328   C     0.11643   0.18742   0.20537   0.00000  Uiso   1.00
C329   C     0.14248   0.09637   0.14612   0.00000  Uiso   1.00
C330   C     0.12129   0.04000   0.13125   0.00000  Uiso   1.00
C331   C     0.10289   0.92078   0.08438   0.00000  Uiso   1.00
C332   C     0.08905   0.26048   0.33965   0.00000  Uiso   1.00
C333   C     0.09208   0.23082   0.39333   0.00000  Uiso   1.00
C334   C     0.04784   0.23593   0.49152   0.00000  Uiso   1.00
C335   C     0.98694   0.23014   0.65316   0.00000  Uiso   1.00
C336   C     0.04879   0.32267   0.31030   0.00000  Uiso   1.00
C337   C     0.08961   0.41067   0.24602   0.00000  Uiso   1.00
C338   C     0.08417   0.51393   0.22935   0.00000  Uiso   1.00
C339   C     0.12600   0.58252   0.16822   0.00000  Uiso   1.00
C340   C     0.07083   0.22097   0.24824   0.00000  Uiso   1.00
C341   C     0.04960   0.16472   0.23346   0.00000  Uiso   1.00
C342   C     0.07561   0.07361   0.17420   0.00000  Uiso   1.00
C343   C     0.04345   0.29403   0.38253   0.00000  Uiso   1.00
C344   C     0.99920   0.29918   0.48066   0.00000  Uiso   1.00
C345   C     0.00216   0.26954   0.53447   0.00000  Uiso   1.00
H346   H     0.16824   0.23477   0.19798   0.00000  Uiso   1.00
H347   H     0.21234   0.41957   0.10884   0.00000  Uiso   1.00
H348   H     0.17776   0.07041   0.11296   0.00000  Uiso   1.00
H349   H     0.12737   0.20486   0.36012   0.00000  Uiso   1.00
H350   H     0.24113   0.63925   0.02891   0.00000  Uiso   1.00
H351   H     0.16821   0.90301   0.03760   0.00000  Uiso   1.00
H352   H     0.06196   0.18650   0.55880   0.00000  Uiso   1.00
H353   H     0.01329   0.34879   0.34368   0.00000  Uiso   1.00
H354   H     0.04888   0.53987   0.26254   0.00000  Uiso   1.00
H355   H     0.01431   0.19070   0.26665   0.00000  Uiso   1.00
H356   H     0.96392   0.32515   0.51382   0.00000  Uiso   1.00
H357   H     0.10846   0.73688   0.15365   0.00000  Uiso   1.00
H358   H     0.03554   0.00063   0.16235   0.00000  Uiso   1.00
H359   H     0.92929   0.28413   0.68355   0.00000  Uiso   1.00
O360   O     0.20101   0.81169   0.03525   0.00000  Uiso   1.00
O361   O     0.10535   0.84575   0.04668   0.00000  Uiso   1.00
O362   O     0.96594   0.21769   0.73047   0.00000  Uiso   1.00
N363   N     0.20502   0.63602   0.06942   0.00000  Uiso   1.00
N364   N     0.13685   0.94768   0.07753   0.00000  Uiso   1.00
N365   N     0.03751   0.21269   0.56481   0.00000  Uiso   1.00
N366   N     0.13363   0.68855   0.13654   0.00000  Uiso   1.00
N367   N     0.06546   0.00022   0.14466   0.00000  Uiso   1.00
N368   N     0.96612   0.26523   0.63193   0.00000  Uiso   1.00
