data_job_02158
_audit_creation_date              2018-12-19
_audit_creation_method            'Materials Studio'
_symmetry_space_group_name_H-M    'P1'
_symmetry_Int_Tables_number       1
_symmetry_cell_setting            triclinic
loop_
_symmetry_equiv_pos_as_xyz
  x,y,z
_cell_length_a                    21.2315
_cell_length_b                    9.3257
_cell_length_c                    27.7175
_cell_angle_alpha                 90.0000
_cell_angle_beta                  147.0640
_cell_angle_gamma                 90.0000
loop_
_atom_site_label
_atom_site_type_symbol
_atom_site_fract_x
_atom_site_fract_y
_atom_site_fract_z
_atom_site_U_iso_or_equiv
_atom_site_adp_type
_atom_site_occupancy
C1     C     0.49588   0.87378   0.12772   0.00000  Uiso   1.00
C2     C     0.60218   0.83564   0.22610   0.00000  Uiso   1.00
C3     C     0.68918   0.74104   0.26859   0.00000  Uiso   1.00
C4     C     0.77911   0.72063   0.35894   0.00000  Uiso   1.00
C5     C     0.94373   0.65044   0.50467   0.00000  Uiso   1.00
C6     C     0.39119   0.83970   0.09195   0.00000  Uiso   1.00
C7     C     0.30078   0.74853   0.02164   0.00000  Uiso   1.00
C8     C     0.21309   0.73155   0.99907   0.00000  Uiso   1.00
C9     C     0.05009   0.66776   0.93649   0.00000  Uiso   1.00
C10    C     0.49768   0.03643   0.12331   0.00000  Uiso   1.00
C11    C     0.49679   0.11069   0.07934   0.00000  Uiso   1.00
C12    C     0.49872   0.25936   0.08316   0.00000  Uiso   1.00
C13    C     0.50108   0.50102   0.06926   0.00000  Uiso   1.00
C14    C     0.50087   0.00576   0.21264   0.00000  Uiso   1.00
C15    C     0.60489   0.90732   0.27222   0.00000  Uiso   1.00
C16    C     0.69471   0.88706   0.36254   0.00000  Uiso   1.00
C17    C     0.78183   0.79245   0.40515   0.00000  Uiso   1.00
C18    C     0.39389   0.91138   0.13807   0.00000  Uiso   1.00
C19    C     0.30631   0.89455   0.11560   0.00000  Uiso   1.00
C20    C     0.21580   0.80337   0.04528   0.00000  Uiso   1.00
C21    C     0.50039   0.10812   0.16944   0.00000  Uiso   1.00
C22    C     0.50232   0.25671   0.17331   0.00000  Uiso   1.00
C23    C     0.50144   0.33118   0.12936   0.00000  Uiso   1.00
H24    H     0.49376   0.81796   0.09181   0.00000  Uiso   1.00
H25    H     0.68705   0.68557   0.23286   0.00000  Uiso   1.00
H26    H     0.29870   0.69307   0.98595   0.00000  Uiso   1.00
H27    H     0.49469   0.05517   0.04366   0.00000  Uiso   1.00
H28    H     0.90252   0.57036   0.40959   0.00000  Uiso   1.00
H29    H     0.08365   0.58622   0.88894   0.00000  Uiso   1.00
H30    H     0.49692   0.34979   0.01062   0.00000  Uiso   1.00
H31    H     0.50298   0.06158   0.24855   0.00000  Uiso   1.00
H32    H     0.69679   0.94255   0.39822   0.00000  Uiso   1.00
H33    H     0.30844   0.95005   0.15130   0.00000  Uiso   1.00
H34    H     0.50442   0.31215   0.20901   0.00000  Uiso   1.00
H35    H     0.91042   0.77893   0.54379   0.00000  Uiso   1.00
H36    H     0.09155   0.79480   0.02314   0.00000  Uiso   1.00
H37    H     0.50482   0.55836   0.14482   0.00000  Uiso   1.00
O38    O     0.03377   0.59191   0.57231   0.00000  Uiso   1.00
O39    O     0.95944   0.61275   0.88923   0.00000  Uiso   1.00
O40    O     0.50164   0.61452   0.04887   0.00000  Uiso   1.00
N41    N     0.87779   0.63580   0.42064   0.00000  Uiso   1.00
N42    N     0.11221   0.65061   0.93387   0.00000  Uiso   1.00
N43    N     0.49855   0.36448   0.04761   0.00000  Uiso   1.00
N44    N     0.88205   0.74803   0.49285   0.00000  Uiso   1.00
N45    N     0.11646   0.76285   0.00609   0.00000  Uiso   1.00
N46    N     0.50280   0.47671   0.11982   0.00000  Uiso   1.00
C47    C     0.50412   0.37378   0.37228   0.00000  Uiso   1.00
C48    C     0.39782   0.33564   0.27390   0.00000  Uiso   1.00
C49    C     0.31082   0.24104   0.23141   0.00000  Uiso   1.00
C50    C     0.22089   0.22063   0.14106   0.00000  Uiso   1.00
C51    C     0.05627   0.15044   0.99533   0.00000  Uiso   1.00
C52    C     0.60881   0.33970   0.40805   0.00000  Uiso   1.00
C53    C     0.69922   0.24853   0.47836   0.00000  Uiso   1.00
C54    C     0.78691   0.23155   0.50093   0.00000  Uiso   1.00
C55    C     0.94991   0.16776   0.56351   0.00000  Uiso   1.00
C56    C     0.50232   0.53643   0.37669   0.00000  Uiso   1.00
C57    C     0.50321   0.61069   0.42066   0.00000  Uiso   1.00
C58    C     0.50128   0.75936   0.41684   0.00000  Uiso   1.00
C59    C     0.49892   0.00102   0.43074   0.00000  Uiso   1.00
C60    C     0.49913   0.50576   0.28736   0.00000  Uiso   1.00
C61    C     0.39511   0.40732   0.22778   0.00000  Uiso   1.00
C62    C     0.30529   0.38706   0.13746   0.00000  Uiso   1.00
C63    C     0.21817   0.29245   0.09485   0.00000  Uiso   1.00
C64    C     0.60611   0.41138   0.36193   0.00000  Uiso   1.00
C65    C     0.69369   0.39455   0.38440   0.00000  Uiso   1.00
C66    C     0.78420   0.30337   0.45472   0.00000  Uiso   1.00
C67    C     0.49961   0.60812   0.33056   0.00000  Uiso   1.00
C68    C     0.49768   0.75671   0.32669   0.00000  Uiso   1.00
C69    C     0.49856   0.83118   0.37064   0.00000  Uiso   1.00
H70    H     0.50624   0.31796   0.40819   0.00000  Uiso   1.00
H71    H     0.31295   0.18557   0.26714   0.00000  Uiso   1.00
H72    H     0.70130   0.19307   0.51405   0.00000  Uiso   1.00
H73    H     0.50531   0.55517   0.45634   0.00000  Uiso   1.00
H74    H     0.09748   0.07036   0.09041   0.00000  Uiso   1.00
H75    H     0.91635   0.08622   0.61106   0.00000  Uiso   1.00
H76    H     0.50308   0.84979   0.48938   0.00000  Uiso   1.00
H77    H     0.49702   0.56158   0.25145   0.00000  Uiso   1.00
H78    H     0.30321   0.44255   0.10178   0.00000  Uiso   1.00
H79    H     0.69156   0.45005   0.34870   0.00000  Uiso   1.00
H80    H     0.49558   0.81215   0.29099   0.00000  Uiso   1.00
H81    H     0.08958   0.27893   0.95621   0.00000  Uiso   1.00
H82    H     0.90845   0.29480   0.47686   0.00000  Uiso   1.00
H83    H     0.49518   0.05836   0.35518   0.00000  Uiso   1.00
O84    O     0.96623   0.09191   0.92769   0.00000  Uiso   1.00
O85    O     0.04056   0.11275   0.61077   0.00000  Uiso   1.00
O86    O     0.49836   0.11452   0.45113   0.00000  Uiso   1.00
N87    N     0.12221   0.13580   0.07936   0.00000  Uiso   1.00
N88    N     0.88779   0.15061   0.56613   0.00000  Uiso   1.00
N89    N     0.50145   0.86448   0.45239   0.00000  Uiso   1.00
N90    N     0.11795   0.24803   0.00715   0.00000  Uiso   1.00
N91    N     0.88354   0.26285   0.49391   0.00000  Uiso   1.00
N92    N     0.49720   0.97671   0.38018   0.00000  Uiso   1.00
C93    C     0.50412   0.12622   0.87228   0.00000  Uiso   1.00
C94    C     0.39782   0.16436   0.77390   0.00000  Uiso   1.00
C95    C     0.31082   0.25896   0.73141   0.00000  Uiso   1.00
C96    C     0.22089   0.27937   0.64106   0.00000  Uiso   1.00
C97    C     0.05627   0.34956   0.49533   0.00000  Uiso   1.00
C98    C     0.60881   0.16030   0.90805   0.00000  Uiso   1.00
C99    C     0.69922   0.25147   0.97836   0.00000  Uiso   1.00
C100   C     0.78691   0.26845   0.00093   0.00000  Uiso   1.00
C101   C     0.94991   0.33224   0.06351   0.00000  Uiso   1.00
C102   C     0.50232   0.96357   0.87669   0.00000  Uiso   1.00
C103   C     0.50321   0.88931   0.92066   0.00000  Uiso   1.00
C104   C     0.50128   0.74064   0.91684   0.00000  Uiso   1.00
C105   C     0.49892   0.49898   0.93074   0.00000  Uiso   1.00
C106   C     0.49913   0.99424   0.78736   0.00000  Uiso   1.00
C107   C     0.39511   0.09268   0.72778   0.00000  Uiso   1.00
C108   C     0.30529   0.11294   0.63746   0.00000  Uiso   1.00
C109   C     0.21817   0.20755   0.59485   0.00000  Uiso   1.00
C110   C     0.60611   0.08862   0.86193   0.00000  Uiso   1.00
C111   C     0.69369   0.10545   0.88440   0.00000  Uiso   1.00
C112   C     0.78420   0.19663   0.95472   0.00000  Uiso   1.00
C113   C     0.49961   0.89188   0.83056   0.00000  Uiso   1.00
C114   C     0.49768   0.74329   0.82669   0.00000  Uiso   1.00
C115   C     0.49856   0.66882   0.87064   0.00000  Uiso   1.00
H116   H     0.50624   0.18204   0.90819   0.00000  Uiso   1.00
H117   H     0.31295   0.31443   0.76714   0.00000  Uiso   1.00
H118   H     0.70130   0.30693   0.01405   0.00000  Uiso   1.00
H119   H     0.50531   0.94483   0.95634   0.00000  Uiso   1.00
H120   H     0.09748   0.42964   0.59041   0.00000  Uiso   1.00
H121   H     0.91635   0.41378   0.11106   0.00000  Uiso   1.00
H122   H     0.50308   0.65021   0.98938   0.00000  Uiso   1.00
H123   H     0.49702   0.93842   0.75145   0.00000  Uiso   1.00
H124   H     0.30321   0.05745   0.60178   0.00000  Uiso   1.00
H125   H     0.69156   0.04995   0.84870   0.00000  Uiso   1.00
H126   H     0.49558   0.68785   0.79099   0.00000  Uiso   1.00
H127   H     0.08958   0.22107   0.45621   0.00000  Uiso   1.00
H128   H     0.90845   0.20520   0.97686   0.00000  Uiso   1.00
H129   H     0.49518   0.44164   0.85518   0.00000  Uiso   1.00
O130   O     0.96623   0.40809   0.42769   0.00000  Uiso   1.00
O131   O     0.04056   0.38725   0.11077   0.00000  Uiso   1.00
O132   O     0.49836   0.38548   0.95113   0.00000  Uiso   1.00
N133   N     0.12221   0.36420   0.57936   0.00000  Uiso   1.00
N134   N     0.88779   0.34939   0.06613   0.00000  Uiso   1.00
N135   N     0.50145   0.63552   0.95239   0.00000  Uiso   1.00
N136   N     0.11795   0.25197   0.50715   0.00000  Uiso   1.00
N137   N     0.88354   0.23715   0.99391   0.00000  Uiso   1.00
N138   N     0.49720   0.52329   0.88018   0.00000  Uiso   1.00
C139   C     0.49588   0.62622   0.62772   0.00000  Uiso   1.00
C140   C     0.60218   0.66436   0.72610   0.00000  Uiso   1.00
C141   C     0.68918   0.75896   0.76859   0.00000  Uiso   1.00
C142   C     0.77911   0.77937   0.85894   0.00000  Uiso   1.00
C143   C     0.94373   0.84956   0.00467   0.00000  Uiso   1.00
C144   C     0.39119   0.66030   0.59195   0.00000  Uiso   1.00
C145   C     0.30078   0.75147   0.52164   0.00000  Uiso   1.00
C146   C     0.21309   0.76845   0.49907   0.00000  Uiso   1.00
C147   C     0.05009   0.83224   0.43649   0.00000  Uiso   1.00
C148   C     0.49768   0.46357   0.62331   0.00000  Uiso   1.00
C149   C     0.49679   0.38931   0.57934   0.00000  Uiso   1.00
C150   C     0.49872   0.24064   0.58316   0.00000  Uiso   1.00
C151   C     0.50108   0.99898   0.56926   0.00000  Uiso   1.00
C152   C     0.50087   0.49424   0.71264   0.00000  Uiso   1.00
C153   C     0.60489   0.59268   0.77222   0.00000  Uiso   1.00
C154   C     0.69471   0.61294   0.86254   0.00000  Uiso   1.00
C155   C     0.78183   0.70755   0.90515   0.00000  Uiso   1.00
C156   C     0.39389   0.58862   0.63807   0.00000  Uiso   1.00
C157   C     0.30631   0.60545   0.61560   0.00000  Uiso   1.00
C158   C     0.21580   0.69663   0.54528   0.00000  Uiso   1.00
C159   C     0.50039   0.39188   0.66944   0.00000  Uiso   1.00
C160   C     0.50232   0.24329   0.67331   0.00000  Uiso   1.00
C161   C     0.50144   0.16882   0.62936   0.00000  Uiso   1.00
H162   H     0.49376   0.68204   0.59181   0.00000  Uiso   1.00
H163   H     0.68705   0.81443   0.73286   0.00000  Uiso   1.00
H164   H     0.29870   0.80693   0.48595   0.00000  Uiso   1.00
H165   H     0.49469   0.44483   0.54366   0.00000  Uiso   1.00
H166   H     0.90252   0.92964   0.90959   0.00000  Uiso   1.00
H167   H     0.08365   0.91378   0.38894   0.00000  Uiso   1.00
H168   H     0.49692   0.15021   0.51062   0.00000  Uiso   1.00
H169   H     0.50298   0.43842   0.74855   0.00000  Uiso   1.00
H170   H     0.69679   0.55745   0.89822   0.00000  Uiso   1.00
H171   H     0.30844   0.54995   0.65130   0.00000  Uiso   1.00
H172   H     0.50442   0.18785   0.70901   0.00000  Uiso   1.00
H173   H     0.91042   0.72107   0.04379   0.00000  Uiso   1.00
H174   H     0.09155   0.70520   0.52314   0.00000  Uiso   1.00
H175   H     0.50482   0.94164   0.64482   0.00000  Uiso   1.00
O176   O     0.03377   0.90809   0.07231   0.00000  Uiso   1.00
O177   O     0.95944   0.88725   0.38923   0.00000  Uiso   1.00
O178   O     0.50164   0.88548   0.54887   0.00000  Uiso   1.00
N179   N     0.87779   0.86420   0.92064   0.00000  Uiso   1.00
N180   N     0.11221   0.84939   0.43387   0.00000  Uiso   1.00
N181   N     0.49855   0.13552   0.54761   0.00000  Uiso   1.00
N182   N     0.88205   0.75197   0.99285   0.00000  Uiso   1.00
N183   N     0.11646   0.73715   0.50609   0.00000  Uiso   1.00
N184   N     0.50280   0.02329   0.61982   0.00000  Uiso   1.00
