data_job_02194
_audit_creation_date              2018-12-19
_audit_creation_method            'Materials Studio'
_symmetry_space_group_name_H-M    'P1'
_symmetry_Int_Tables_number       1
_symmetry_cell_setting            triclinic
loop_
_symmetry_equiv_pos_as_xyz
  x,y,z
_cell_length_a                    12.0309
_cell_length_b                    12.4975
_cell_length_c                    17.1273
_cell_angle_alpha                 85.7147
_cell_angle_beta                  90.4226
_cell_angle_gamma                 74.2209
loop_
_atom_site_label
_atom_site_type_symbol
_atom_site_fract_x
_atom_site_fract_y
_atom_site_fract_z
_atom_site_U_iso_or_equiv
_atom_site_adp_type
_atom_site_occupancy
C1     C     0.07981   0.31902   0.33302   0.00000  Uiso   1.00
C2     C     0.96162   0.35520   0.36965   0.00000  Uiso   1.00
C3     C     0.93817   0.33444   0.44766   0.00000  Uiso   1.00
C4     C     0.82444   0.37448   0.46964   0.00000  Uiso   1.00
C5     C     0.65416   0.42169   0.53473   0.00000  Uiso   1.00
C6     C     0.06512   0.25064   0.26551   0.00000  Uiso   1.00
C7     C     0.12869   0.14198   0.25596   0.00000  Uiso   1.00
C8     C     0.10209   0.09401   0.19026   0.00000  Uiso   1.00
C9     C     0.09255   0.97893   0.09365   0.00000  Uiso   1.00
C10    C     0.10285   0.42523   0.29559   0.00000  Uiso   1.00
C11    C     0.19816   0.46334   0.31132   0.00000  Uiso   1.00
C12    C     0.20334   0.56235   0.27094   0.00000  Uiso   1.00
C13    C     0.25238   0.71832   0.22104   0.00000  Uiso   1.00
C14    C     0.91954   0.42705   0.23332   0.00000  Uiso   1.00
C15    C     0.87458   0.41388   0.31549   0.00000  Uiso   1.00
C16    C     0.76085   0.45396   0.33735   0.00000  Uiso   1.00
C17    C     0.73723   0.43327   0.41539   0.00000  Uiso   1.00
C18    C     0.97807   0.30932   0.21135   0.00000  Uiso   1.00
C19    C     0.95138   0.26150   0.14565   0.00000  Uiso   1.00
C20    C     0.01489   0.15279   0.13601   0.00000  Uiso   1.00
C21    C     0.01580   0.48391   0.24144   0.00000  Uiso   1.00
C22    C     0.02084   0.58287   0.20102   0.00000  Uiso   1.00
C23    C     0.11613   0.62113   0.21669   0.00000  Uiso   1.00
H24    H     0.14758   0.27333   0.37518   0.00000  Uiso   1.00
H25    H     0.00556   0.28902   0.48955   0.00000  Uiso   1.00
H26    H     0.19606   0.09660   0.29787   0.00000  Uiso   1.00
H27    H     0.26551   0.41791   0.35323   0.00000  Uiso   1.00
H28    H     0.80970   0.33226   0.59246   0.00000  Uiso   1.00
H29    H     0.21141   0.92654   0.18828   0.00000  Uiso   1.00
H30    H     0.35786   0.60408   0.30502   0.00000  Uiso   1.00
H31    H     0.85177   0.47273   0.19116   0.00000  Uiso   1.00
H32    H     0.69351   0.49937   0.29543   0.00000  Uiso   1.00
H33    H     0.88401   0.30694   0.10375   0.00000  Uiso   1.00
H34    H     0.95346   0.62825   0.15911   0.00000  Uiso   1.00
H35    H     0.55643   0.50298   0.43491   0.00000  Uiso   1.00
H36    H     0.95815   0.09726   0.03073   0.00000  Uiso   1.00
H37    H     0.10459   0.77480   0.14747   0.00000  Uiso   1.00
O38    O     0.58429   0.43151   0.58559   0.00000  Uiso   1.00
O39    O     0.11133   0.89923   0.05532   0.00000  Uiso   1.00
O40    O     0.30346   0.78815   0.20849   0.00000  Uiso   1.00
N41    N     0.77182   0.36880   0.54107   0.00000  Uiso   1.00
N42    N     0.14738   0.98947   0.16320   0.00000  Uiso   1.00
N43    N     0.28431   0.62290   0.27233   0.00000  Uiso   1.00
N44    N     0.63553   0.46067   0.45629   0.00000  Uiso   1.00
N45    N     0.01110   0.08133   0.07842   0.00000  Uiso   1.00
N46    N     0.14803   0.71477   0.18755   0.00000  Uiso   1.00
C47    C     0.92019   0.68098   0.66698   0.00000  Uiso   1.00
C48    C     0.03838   0.64480   0.63035   0.00000  Uiso   1.00
C49    C     0.06183   0.66556   0.55234   0.00000  Uiso   1.00
C50    C     0.17556   0.62552   0.53036   0.00000  Uiso   1.00
C51    C     0.34584   0.57831   0.46527   0.00000  Uiso   1.00
C52    C     0.93488   0.74936   0.73449   0.00000  Uiso   1.00
C53    C     0.87131   0.85802   0.74404   0.00000  Uiso   1.00
C54    C     0.89791   0.90599   0.80974   0.00000  Uiso   1.00
C55    C     0.90745   0.02107   0.90635   0.00000  Uiso   1.00
C56    C     0.89715   0.57477   0.70441   0.00000  Uiso   1.00
C57    C     0.80184   0.53666   0.68868   0.00000  Uiso   1.00
C58    C     0.79666   0.43765   0.72906   0.00000  Uiso   1.00
C59    C     0.74762   0.28168   0.77896   0.00000  Uiso   1.00
C60    C     0.08046   0.57295   0.76668   0.00000  Uiso   1.00
C61    C     0.12542   0.58612   0.68451   0.00000  Uiso   1.00
C62    C     0.23915   0.54604   0.66265   0.00000  Uiso   1.00
C63    C     0.26277   0.56673   0.58461   0.00000  Uiso   1.00
C64    C     0.02193   0.69068   0.78865   0.00000  Uiso   1.00
C65    C     0.04862   0.73850   0.85435   0.00000  Uiso   1.00
C66    C     0.98511   0.84721   0.86399   0.00000  Uiso   1.00
C67    C     0.98420   0.51609   0.75856   0.00000  Uiso   1.00
C68    C     0.97916   0.41713   0.79898   0.00000  Uiso   1.00
C69    C     0.88387   0.37887   0.78331   0.00000  Uiso   1.00
H70    H     0.85242   0.72667   0.62482   0.00000  Uiso   1.00
H71    H     0.99444   0.71098   0.51045   0.00000  Uiso   1.00
H72    H     0.80394   0.90340   0.70213   0.00000  Uiso   1.00
H73    H     0.73449   0.58209   0.64677   0.00000  Uiso   1.00
H74    H     0.19030   0.66774   0.40754   0.00000  Uiso   1.00
H75    H     0.78859   0.07346   0.81172   0.00000  Uiso   1.00
H76    H     0.64214   0.39592   0.69498   0.00000  Uiso   1.00
H77    H     0.14823   0.52727   0.80884   0.00000  Uiso   1.00
H78    H     0.30649   0.50063   0.70457   0.00000  Uiso   1.00
H79    H     0.11599   0.69306   0.89625   0.00000  Uiso   1.00
H80    H     0.04654   0.37175   0.84089   0.00000  Uiso   1.00
H81    H     0.44357   0.49702   0.56509   0.00000  Uiso   1.00
H82    H     0.04185   0.90274   0.96927   0.00000  Uiso   1.00
H83    H     0.89541   0.22520   0.85253   0.00000  Uiso   1.00
O84    O     0.41571   0.56849   0.41441   0.00000  Uiso   1.00
O85    O     0.88867   0.10077   0.94468   0.00000  Uiso   1.00
O86    O     0.69654   0.21185   0.79151   0.00000  Uiso   1.00
N87    N     0.22818   0.63120   0.45893   0.00000  Uiso   1.00
N88    N     0.85262   0.01053   0.83680   0.00000  Uiso   1.00
N89    N     0.71569   0.37710   0.72767   0.00000  Uiso   1.00
N90    N     0.36447   0.53933   0.54371   0.00000  Uiso   1.00
N91    N     0.98890   0.91867   0.92158   0.00000  Uiso   1.00
N92    N     0.85197   0.28523   0.81245   0.00000  Uiso   1.00
