data_job_03691
_audit_creation_date              2018-12-19
_audit_creation_method            'Materials Studio'
_symmetry_space_group_name_H-M    'P1'
_symmetry_Int_Tables_number       1
_symmetry_cell_setting            triclinic
loop_
_symmetry_equiv_pos_as_xyz
  x,y,z
_cell_length_a                    27.8244
_cell_length_b                    12.2467
_cell_length_c                    14.1746
_cell_angle_alpha                 90.0000
_cell_angle_beta                  90.0000
_cell_angle_gamma                 90.0000
loop_
_atom_site_label
_atom_site_type_symbol
_atom_site_fract_x
_atom_site_fract_y
_atom_site_fract_z
_atom_site_U_iso_or_equiv
_atom_site_adp_type
_atom_site_occupancy
C1     C     0.36473   0.47772   0.21906   0.00000  Uiso   1.00
C2     C     0.39861   0.40555   0.16193   0.00000  Uiso   1.00
C3     C     0.42363   0.31582   0.19604   0.00000  Uiso   1.00
C4     C     0.45280   0.26052   0.13255   0.00000  Uiso   1.00
C5     C     0.50482   0.14341   0.05818   0.00000  Uiso   1.00
C6     C     0.38388   0.59384   0.20925   0.00000  Uiso   1.00
C7     C     0.39651   0.66244   0.28314   0.00000  Uiso   1.00
C8     C     0.41327   0.76565   0.25947   0.00000  Uiso   1.00
C9     C     0.44238   0.94090   0.25855   0.00000  Uiso   1.00
C10    C     0.31673   0.47581   0.16718   0.00000  Uiso   1.00
C11    C     0.27290   0.44520   0.20571   0.00000  Uiso   1.00
C12    C     0.23314   0.44906   0.14663   0.00000  Uiso   1.00
C13    C     0.15799   0.44105   0.08040   0.00000  Uiso   1.00
C14    C     0.37205   0.53905   0.04565   0.00000  Uiso   1.00
C15    C     0.40258   0.43886   0.06774   0.00000  Uiso   1.00
C16    C     0.43172   0.38368   0.00418   0.00000  Uiso   1.00
C17    C     0.45678   0.29388   0.03819   0.00000  Uiso   1.00
C18    C     0.38785   0.62716   0.11506   0.00000  Uiso   1.00
C19    C     0.40460   0.73029   0.09128   0.00000  Uiso   1.00
C20    C     0.41725   0.79902   0.16511   0.00000  Uiso   1.00
C21    C     0.32070   0.50912   0.07299   0.00000  Uiso   1.00
C22    C     0.28100   0.51304   0.01384   0.00000  Uiso   1.00
C23    C     0.23712   0.48243   0.05227   0.00000  Uiso   1.00
H24    H     0.36164   0.45179   0.29240   0.00000  Uiso   1.00
H25    H     0.42055   0.29008   0.26894   0.00000  Uiso   1.00
H26    H     0.39342   0.63664   0.35602   0.00000  Uiso   1.00
H27    H     0.26984   0.41942   0.27860   0.00000  Uiso   1.00
H28    H     0.48763   0.12549   0.20141   0.00000  Uiso   1.00
H29    H     0.43041   0.85625   0.38502   0.00000  Uiso   1.00
H30    H     0.16982   0.39822   0.22176   0.00000  Uiso   1.00
H31    H     0.37514   0.56499   0.97232   0.00000  Uiso   1.00
H32    H     0.43479   0.40948   0.93129   0.00000  Uiso   1.00
H33    H     0.40766   0.75604   0.01838   0.00000  Uiso   1.00
H34    H     0.28408   0.53883   0.94096   0.00000  Uiso   1.00
H35    H     0.49918   0.22241   0.92736   0.00000  Uiso   1.00
H36    H     0.44197   0.95317   0.11097   0.00000  Uiso   1.00
H37    H     0.18138   0.49513   0.94772   0.00000  Uiso   1.00
O38    O     0.53241   0.06963   0.04318   0.00000  Uiso   1.00
O39    O     0.45734   0.02836   0.28407   0.00000  Uiso   1.00
O40    O     0.11545   0.42742   0.06988   0.00000  Uiso   1.00
N41    N     0.48215   0.16963   0.14254   0.00000  Uiso   1.00
N42    N     0.42867   0.85284   0.31420   0.00000  Uiso   1.00
N43    N     0.18503   0.42464   0.16158   0.00000  Uiso   1.00
N44    N     0.48837   0.22178   0.99507   0.00000  Uiso   1.00
N45    N     0.43489   0.90499   0.16674   0.00000  Uiso   1.00
N46    N     0.19125   0.47679   0.01411   0.00000  Uiso   1.00
C47    C     0.13527   0.02228   0.21906   0.00000  Uiso   1.00
C48    C     0.10139   0.09445   0.16193   0.00000  Uiso   1.00
C49    C     0.07637   0.18418   0.19604   0.00000  Uiso   1.00
C50    C     0.04720   0.23948   0.13255   0.00000  Uiso   1.00
C51    C     0.99518   0.35659   0.05818   0.00000  Uiso   1.00
C52    C     0.11612   0.90616   0.20925   0.00000  Uiso   1.00
C53    C     0.10349   0.83756   0.28314   0.00000  Uiso   1.00
C54    C     0.08673   0.73435   0.25947   0.00000  Uiso   1.00
C55    C     0.05762   0.55910   0.25855   0.00000  Uiso   1.00
C56    C     0.18327   0.02419   0.16718   0.00000  Uiso   1.00
C57    C     0.22710   0.05480   0.20571   0.00000  Uiso   1.00
C58    C     0.26686   0.05094   0.14663   0.00000  Uiso   1.00
C59    C     0.34201   0.05895   0.08040   0.00000  Uiso   1.00
C60    C     0.12795   0.96095   0.04565   0.00000  Uiso   1.00
C61    C     0.09742   0.06114   0.06774   0.00000  Uiso   1.00
C62    C     0.06828   0.11632   0.00418   0.00000  Uiso   1.00
C63    C     0.04322   0.20612   0.03819   0.00000  Uiso   1.00
C64    C     0.11215   0.87284   0.11506   0.00000  Uiso   1.00
C65    C     0.09540   0.76971   0.09128   0.00000  Uiso   1.00
C66    C     0.08275   0.70098   0.16511   0.00000  Uiso   1.00
C67    C     0.17930   0.99088   0.07299   0.00000  Uiso   1.00
C68    C     0.21900   0.98696   0.01384   0.00000  Uiso   1.00
C69    C     0.26288   0.01757   0.05227   0.00000  Uiso   1.00
H70    H     0.13836   0.04821   0.29240   0.00000  Uiso   1.00
H71    H     0.07945   0.20992   0.26894   0.00000  Uiso   1.00
H72    H     0.10658   0.86336   0.35602   0.00000  Uiso   1.00
H73    H     0.23016   0.08058   0.27860   0.00000  Uiso   1.00
H74    H     0.01237   0.37451   0.20141   0.00000  Uiso   1.00
H75    H     0.06959   0.64375   0.38502   0.00000  Uiso   1.00
H76    H     0.33018   0.10178   0.22176   0.00000  Uiso   1.00
H77    H     0.12486   0.93501   0.97232   0.00000  Uiso   1.00
H78    H     0.06521   0.09052   0.93129   0.00000  Uiso   1.00
H79    H     0.09234   0.74396   0.01838   0.00000  Uiso   1.00
H80    H     0.21592   0.96117   0.94096   0.00000  Uiso   1.00
H81    H     0.00082   0.27759   0.92736   0.00000  Uiso   1.00
H82    H     0.05803   0.54683   0.11097   0.00000  Uiso   1.00
H83    H     0.31862   0.00487   0.94772   0.00000  Uiso   1.00
O84    O     0.96759   0.43037   0.04318   0.00000  Uiso   1.00
O85    O     0.04266   0.47164   0.28407   0.00000  Uiso   1.00
O86    O     0.38455   0.07258   0.06988   0.00000  Uiso   1.00
N87    N     0.01785   0.33037   0.14254   0.00000  Uiso   1.00
N88    N     0.07133   0.64716   0.31420   0.00000  Uiso   1.00
N89    N     0.31497   0.07536   0.16158   0.00000  Uiso   1.00
N90    N     0.01163   0.27822   0.99507   0.00000  Uiso   1.00
N91    N     0.06511   0.59501   0.16674   0.00000  Uiso   1.00
N92    N     0.30875   0.02321   0.01411   0.00000  Uiso   1.00
C93    C     0.63527   0.97772   0.28094   0.00000  Uiso   1.00
C94    C     0.60139   0.90555   0.33807   0.00000  Uiso   1.00
C95    C     0.57637   0.81582   0.30396   0.00000  Uiso   1.00
C96    C     0.54720   0.76052   0.36745   0.00000  Uiso   1.00
C97    C     0.49518   0.64341   0.44182   0.00000  Uiso   1.00
C98    C     0.61612   0.09384   0.29075   0.00000  Uiso   1.00
C99    C     0.60349   0.16244   0.21686   0.00000  Uiso   1.00
C100   C     0.58673   0.26565   0.24053   0.00000  Uiso   1.00
C101   C     0.55762   0.44090   0.24145   0.00000  Uiso   1.00
C102   C     0.68327   0.97581   0.33282   0.00000  Uiso   1.00
C103   C     0.72710   0.94520   0.29429   0.00000  Uiso   1.00
C104   C     0.76686   0.94906   0.35337   0.00000  Uiso   1.00
C105   C     0.84201   0.94105   0.41960   0.00000  Uiso   1.00
C106   C     0.62795   0.03905   0.45435   0.00000  Uiso   1.00
C107   C     0.59742   0.93886   0.43226   0.00000  Uiso   1.00
C108   C     0.56828   0.88368   0.49582   0.00000  Uiso   1.00
C109   C     0.54322   0.79388   0.46181   0.00000  Uiso   1.00
C110   C     0.61215   0.12716   0.38494   0.00000  Uiso   1.00
C111   C     0.59540   0.23029   0.40872   0.00000  Uiso   1.00
C112   C     0.58275   0.29902   0.33489   0.00000  Uiso   1.00
C113   C     0.67930   0.00912   0.42701   0.00000  Uiso   1.00
C114   C     0.71900   0.01304   0.48616   0.00000  Uiso   1.00
C115   C     0.76288   0.98243   0.44773   0.00000  Uiso   1.00
H116   H     0.63836   0.95179   0.20760   0.00000  Uiso   1.00
H117   H     0.57945   0.79008   0.23106   0.00000  Uiso   1.00
H118   H     0.60658   0.13664   0.14398   0.00000  Uiso   1.00
H119   H     0.73016   0.91942   0.22140   0.00000  Uiso   1.00
H120   H     0.51237   0.62549   0.29859   0.00000  Uiso   1.00
H121   H     0.56959   0.35625   0.11498   0.00000  Uiso   1.00
H122   H     0.83018   0.89822   0.27824   0.00000  Uiso   1.00
H123   H     0.62486   0.06499   0.52768   0.00000  Uiso   1.00
H124   H     0.56521   0.90948   0.56871   0.00000  Uiso   1.00
H125   H     0.59234   0.25604   0.48162   0.00000  Uiso   1.00
H126   H     0.71592   0.03883   0.55904   0.00000  Uiso   1.00
H127   H     0.50082   0.72241   0.57264   0.00000  Uiso   1.00
H128   H     0.55803   0.45317   0.38903   0.00000  Uiso   1.00
H129   H     0.81862   0.99513   0.55228   0.00000  Uiso   1.00
O130   O     0.46759   0.56963   0.45682   0.00000  Uiso   1.00
O131   O     0.54266   0.52836   0.21593   0.00000  Uiso   1.00
O132   O     0.88455   0.92742   0.43012   0.00000  Uiso   1.00
N133   N     0.51785   0.66963   0.35746   0.00000  Uiso   1.00
N134   N     0.57133   0.35284   0.18580   0.00000  Uiso   1.00
N135   N     0.81497   0.92464   0.33842   0.00000  Uiso   1.00
N136   N     0.51163   0.72178   0.50493   0.00000  Uiso   1.00
N137   N     0.56511   0.40499   0.33326   0.00000  Uiso   1.00
N138   N     0.80875   0.97679   0.48589   0.00000  Uiso   1.00
C139   C     0.86473   0.52228   0.28094   0.00000  Uiso   1.00
C140   C     0.89861   0.59445   0.33807   0.00000  Uiso   1.00
C141   C     0.92363   0.68418   0.30396   0.00000  Uiso   1.00
C142   C     0.95280   0.73948   0.36745   0.00000  Uiso   1.00
C143   C     0.00482   0.85659   0.44182   0.00000  Uiso   1.00
C144   C     0.88388   0.40616   0.29075   0.00000  Uiso   1.00
C145   C     0.89651   0.33756   0.21686   0.00000  Uiso   1.00
C146   C     0.91327   0.23435   0.24053   0.00000  Uiso   1.00
C147   C     0.94238   0.05910   0.24145   0.00000  Uiso   1.00
C148   C     0.81673   0.52419   0.33282   0.00000  Uiso   1.00
C149   C     0.77290   0.55480   0.29429   0.00000  Uiso   1.00
C150   C     0.73314   0.55094   0.35337   0.00000  Uiso   1.00
C151   C     0.65799   0.55895   0.41960   0.00000  Uiso   1.00
C152   C     0.87205   0.46095   0.45435   0.00000  Uiso   1.00
C153   C     0.90258   0.56114   0.43226   0.00000  Uiso   1.00
C154   C     0.93172   0.61632   0.49582   0.00000  Uiso   1.00
C155   C     0.95678   0.70612   0.46181   0.00000  Uiso   1.00
C156   C     0.88785   0.37284   0.38494   0.00000  Uiso   1.00
C157   C     0.90460   0.26971   0.40872   0.00000  Uiso   1.00
C158   C     0.91725   0.20098   0.33489   0.00000  Uiso   1.00
C159   C     0.82070   0.49088   0.42701   0.00000  Uiso   1.00
C160   C     0.78100   0.48696   0.48616   0.00000  Uiso   1.00
C161   C     0.73712   0.51757   0.44773   0.00000  Uiso   1.00
H162   H     0.86164   0.54821   0.20760   0.00000  Uiso   1.00
H163   H     0.92055   0.70992   0.23106   0.00000  Uiso   1.00
H164   H     0.89342   0.36336   0.14398   0.00000  Uiso   1.00
H165   H     0.76984   0.58058   0.22140   0.00000  Uiso   1.00
H166   H     0.98763   0.87451   0.29859   0.00000  Uiso   1.00
H167   H     0.93041   0.14375   0.11498   0.00000  Uiso   1.00
H168   H     0.66982   0.60178   0.27824   0.00000  Uiso   1.00
H169   H     0.87514   0.43501   0.52768   0.00000  Uiso   1.00
H170   H     0.93479   0.59052   0.56871   0.00000  Uiso   1.00
H171   H     0.90766   0.24396   0.48162   0.00000  Uiso   1.00
H172   H     0.78408   0.46117   0.55904   0.00000  Uiso   1.00
H173   H     0.99918   0.77759   0.57264   0.00000  Uiso   1.00
H174   H     0.94197   0.04683   0.38903   0.00000  Uiso   1.00
H175   H     0.68138   0.50487   0.55228   0.00000  Uiso   1.00
O176   O     0.03241   0.93037   0.45682   0.00000  Uiso   1.00
O177   O     0.95734   0.97164   0.21593   0.00000  Uiso   1.00
O178   O     0.61545   0.57258   0.43012   0.00000  Uiso   1.00
N179   N     0.98215   0.83037   0.35746   0.00000  Uiso   1.00
N180   N     0.92867   0.14716   0.18580   0.00000  Uiso   1.00
N181   N     0.68503   0.57536   0.33842   0.00000  Uiso   1.00
N182   N     0.98837   0.77822   0.50493   0.00000  Uiso   1.00
N183   N     0.93489   0.09501   0.33326   0.00000  Uiso   1.00
N184   N     0.69125   0.52321   0.48589   0.00000  Uiso   1.00
C185   C     0.63527   0.52228   0.78094   0.00000  Uiso   1.00
C186   C     0.60139   0.59445   0.83807   0.00000  Uiso   1.00
C187   C     0.57637   0.68418   0.80396   0.00000  Uiso   1.00
C188   C     0.54720   0.73948   0.86745   0.00000  Uiso   1.00
C189   C     0.49518   0.85659   0.94182   0.00000  Uiso   1.00
C190   C     0.61612   0.40616   0.79075   0.00000  Uiso   1.00
C191   C     0.60349   0.33756   0.71686   0.00000  Uiso   1.00
C192   C     0.58673   0.23435   0.74053   0.00000  Uiso   1.00
C193   C     0.55762   0.05910   0.74145   0.00000  Uiso   1.00
C194   C     0.68327   0.52419   0.83282   0.00000  Uiso   1.00
C195   C     0.72710   0.55480   0.79429   0.00000  Uiso   1.00
C196   C     0.76686   0.55094   0.85337   0.00000  Uiso   1.00
C197   C     0.84201   0.55895   0.91960   0.00000  Uiso   1.00
C198   C     0.62795   0.46095   0.95435   0.00000  Uiso   1.00
C199   C     0.59742   0.56114   0.93226   0.00000  Uiso   1.00
C200   C     0.56828   0.61632   0.99582   0.00000  Uiso   1.00
C201   C     0.54322   0.70612   0.96181   0.00000  Uiso   1.00
C202   C     0.61215   0.37284   0.88494   0.00000  Uiso   1.00
C203   C     0.59540   0.26971   0.90872   0.00000  Uiso   1.00
C204   C     0.58275   0.20098   0.83489   0.00000  Uiso   1.00
C205   C     0.67930   0.49088   0.92701   0.00000  Uiso   1.00
C206   C     0.71900   0.48696   0.98616   0.00000  Uiso   1.00
C207   C     0.76288   0.51757   0.94773   0.00000  Uiso   1.00
H208   H     0.63836   0.54821   0.70760   0.00000  Uiso   1.00
H209   H     0.57945   0.70992   0.73106   0.00000  Uiso   1.00
H210   H     0.60658   0.36336   0.64398   0.00000  Uiso   1.00
H211   H     0.73016   0.58058   0.72140   0.00000  Uiso   1.00
H212   H     0.51237   0.87451   0.79859   0.00000  Uiso   1.00
H213   H     0.56959   0.14375   0.61498   0.00000  Uiso   1.00
H214   H     0.83018   0.60178   0.77824   0.00000  Uiso   1.00
H215   H     0.62486   0.43501   0.02768   0.00000  Uiso   1.00
H216   H     0.56521   0.59052   0.06871   0.00000  Uiso   1.00
H217   H     0.59234   0.24396   0.98162   0.00000  Uiso   1.00
H218   H     0.71592   0.46117   0.05904   0.00000  Uiso   1.00
H219   H     0.50082   0.77759   0.07264   0.00000  Uiso   1.00
H220   H     0.55803   0.04683   0.88903   0.00000  Uiso   1.00
H221   H     0.81862   0.50487   0.05228   0.00000  Uiso   1.00
O222   O     0.46759   0.93037   0.95682   0.00000  Uiso   1.00
O223   O     0.54266   0.97164   0.71593   0.00000  Uiso   1.00
O224   O     0.88455   0.57258   0.93012   0.00000  Uiso   1.00
N225   N     0.51785   0.83037   0.85746   0.00000  Uiso   1.00
N226   N     0.57133   0.14716   0.68580   0.00000  Uiso   1.00
N227   N     0.81497   0.57536   0.83842   0.00000  Uiso   1.00
N228   N     0.51163   0.77822   0.00493   0.00000  Uiso   1.00
N229   N     0.56511   0.09501   0.83326   0.00000  Uiso   1.00
N230   N     0.80875   0.52321   0.98589   0.00000  Uiso   1.00
C231   C     0.86473   0.97772   0.78094   0.00000  Uiso   1.00
C232   C     0.89861   0.90555   0.83807   0.00000  Uiso   1.00
C233   C     0.92363   0.81582   0.80396   0.00000  Uiso   1.00
C234   C     0.95280   0.76052   0.86745   0.00000  Uiso   1.00
C235   C     0.00482   0.64341   0.94182   0.00000  Uiso   1.00
C236   C     0.88388   0.09384   0.79075   0.00000  Uiso   1.00
C237   C     0.89651   0.16244   0.71686   0.00000  Uiso   1.00
C238   C     0.91327   0.26565   0.74053   0.00000  Uiso   1.00
C239   C     0.94238   0.44090   0.74145   0.00000  Uiso   1.00
C240   C     0.81673   0.97581   0.83282   0.00000  Uiso   1.00
C241   C     0.77290   0.94520   0.79429   0.00000  Uiso   1.00
C242   C     0.73314   0.94906   0.85337   0.00000  Uiso   1.00
C243   C     0.65799   0.94105   0.91960   0.00000  Uiso   1.00
C244   C     0.87205   0.03905   0.95435   0.00000  Uiso   1.00
C245   C     0.90258   0.93886   0.93226   0.00000  Uiso   1.00
C246   C     0.93172   0.88368   0.99582   0.00000  Uiso   1.00
C247   C     0.95678   0.79388   0.96181   0.00000  Uiso   1.00
C248   C     0.88785   0.12716   0.88494   0.00000  Uiso   1.00
C249   C     0.90460   0.23029   0.90872   0.00000  Uiso   1.00
C250   C     0.91725   0.29902   0.83489   0.00000  Uiso   1.00
C251   C     0.82070   0.00912   0.92701   0.00000  Uiso   1.00
C252   C     0.78100   0.01304   0.98616   0.00000  Uiso   1.00
C253   C     0.73712   0.98243   0.94773   0.00000  Uiso   1.00
H254   H     0.86164   0.95179   0.70760   0.00000  Uiso   1.00
H255   H     0.92055   0.79008   0.73106   0.00000  Uiso   1.00
H256   H     0.89342   0.13664   0.64398   0.00000  Uiso   1.00
H257   H     0.76984   0.91942   0.72140   0.00000  Uiso   1.00
H258   H     0.98763   0.62549   0.79859   0.00000  Uiso   1.00
H259   H     0.93041   0.35625   0.61498   0.00000  Uiso   1.00
H260   H     0.66982   0.89822   0.77824   0.00000  Uiso   1.00
H261   H     0.87514   0.06499   0.02768   0.00000  Uiso   1.00
H262   H     0.93479   0.90948   0.06871   0.00000  Uiso   1.00
H263   H     0.90766   0.25604   0.98162   0.00000  Uiso   1.00
H264   H     0.78408   0.03883   0.05904   0.00000  Uiso   1.00
H265   H     0.99918   0.72241   0.07264   0.00000  Uiso   1.00
H266   H     0.94197   0.45317   0.88903   0.00000  Uiso   1.00
H267   H     0.68138   0.99513   0.05228   0.00000  Uiso   1.00
O268   O     0.03241   0.56963   0.95682   0.00000  Uiso   1.00
O269   O     0.95734   0.52836   0.71593   0.00000  Uiso   1.00
O270   O     0.61545   0.92742   0.93012   0.00000  Uiso   1.00
N271   N     0.98215   0.66963   0.85746   0.00000  Uiso   1.00
N272   N     0.92867   0.35284   0.68580   0.00000  Uiso   1.00
N273   N     0.68503   0.92464   0.83842   0.00000  Uiso   1.00
N274   N     0.98837   0.72178   0.00493   0.00000  Uiso   1.00
N275   N     0.93489   0.40499   0.83326   0.00000  Uiso   1.00
N276   N     0.69125   0.97679   0.98589   0.00000  Uiso   1.00
C277   C     0.36473   0.02228   0.71906   0.00000  Uiso   1.00
C278   C     0.39861   0.09445   0.66193   0.00000  Uiso   1.00
C279   C     0.42363   0.18418   0.69604   0.00000  Uiso   1.00
C280   C     0.45280   0.23948   0.63255   0.00000  Uiso   1.00
C281   C     0.50482   0.35659   0.55818   0.00000  Uiso   1.00
C282   C     0.38388   0.90616   0.70925   0.00000  Uiso   1.00
C283   C     0.39651   0.83756   0.78314   0.00000  Uiso   1.00
C284   C     0.41327   0.73435   0.75947   0.00000  Uiso   1.00
C285   C     0.44238   0.55910   0.75855   0.00000  Uiso   1.00
C286   C     0.31673   0.02419   0.66718   0.00000  Uiso   1.00
C287   C     0.27290   0.05480   0.70571   0.00000  Uiso   1.00
C288   C     0.23314   0.05094   0.64663   0.00000  Uiso   1.00
C289   C     0.15799   0.05895   0.58040   0.00000  Uiso   1.00
C290   C     0.37205   0.96095   0.54565   0.00000  Uiso   1.00
C291   C     0.40258   0.06114   0.56774   0.00000  Uiso   1.00
C292   C     0.43172   0.11632   0.50418   0.00000  Uiso   1.00
C293   C     0.45678   0.20612   0.53819   0.00000  Uiso   1.00
C294   C     0.38785   0.87284   0.61506   0.00000  Uiso   1.00
C295   C     0.40460   0.76971   0.59128   0.00000  Uiso   1.00
C296   C     0.41725   0.70098   0.66511   0.00000  Uiso   1.00
C297   C     0.32070   0.99088   0.57299   0.00000  Uiso   1.00
C298   C     0.28100   0.98696   0.51384   0.00000  Uiso   1.00
C299   C     0.23712   0.01757   0.55227   0.00000  Uiso   1.00
H300   H     0.36164   0.04821   0.79240   0.00000  Uiso   1.00
H301   H     0.42055   0.20992   0.76894   0.00000  Uiso   1.00
H302   H     0.39342   0.86336   0.85602   0.00000  Uiso   1.00
H303   H     0.26984   0.08058   0.77860   0.00000  Uiso   1.00
H304   H     0.48763   0.37451   0.70141   0.00000  Uiso   1.00
H305   H     0.43041   0.64375   0.88502   0.00000  Uiso   1.00
H306   H     0.16982   0.10178   0.72176   0.00000  Uiso   1.00
H307   H     0.37514   0.93501   0.47232   0.00000  Uiso   1.00
H308   H     0.43479   0.09052   0.43129   0.00000  Uiso   1.00
H309   H     0.40766   0.74396   0.51838   0.00000  Uiso   1.00
H310   H     0.28408   0.96117   0.44096   0.00000  Uiso   1.00
H311   H     0.49918   0.27759   0.42736   0.00000  Uiso   1.00
H312   H     0.44197   0.54683   0.61097   0.00000  Uiso   1.00
H313   H     0.18138   0.00487   0.44772   0.00000  Uiso   1.00
O314   O     0.53241   0.43037   0.54318   0.00000  Uiso   1.00
O315   O     0.45734   0.47164   0.78407   0.00000  Uiso   1.00
O316   O     0.11545   0.07258   0.56988   0.00000  Uiso   1.00
N317   N     0.48215   0.33037   0.64254   0.00000  Uiso   1.00
N318   N     0.42867   0.64716   0.81420   0.00000  Uiso   1.00
N319   N     0.18503   0.07536   0.66158   0.00000  Uiso   1.00
N320   N     0.48837   0.27822   0.49507   0.00000  Uiso   1.00
N321   N     0.43489   0.59501   0.66674   0.00000  Uiso   1.00
N322   N     0.19125   0.02321   0.51411   0.00000  Uiso   1.00
C323   C     0.13527   0.47772   0.71906   0.00000  Uiso   1.00
C324   C     0.10139   0.40555   0.66193   0.00000  Uiso   1.00
C325   C     0.07637   0.31582   0.69604   0.00000  Uiso   1.00
C326   C     0.04720   0.26052   0.63255   0.00000  Uiso   1.00
C327   C     0.99518   0.14341   0.55818   0.00000  Uiso   1.00
C328   C     0.11612   0.59384   0.70925   0.00000  Uiso   1.00
C329   C     0.10349   0.66244   0.78314   0.00000  Uiso   1.00
C330   C     0.08673   0.76565   0.75947   0.00000  Uiso   1.00
C331   C     0.05762   0.94090   0.75855   0.00000  Uiso   1.00
C332   C     0.18327   0.47581   0.66718   0.00000  Uiso   1.00
C333   C     0.22710   0.44520   0.70571   0.00000  Uiso   1.00
C334   C     0.26686   0.44906   0.64663   0.00000  Uiso   1.00
C335   C     0.34201   0.44105   0.58040   0.00000  Uiso   1.00
C336   C     0.12795   0.53905   0.54565   0.00000  Uiso   1.00
C337   C     0.09742   0.43886   0.56774   0.00000  Uiso   1.00
C338   C     0.06828   0.38368   0.50418   0.00000  Uiso   1.00
C339   C     0.04322   0.29388   0.53819   0.00000  Uiso   1.00
C340   C     0.11215   0.62716   0.61506   0.00000  Uiso   1.00
C341   C     0.09540   0.73029   0.59128   0.00000  Uiso   1.00
C342   C     0.08275   0.79902   0.66511   0.00000  Uiso   1.00
C343   C     0.17930   0.50912   0.57299   0.00000  Uiso   1.00
C344   C     0.21900   0.51304   0.51384   0.00000  Uiso   1.00
C345   C     0.26288   0.48243   0.55227   0.00000  Uiso   1.00
H346   H     0.13836   0.45179   0.79240   0.00000  Uiso   1.00
H347   H     0.07945   0.29008   0.76894   0.00000  Uiso   1.00
H348   H     0.10658   0.63664   0.85602   0.00000  Uiso   1.00
H349   H     0.23016   0.41942   0.77860   0.00000  Uiso   1.00
H350   H     0.01237   0.12549   0.70141   0.00000  Uiso   1.00
H351   H     0.06959   0.85625   0.88502   0.00000  Uiso   1.00
H352   H     0.33018   0.39822   0.72176   0.00000  Uiso   1.00
H353   H     0.12486   0.56499   0.47232   0.00000  Uiso   1.00
H354   H     0.06521   0.40948   0.43129   0.00000  Uiso   1.00
H355   H     0.09234   0.75604   0.51838   0.00000  Uiso   1.00
H356   H     0.21592   0.53883   0.44096   0.00000  Uiso   1.00
H357   H     0.00082   0.22241   0.42736   0.00000  Uiso   1.00
H358   H     0.05803   0.95317   0.61097   0.00000  Uiso   1.00
H359   H     0.31862   0.49513   0.44772   0.00000  Uiso   1.00
O360   O     0.96759   0.06963   0.54318   0.00000  Uiso   1.00
O361   O     0.04266   0.02836   0.78407   0.00000  Uiso   1.00
O362   O     0.38455   0.42742   0.56988   0.00000  Uiso   1.00
N363   N     0.01785   0.16963   0.64254   0.00000  Uiso   1.00
N364   N     0.07133   0.85284   0.81420   0.00000  Uiso   1.00
N365   N     0.31497   0.42464   0.66158   0.00000  Uiso   1.00
N366   N     0.01163   0.22178   0.49507   0.00000  Uiso   1.00
N367   N     0.06511   0.90499   0.66674   0.00000  Uiso   1.00
N368   N     0.30875   0.47679   0.51411   0.00000  Uiso   1.00
