data_job_05128
_audit_creation_date              2018-12-19
_audit_creation_method            'Materials Studio'
_symmetry_space_group_name_H-M    'P1'
_symmetry_Int_Tables_number       1
_symmetry_cell_setting            triclinic
loop_
_symmetry_equiv_pos_as_xyz
  x,y,z
_cell_length_a                    10.0589
_cell_length_b                    20.7555
_cell_length_c                    22.5012
_cell_angle_alpha                 90.0000
_cell_angle_beta                  90.0000
_cell_angle_gamma                 90.0000
loop_
_atom_site_label
_atom_site_type_symbol
_atom_site_fract_x
_atom_site_fract_y
_atom_site_fract_z
_atom_site_U_iso_or_equiv
_atom_site_adp_type
_atom_site_occupancy
C1     C     0.84606   0.12109   0.35998   0.00000  Uiso   1.00
C2     C     0.69462   0.12305   0.36253   0.00000  Uiso   1.00
C3     C     0.60896   0.09419   0.32218   0.00000  Uiso   1.00
C4     C     0.47366   0.10158   0.33229   0.00000  Uiso   1.00
C5     C     0.24578   0.09933   0.32883   0.00000  Uiso   1.00
C6     C     0.89182   0.19113   0.35956   0.00000  Uiso   1.00
C7     C     0.97197   0.21950   0.31672   0.00000  Uiso   1.00
C8     C     0.00268   0.28419   0.32433   0.00000  Uiso   1.00
C9     C     0.08104   0.38762   0.31628   0.00000  Uiso   1.00
C10    C     0.89147   0.09325   0.41932   0.00000  Uiso   1.00
C11    C     0.97135   0.03933   0.42672   0.00000  Uiso   1.00
C12    C     0.00179   0.02162   0.48465   0.00000  Uiso   1.00
C13    C     0.07960   0.97308   0.56938   0.00000  Uiso   1.00
C14    C     0.75810   0.18554   0.44970   0.00000  Uiso   1.00
C15    C     0.64685   0.15807   0.41126   0.00000  Uiso   1.00
C16    C     0.51164   0.16550   0.42144   0.00000  Uiso   1.00
C17    C     0.42579   0.13664   0.38111   0.00000  Uiso   1.00
C18    C     0.84405   0.22614   0.40829   0.00000  Uiso   1.00
C19    C     0.87465   0.29080   0.41598   0.00000  Uiso   1.00
C20    C     0.95482   0.31926   0.37315   0.00000  Uiso   1.00
C21    C     0.84369   0.12826   0.46805   0.00000  Uiso   1.00
C22    C     0.87402   0.11064   0.52598   0.00000  Uiso   1.00
C23    C     0.95393   0.05669   0.53347   0.00000  Uiso   1.00
H24    H     0.88326   0.09384   0.32204   0.00000  Uiso   1.00
H25    H     0.64597   0.06710   0.28447   0.00000  Uiso   1.00
H26    H     0.00894   0.19239   0.27901   0.00000  Uiso   1.00
H27    H     0.00831   0.01225   0.38900   0.00000  Uiso   1.00
H28    H     0.36183   0.05293   0.26430   0.00000  Uiso   1.00
H29    H     0.12719   0.31709   0.25280   0.00000  Uiso   1.00
H30    H     0.12587   0.93723   0.48473   0.00000  Uiso   1.00
H31    H     0.72091   0.21280   0.48764   0.00000  Uiso   1.00
H32    H     0.47470   0.19259   0.45915   0.00000  Uiso   1.00
H33    H     0.83767   0.31788   0.45369   0.00000  Uiso   1.00
H34    H     0.83704   0.13774   0.56368   0.00000  Uiso   1.00
H35    H     0.22281   0.15478   0.40607   0.00000  Uiso   1.00
H36    H     0.98819   0.41895   0.39457   0.00000  Uiso   1.00
H37    H     0.98685   0.03908   0.62650   0.00000  Uiso   1.00
O38    O     0.13329   0.08843   0.31345   0.00000  Uiso   1.00
O39    O     0.13744   0.43500   0.29837   0.00000  Uiso   1.00
O40    O     0.13569   0.93663   0.60265   0.00000  Uiso   1.00
N41    N     0.36290   0.07966   0.30158   0.00000  Uiso   1.00
N42    N     0.07845   0.32664   0.29082   0.00000  Uiso   1.00
N43    N     0.07724   0.97151   0.50766   0.00000  Uiso   1.00
N44    N     0.28809   0.13447   0.37787   0.00000  Uiso   1.00
N45    N     0.00365   0.38145   0.36711   0.00000  Uiso   1.00
N46    N     0.00244   0.02632   0.58395   0.00000  Uiso   1.00
C47    C     0.87384   0.60514   0.63264   0.00000  Uiso   1.00
C48    C     0.02367   0.60853   0.64248   0.00000  Uiso   1.00
C49    C     0.09339   0.57764   0.68744   0.00000  Uiso   1.00
C50    C     0.23007   0.58683   0.68886   0.00000  Uiso   1.00
C51    C     0.45289   0.58623   0.71056   0.00000  Uiso   1.00
C52    C     0.82461   0.67462   0.63319   0.00000  Uiso   1.00
C53    C     0.72694   0.69931   0.67033   0.00000  Uiso   1.00
C54    C     0.69603   0.76414   0.66392   0.00000  Uiso   1.00
C55    C     0.60973   0.86615   0.67117   0.00000  Uiso   1.00
C56    C     0.85464   0.58108   0.56918   0.00000  Uiso   1.00
C57    C     0.78219   0.52713   0.55250   0.00000  Uiso   1.00
C58    C     0.77654   0.51321   0.49219   0.00000  Uiso   1.00
C59    C     0.73688   0.46997   0.40006   0.00000  Uiso   1.00
C60    C     0.99261   0.67636   0.55521   0.00000  Uiso   1.00
C61    C     0.08818   0.64721   0.60043   0.00000  Uiso   1.00
C62    C     0.22479   0.65645   0.60178   0.00000  Uiso   1.00
C63    C     0.29470   0.62558   0.64673   0.00000  Uiso   1.00
C64    C     0.88911   0.71331   0.59114   0.00000  Uiso   1.00
C65    C     0.85834   0.77811   0.58467   0.00000  Uiso   1.00
C66    C     0.76066   0.80290   0.62179   0.00000  Uiso   1.00
C67    C     0.91915   0.61977   0.52713   0.00000  Uiso   1.00
C68    C     0.91360   0.60593   0.46684   0.00000  Uiso   1.00
C69    C     0.84117   0.55196   0.45007   0.00000  Uiso   1.00
H70    H     0.82361   0.57502   0.66538   0.00000  Uiso   1.00
H71    H     0.04343   0.54771   0.71998   0.00000  Uiso   1.00
H72    H     0.67702   0.66936   0.70287   0.00000  Uiso   1.00
H73    H     0.73228   0.49720   0.58505   0.00000  Uiso   1.00
H74    H     0.31557   0.53452   0.76198   0.00000  Uiso   1.00
H75    H     0.54296   0.79101   0.72588   0.00000  Uiso   1.00
H76    H     0.65947   0.42798   0.47745   0.00000  Uiso   1.00
H77    H     0.04283   0.70649   0.52247   0.00000  Uiso   1.00
H78    H     0.27469   0.68639   0.56923   0.00000  Uiso   1.00
H79    H     0.90828   0.80804   0.55212   0.00000  Uiso   1.00
H80    H     0.96354   0.63588   0.43431   0.00000  Uiso   1.00
H81    H     0.50327   0.64707   0.63963   0.00000  Uiso   1.00
H82    H     0.73065   0.90357   0.60353   0.00000  Uiso   1.00
H83    H     0.84717   0.54054   0.35510   0.00000  Uiso   1.00
O84    O     0.55798   0.57522   0.73416   0.00000  Uiso   1.00
O85    O     0.54432   0.91173   0.68679   0.00000  Uiso   1.00
O86    O     0.69719   0.43544   0.36086   0.00000  Uiso   1.00
N87    N     0.32793   0.56375   0.72676   0.00000  Uiso   1.00
N88    N     0.60560   0.80357   0.69302   0.00000  Uiso   1.00
N89    N     0.71450   0.46417   0.46076   0.00000  Uiso   1.00
N90    N     0.42893   0.62432   0.66093   0.00000  Uiso   1.00
N91    N     0.70660   0.86413   0.62718   0.00000  Uiso   1.00
N92    N     0.81550   0.52473   0.39492   0.00000  Uiso   1.00
C93    C     0.15394   0.87891   0.85998   0.00000  Uiso   1.00
C94    C     0.30538   0.87695   0.86253   0.00000  Uiso   1.00
C95    C     0.39104   0.90581   0.82218   0.00000  Uiso   1.00
C96    C     0.52634   0.89842   0.83229   0.00000  Uiso   1.00
C97    C     0.75422   0.90067   0.82883   0.00000  Uiso   1.00
C98    C     0.10818   0.80887   0.85956   0.00000  Uiso   1.00
C99    C     0.02803   0.78050   0.81672   0.00000  Uiso   1.00
C100   C     0.99732   0.71581   0.82433   0.00000  Uiso   1.00
C101   C     0.91896   0.61238   0.81628   0.00000  Uiso   1.00
C102   C     0.10853   0.90675   0.91932   0.00000  Uiso   1.00
C103   C     0.02865   0.96067   0.92672   0.00000  Uiso   1.00
C104   C     0.99821   0.97838   0.98465   0.00000  Uiso   1.00
C105   C     0.92040   0.02692   0.06938   0.00000  Uiso   1.00
C106   C     0.24190   0.81446   0.94970   0.00000  Uiso   1.00
C107   C     0.35315   0.84193   0.91126   0.00000  Uiso   1.00
C108   C     0.48836   0.83450   0.92144   0.00000  Uiso   1.00
C109   C     0.57421   0.86336   0.88111   0.00000  Uiso   1.00
C110   C     0.15595   0.77386   0.90829   0.00000  Uiso   1.00
C111   C     0.12535   0.70920   0.91598   0.00000  Uiso   1.00
C112   C     0.04518   0.68074   0.87315   0.00000  Uiso   1.00
C113   C     0.15631   0.87174   0.96805   0.00000  Uiso   1.00
C114   C     0.12598   0.88936   0.02598   0.00000  Uiso   1.00
C115   C     0.04607   0.94331   0.03347   0.00000  Uiso   1.00
H116   H     0.11674   0.90616   0.82204   0.00000  Uiso   1.00
H117   H     0.35403   0.93290   0.78447   0.00000  Uiso   1.00
H118   H     0.99106   0.80761   0.77901   0.00000  Uiso   1.00
H119   H     0.99169   0.98775   0.88900   0.00000  Uiso   1.00
H120   H     0.63817   0.94707   0.76430   0.00000  Uiso   1.00
H121   H     0.87281   0.68291   0.75280   0.00000  Uiso   1.00
H122   H     0.87413   0.06277   0.98473   0.00000  Uiso   1.00
H123   H     0.27909   0.78720   0.98764   0.00000  Uiso   1.00
H124   H     0.52530   0.80741   0.95915   0.00000  Uiso   1.00
H125   H     0.16233   0.68212   0.95369   0.00000  Uiso   1.00
H126   H     0.16296   0.86226   0.06368   0.00000  Uiso   1.00
H127   H     0.77719   0.84522   0.90607   0.00000  Uiso   1.00
H128   H     0.01181   0.58105   0.89457   0.00000  Uiso   1.00
H129   H     0.01315   0.96092   0.12650   0.00000  Uiso   1.00
O130   O     0.86671   0.91157   0.81345   0.00000  Uiso   1.00
O131   O     0.86256   0.56500   0.79837   0.00000  Uiso   1.00
O132   O     0.86431   0.06337   0.10265   0.00000  Uiso   1.00
N133   N     0.63710   0.92034   0.80158   0.00000  Uiso   1.00
N134   N     0.92155   0.67336   0.79082   0.00000  Uiso   1.00
N135   N     0.92276   0.02849   0.00766   0.00000  Uiso   1.00
N136   N     0.71191   0.86553   0.87787   0.00000  Uiso   1.00
N137   N     0.99635   0.61855   0.86711   0.00000  Uiso   1.00
N138   N     0.99756   0.97368   0.08395   0.00000  Uiso   1.00
C139   C     0.12616   0.39486   0.13264   0.00000  Uiso   1.00
C140   C     0.97633   0.39147   0.14248   0.00000  Uiso   1.00
C141   C     0.90661   0.42236   0.18744   0.00000  Uiso   1.00
C142   C     0.76993   0.41317   0.18886   0.00000  Uiso   1.00
C143   C     0.54711   0.41377   0.21056   0.00000  Uiso   1.00
C144   C     0.17539   0.32538   0.13319   0.00000  Uiso   1.00
C145   C     0.27306   0.30069   0.17033   0.00000  Uiso   1.00
C146   C     0.30397   0.23586   0.16392   0.00000  Uiso   1.00
C147   C     0.39027   0.13385   0.17117   0.00000  Uiso   1.00
C148   C     0.14536   0.41892   0.06918   0.00000  Uiso   1.00
C149   C     0.21781   0.47287   0.05250   0.00000  Uiso   1.00
C150   C     0.22346   0.48679   0.99219   0.00000  Uiso   1.00
C151   C     0.26312   0.53003   0.90006   0.00000  Uiso   1.00
C152   C     0.00739   0.32364   0.05521   0.00000  Uiso   1.00
C153   C     0.91182   0.35279   0.10043   0.00000  Uiso   1.00
C154   C     0.77521   0.34355   0.10178   0.00000  Uiso   1.00
C155   C     0.70530   0.37442   0.14673   0.00000  Uiso   1.00
C156   C     0.11089   0.28669   0.09114   0.00000  Uiso   1.00
C157   C     0.14166   0.22189   0.08467   0.00000  Uiso   1.00
C158   C     0.23934   0.19710   0.12179   0.00000  Uiso   1.00
C159   C     0.08085   0.38023   0.02713   0.00000  Uiso   1.00
C160   C     0.08640   0.39407   0.96684   0.00000  Uiso   1.00
C161   C     0.15883   0.44804   0.95007   0.00000  Uiso   1.00
H162   H     0.17639   0.42498   0.16538   0.00000  Uiso   1.00
H163   H     0.95657   0.45229   0.21998   0.00000  Uiso   1.00
H164   H     0.32298   0.33064   0.20287   0.00000  Uiso   1.00
H165   H     0.26772   0.50280   0.08505   0.00000  Uiso   1.00
H166   H     0.68443   0.46548   0.26198   0.00000  Uiso   1.00
H167   H     0.45704   0.20899   0.22588   0.00000  Uiso   1.00
H168   H     0.34053   0.57202   0.97745   0.00000  Uiso   1.00
H169   H     0.95717   0.29351   0.02247   0.00000  Uiso   1.00
H170   H     0.72531   0.31361   0.06923   0.00000  Uiso   1.00
H171   H     0.09172   0.19196   0.05212   0.00000  Uiso   1.00
H172   H     0.03646   0.36412   0.93431   0.00000  Uiso   1.00
H173   H     0.49673   0.35293   0.13963   0.00000  Uiso   1.00
H174   H     0.26935   0.09643   0.10353   0.00000  Uiso   1.00
H175   H     0.15283   0.45946   0.85510   0.00000  Uiso   1.00
O176   O     0.44202   0.42478   0.23416   0.00000  Uiso   1.00
O177   O     0.45568   0.08827   0.18679   0.00000  Uiso   1.00
O178   O     0.30281   0.56456   0.86086   0.00000  Uiso   1.00
N179   N     0.67207   0.43625   0.22676   0.00000  Uiso   1.00
N180   N     0.39440   0.19643   0.19302   0.00000  Uiso   1.00
N181   N     0.28550   0.53583   0.96076   0.00000  Uiso   1.00
N182   N     0.57107   0.37568   0.16093   0.00000  Uiso   1.00
N183   N     0.29340   0.13587   0.12718   0.00000  Uiso   1.00
N184   N     0.18450   0.47527   0.89492   0.00000  Uiso   1.00
C185   C     0.34606   0.87891   0.35998   0.00000  Uiso   1.00
C186   C     0.19462   0.87695   0.36253   0.00000  Uiso   1.00
C187   C     0.10896   0.90581   0.32218   0.00000  Uiso   1.00
C188   C     0.97366   0.89842   0.33229   0.00000  Uiso   1.00
C189   C     0.74578   0.90067   0.32883   0.00000  Uiso   1.00
C190   C     0.39182   0.80887   0.35956   0.00000  Uiso   1.00
C191   C     0.47197   0.78050   0.31672   0.00000  Uiso   1.00
C192   C     0.50268   0.71581   0.32433   0.00000  Uiso   1.00
C193   C     0.58104   0.61238   0.31628   0.00000  Uiso   1.00
C194   C     0.39147   0.90675   0.41932   0.00000  Uiso   1.00
C195   C     0.47135   0.96067   0.42672   0.00000  Uiso   1.00
C196   C     0.50179   0.97838   0.48465   0.00000  Uiso   1.00
C197   C     0.57960   0.02692   0.56938   0.00000  Uiso   1.00
C198   C     0.25810   0.81446   0.44970   0.00000  Uiso   1.00
C199   C     0.14685   0.84193   0.41126   0.00000  Uiso   1.00
C200   C     0.01164   0.83450   0.42144   0.00000  Uiso   1.00
C201   C     0.92579   0.86336   0.38111   0.00000  Uiso   1.00
C202   C     0.34405   0.77386   0.40829   0.00000  Uiso   1.00
C203   C     0.37465   0.70920   0.41598   0.00000  Uiso   1.00
C204   C     0.45482   0.68074   0.37315   0.00000  Uiso   1.00
C205   C     0.34369   0.87174   0.46805   0.00000  Uiso   1.00
C206   C     0.37402   0.88936   0.52598   0.00000  Uiso   1.00
C207   C     0.45393   0.94331   0.53347   0.00000  Uiso   1.00
H208   H     0.38326   0.90616   0.32204   0.00000  Uiso   1.00
H209   H     0.14597   0.93290   0.28447   0.00000  Uiso   1.00
H210   H     0.50894   0.80761   0.27901   0.00000  Uiso   1.00
H211   H     0.50831   0.98775   0.38900   0.00000  Uiso   1.00
H212   H     0.86183   0.94707   0.26430   0.00000  Uiso   1.00
H213   H     0.62719   0.68291   0.25280   0.00000  Uiso   1.00
H214   H     0.62587   0.06277   0.48473   0.00000  Uiso   1.00
H215   H     0.22091   0.78720   0.48764   0.00000  Uiso   1.00
H216   H     0.97470   0.80741   0.45915   0.00000  Uiso   1.00
H217   H     0.33767   0.68212   0.45369   0.00000  Uiso   1.00
H218   H     0.33704   0.86226   0.56368   0.00000  Uiso   1.00
H219   H     0.72281   0.84522   0.40607   0.00000  Uiso   1.00
H220   H     0.48819   0.58105   0.39457   0.00000  Uiso   1.00
H221   H     0.48685   0.96092   0.62650   0.00000  Uiso   1.00
O222   O     0.63329   0.91157   0.31345   0.00000  Uiso   1.00
O223   O     0.63744   0.56500   0.29837   0.00000  Uiso   1.00
O224   O     0.63569   0.06337   0.60265   0.00000  Uiso   1.00
N225   N     0.86290   0.92034   0.30158   0.00000  Uiso   1.00
N226   N     0.57845   0.67336   0.29082   0.00000  Uiso   1.00
N227   N     0.57724   0.02849   0.50766   0.00000  Uiso   1.00
N228   N     0.78809   0.86553   0.37787   0.00000  Uiso   1.00
N229   N     0.50365   0.61855   0.36711   0.00000  Uiso   1.00
N230   N     0.50244   0.97368   0.58395   0.00000  Uiso   1.00
C231   C     0.37384   0.39486   0.63264   0.00000  Uiso   1.00
C232   C     0.52367   0.39147   0.64248   0.00000  Uiso   1.00
C233   C     0.59339   0.42236   0.68744   0.00000  Uiso   1.00
C234   C     0.73007   0.41317   0.68886   0.00000  Uiso   1.00
C235   C     0.95289   0.41377   0.71056   0.00000  Uiso   1.00
C236   C     0.32461   0.32538   0.63319   0.00000  Uiso   1.00
C237   C     0.22694   0.30069   0.67033   0.00000  Uiso   1.00
C238   C     0.19603   0.23586   0.66392   0.00000  Uiso   1.00
C239   C     0.10973   0.13385   0.67117   0.00000  Uiso   1.00
C240   C     0.35464   0.41892   0.56918   0.00000  Uiso   1.00
C241   C     0.28219   0.47287   0.55250   0.00000  Uiso   1.00
C242   C     0.27654   0.48679   0.49219   0.00000  Uiso   1.00
C243   C     0.23688   0.53003   0.40006   0.00000  Uiso   1.00
C244   C     0.49261   0.32364   0.55521   0.00000  Uiso   1.00
C245   C     0.58818   0.35279   0.60043   0.00000  Uiso   1.00
C246   C     0.72479   0.34355   0.60178   0.00000  Uiso   1.00
C247   C     0.79470   0.37442   0.64673   0.00000  Uiso   1.00
C248   C     0.38911   0.28669   0.59114   0.00000  Uiso   1.00
C249   C     0.35834   0.22189   0.58467   0.00000  Uiso   1.00
C250   C     0.26066   0.19710   0.62179   0.00000  Uiso   1.00
C251   C     0.41915   0.38023   0.52713   0.00000  Uiso   1.00
C252   C     0.41360   0.39407   0.46684   0.00000  Uiso   1.00
C253   C     0.34117   0.44804   0.45007   0.00000  Uiso   1.00
H254   H     0.32361   0.42498   0.66538   0.00000  Uiso   1.00
H255   H     0.54343   0.45229   0.71998   0.00000  Uiso   1.00
H256   H     0.17702   0.33064   0.70287   0.00000  Uiso   1.00
H257   H     0.23228   0.50280   0.58505   0.00000  Uiso   1.00
H258   H     0.81557   0.46548   0.76198   0.00000  Uiso   1.00
H259   H     0.04296   0.20899   0.72588   0.00000  Uiso   1.00
H260   H     0.15947   0.57202   0.47745   0.00000  Uiso   1.00
H261   H     0.54283   0.29351   0.52247   0.00000  Uiso   1.00
H262   H     0.77469   0.31361   0.56923   0.00000  Uiso   1.00
H263   H     0.40828   0.19196   0.55212   0.00000  Uiso   1.00
H264   H     0.46354   0.36412   0.43431   0.00000  Uiso   1.00
H265   H     0.00327   0.35293   0.63963   0.00000  Uiso   1.00
H266   H     0.23065   0.09643   0.60353   0.00000  Uiso   1.00
H267   H     0.34717   0.45946   0.35510   0.00000  Uiso   1.00
O268   O     0.05798   0.42478   0.73416   0.00000  Uiso   1.00
O269   O     0.04432   0.08827   0.68679   0.00000  Uiso   1.00
O270   O     0.19719   0.56456   0.36086   0.00000  Uiso   1.00
N271   N     0.82793   0.43625   0.72676   0.00000  Uiso   1.00
N272   N     0.10560   0.19643   0.69302   0.00000  Uiso   1.00
N273   N     0.21450   0.53583   0.46076   0.00000  Uiso   1.00
N274   N     0.92893   0.37568   0.66093   0.00000  Uiso   1.00
N275   N     0.20660   0.13587   0.62718   0.00000  Uiso   1.00
N276   N     0.31550   0.47527   0.39492   0.00000  Uiso   1.00
C277   C     0.65394   0.12109   0.85998   0.00000  Uiso   1.00
C278   C     0.80538   0.12305   0.86253   0.00000  Uiso   1.00
C279   C     0.89104   0.09419   0.82218   0.00000  Uiso   1.00
C280   C     0.02634   0.10158   0.83229   0.00000  Uiso   1.00
C281   C     0.25422   0.09933   0.82883   0.00000  Uiso   1.00
C282   C     0.60818   0.19113   0.85956   0.00000  Uiso   1.00
C283   C     0.52803   0.21950   0.81672   0.00000  Uiso   1.00
C284   C     0.49732   0.28419   0.82433   0.00000  Uiso   1.00
C285   C     0.41896   0.38762   0.81628   0.00000  Uiso   1.00
C286   C     0.60853   0.09325   0.91932   0.00000  Uiso   1.00
C287   C     0.52865   0.03933   0.92672   0.00000  Uiso   1.00
C288   C     0.49821   0.02162   0.98465   0.00000  Uiso   1.00
C289   C     0.42040   0.97308   0.06938   0.00000  Uiso   1.00
C290   C     0.74190   0.18554   0.94970   0.00000  Uiso   1.00
C291   C     0.85315   0.15807   0.91126   0.00000  Uiso   1.00
C292   C     0.98836   0.16550   0.92144   0.00000  Uiso   1.00
C293   C     0.07421   0.13664   0.88111   0.00000  Uiso   1.00
C294   C     0.65595   0.22614   0.90829   0.00000  Uiso   1.00
C295   C     0.62535   0.29080   0.91598   0.00000  Uiso   1.00
C296   C     0.54518   0.31926   0.87315   0.00000  Uiso   1.00
C297   C     0.65631   0.12826   0.96805   0.00000  Uiso   1.00
C298   C     0.62598   0.11064   0.02598   0.00000  Uiso   1.00
C299   C     0.54607   0.05669   0.03347   0.00000  Uiso   1.00
H300   H     0.61674   0.09384   0.82204   0.00000  Uiso   1.00
H301   H     0.85403   0.06710   0.78447   0.00000  Uiso   1.00
H302   H     0.49106   0.19239   0.77901   0.00000  Uiso   1.00
H303   H     0.49169   0.01225   0.88900   0.00000  Uiso   1.00
H304   H     0.13817   0.05293   0.76430   0.00000  Uiso   1.00
H305   H     0.37281   0.31709   0.75280   0.00000  Uiso   1.00
H306   H     0.37413   0.93723   0.98473   0.00000  Uiso   1.00
H307   H     0.77909   0.21280   0.98764   0.00000  Uiso   1.00
H308   H     0.02530   0.19259   0.95915   0.00000  Uiso   1.00
H309   H     0.66233   0.31788   0.95369   0.00000  Uiso   1.00
H310   H     0.66296   0.13774   0.06368   0.00000  Uiso   1.00
H311   H     0.27719   0.15478   0.90607   0.00000  Uiso   1.00
H312   H     0.51181   0.41895   0.89457   0.00000  Uiso   1.00
H313   H     0.51315   0.03908   0.12650   0.00000  Uiso   1.00
O314   O     0.36671   0.08843   0.81345   0.00000  Uiso   1.00
O315   O     0.36256   0.43500   0.79837   0.00000  Uiso   1.00
O316   O     0.36431   0.93663   0.10265   0.00000  Uiso   1.00
N317   N     0.13710   0.07966   0.80158   0.00000  Uiso   1.00
N318   N     0.42155   0.32664   0.79082   0.00000  Uiso   1.00
N319   N     0.42276   0.97151   0.00766   0.00000  Uiso   1.00
N320   N     0.21191   0.13447   0.87787   0.00000  Uiso   1.00
N321   N     0.49635   0.38145   0.86711   0.00000  Uiso   1.00
N322   N     0.49756   0.02632   0.08395   0.00000  Uiso   1.00
C323   C     0.62616   0.60514   0.13264   0.00000  Uiso   1.00
C324   C     0.47633   0.60853   0.14248   0.00000  Uiso   1.00
C325   C     0.40661   0.57764   0.18744   0.00000  Uiso   1.00
C326   C     0.26993   0.58683   0.18886   0.00000  Uiso   1.00
C327   C     0.04711   0.58623   0.21056   0.00000  Uiso   1.00
C328   C     0.67539   0.67462   0.13319   0.00000  Uiso   1.00
C329   C     0.77306   0.69931   0.17033   0.00000  Uiso   1.00
C330   C     0.80397   0.76414   0.16392   0.00000  Uiso   1.00
C331   C     0.89027   0.86615   0.17117   0.00000  Uiso   1.00
C332   C     0.64536   0.58108   0.06918   0.00000  Uiso   1.00
C333   C     0.71781   0.52713   0.05250   0.00000  Uiso   1.00
C334   C     0.72346   0.51321   0.99219   0.00000  Uiso   1.00
C335   C     0.76312   0.46997   0.90006   0.00000  Uiso   1.00
C336   C     0.50739   0.67636   0.05521   0.00000  Uiso   1.00
C337   C     0.41182   0.64721   0.10043   0.00000  Uiso   1.00
C338   C     0.27521   0.65645   0.10178   0.00000  Uiso   1.00
C339   C     0.20530   0.62558   0.14673   0.00000  Uiso   1.00
C340   C     0.61089   0.71331   0.09114   0.00000  Uiso   1.00
C341   C     0.64166   0.77811   0.08467   0.00000  Uiso   1.00
C342   C     0.73934   0.80290   0.12179   0.00000  Uiso   1.00
C343   C     0.58085   0.61977   0.02713   0.00000  Uiso   1.00
C344   C     0.58640   0.60593   0.96684   0.00000  Uiso   1.00
C345   C     0.65883   0.55196   0.95007   0.00000  Uiso   1.00
H346   H     0.67639   0.57502   0.16538   0.00000  Uiso   1.00
H347   H     0.45657   0.54771   0.21998   0.00000  Uiso   1.00
H348   H     0.82298   0.66936   0.20287   0.00000  Uiso   1.00
H349   H     0.76772   0.49720   0.08505   0.00000  Uiso   1.00
H350   H     0.18443   0.53452   0.26198   0.00000  Uiso   1.00
H351   H     0.95704   0.79101   0.22588   0.00000  Uiso   1.00
H352   H     0.84053   0.42798   0.97745   0.00000  Uiso   1.00
H353   H     0.45717   0.70649   0.02247   0.00000  Uiso   1.00
H354   H     0.22531   0.68639   0.06923   0.00000  Uiso   1.00
H355   H     0.59172   0.80804   0.05212   0.00000  Uiso   1.00
H356   H     0.53646   0.63588   0.93431   0.00000  Uiso   1.00
H357   H     0.99673   0.64707   0.13963   0.00000  Uiso   1.00
H358   H     0.76935   0.90357   0.10353   0.00000  Uiso   1.00
H359   H     0.65283   0.54054   0.85510   0.00000  Uiso   1.00
O360   O     0.94202   0.57522   0.23416   0.00000  Uiso   1.00
O361   O     0.95568   0.91173   0.18679   0.00000  Uiso   1.00
O362   O     0.80281   0.43544   0.86086   0.00000  Uiso   1.00
N363   N     0.17207   0.56375   0.22676   0.00000  Uiso   1.00
N364   N     0.89440   0.80357   0.19302   0.00000  Uiso   1.00
N365   N     0.78550   0.46417   0.96076   0.00000  Uiso   1.00
N366   N     0.07107   0.62432   0.16093   0.00000  Uiso   1.00
N367   N     0.79340   0.86413   0.12718   0.00000  Uiso   1.00
N368   N     0.68450   0.52473   0.89492   0.00000  Uiso   1.00
