data_job_04932
_audit_creation_date              2018-12-19
_audit_creation_method            'Materials Studio'
_symmetry_space_group_name_H-M    'P1'
_symmetry_Int_Tables_number       1
_symmetry_cell_setting            triclinic
loop_
_symmetry_equiv_pos_as_xyz
  x,y,z
_cell_length_a                    14.8321
_cell_length_b                    9.6496
_cell_length_c                    30.9716
_cell_angle_alpha                 90.0000
_cell_angle_beta                  96.5820
_cell_angle_gamma                 90.0000
loop_
_atom_site_label
_atom_site_type_symbol
_atom_site_fract_x
_atom_site_fract_y
_atom_site_fract_z
_atom_site_U_iso_or_equiv
_atom_site_adp_type
_atom_site_occupancy
C1     C     0.48182   0.03067   0.34049   0.00000  Uiso   1.00
C2     C     0.55110   0.13153   0.36301   0.00000  Uiso   1.00
C3     C     0.63607   0.15993   0.35048   0.00000  Uiso   1.00
C4     C     0.68939   0.25540   0.37535   0.00000  Uiso   1.00
C5     C     0.80164   0.40213   0.40484   0.00000  Uiso   1.00
C6     C     0.46046   0.92775   0.37527   0.00000  Uiso   1.00
C7     C     0.46921   0.78481   0.37305   0.00000  Uiso   1.00
C8     C     0.44622   0.70874   0.40824   0.00000  Uiso   1.00
C9     C     0.41768   0.53909   0.45675   0.00000  Uiso   1.00
C10    C     0.39526   0.11429   0.32872   0.00000  Uiso   1.00
C11    C     0.34917   0.12818   0.28735   0.00000  Uiso   1.00
C12    C     0.27127   0.20914   0.28334   0.00000  Uiso   1.00
C13    C     0.14151   0.32913   0.25956   0.00000  Uiso   1.00
C14    C     0.42543   0.14973   0.40692   0.00000  Uiso   1.00
C15    C     0.52047   0.19619   0.39910   0.00000  Uiso   1.00
C16    C     0.57368   0.29165   0.42399   0.00000  Uiso   1.00
C17    C     0.65871   0.32019   0.41150   0.00000  Uiso   1.00
C18    C     0.42983   0.99241   0.41136   0.00000  Uiso   1.00
C19    C     0.40682   0.91654   0.44655   0.00000  Uiso   1.00
C20    C     0.41553   0.77352   0.44438   0.00000  Uiso   1.00
C21    C     0.36463   0.17897   0.36480   0.00000  Uiso   1.00
C22    C     0.28678   0.25991   0.36085   0.00000  Uiso   1.00
C23    C     0.24059   0.27392   0.31949   0.00000  Uiso   1.00
H24    H     0.50567   0.98031   0.31240   0.00000  Uiso   1.00
H25    H     0.65975   0.10985   0.32256   0.00000  Uiso   1.00
H26    H     0.49290   0.73479   0.34512   0.00000  Uiso   1.00
H27    H     0.37289   0.07812   0.25943   0.00000  Uiso   1.00
H28    H     0.81708   0.28195   0.34975   0.00000  Uiso   1.00
H29    H     0.46525   0.49112   0.39731   0.00000  Uiso   1.00
H30    H     0.21218   0.21508   0.21662   0.00000  Uiso   1.00
H31    H     0.40158   0.20007   0.43502   0.00000  Uiso   1.00
H32    H     0.54995   0.34168   0.45191   0.00000  Uiso   1.00
H33    H     0.38311   0.96662   0.47447   0.00000  Uiso   1.00
H34    H     0.26310   0.30994   0.38878   0.00000  Uiso   1.00
H35    H     0.72797   0.47011   0.45473   0.00000  Uiso   1.00
H36    H     0.37614   0.67927   0.50230   0.00000  Uiso   1.00
H37    H     0.12307   0.40324   0.32161   0.00000  Uiso   1.00
O38    O     0.87202   0.46518   0.41114   0.00000  Uiso   1.00
O39    O     0.41042   0.42764   0.47354   0.00000  Uiso   1.00
O40    O     0.07840   0.37747   0.23648   0.00000  Uiso   1.00
N41    N     0.77574   0.30682   0.37213   0.00000  Uiso   1.00
N42    N     0.44682   0.56744   0.41661   0.00000  Uiso   1.00
N43    N     0.21020   0.24425   0.24768   0.00000  Uiso   1.00
N44    N     0.72779   0.40807   0.42862   0.00000  Uiso   1.00
N45    N     0.39886   0.66869   0.47310   0.00000  Uiso   1.00
N46    N     0.16225   0.34550   0.30417   0.00000  Uiso   1.00
C47    C     0.95668   0.76133   0.18755   0.00000  Uiso   1.00
C48    C     0.01513   0.66090   0.16483   0.00000  Uiso   1.00
C49    C     0.10596   0.63173   0.17743   0.00000  Uiso   1.00
C50    C     0.14735   0.53684   0.15236   0.00000  Uiso   1.00
C51    C     0.24539   0.39060   0.12261   0.00000  Uiso   1.00
C52    C     0.91920   0.86546   0.15303   0.00000  Uiso   1.00
C53    C     0.92936   0.00829   0.15571   0.00000  Uiso   1.00
C54    C     0.88999   0.08560   0.12071   0.00000  Uiso   1.00
C55    C     0.83904   0.25695   0.07265   0.00000  Uiso   1.00
C56    C     0.87541   0.67770   0.19891   0.00000  Uiso   1.00
C57    C     0.84874   0.66267   0.24016   0.00000  Uiso   1.00
C58    C     0.77249   0.58191   0.24378   0.00000  Uiso   1.00
C59    C     0.65356   0.46172   0.26695   0.00000  Uiso   1.00
C60    C     0.86868   0.64468   0.12061   0.00000  Uiso   1.00
C61    C     0.96733   0.59755   0.12848   0.00000  Uiso   1.00
C62    C     0.00860   0.50267   0.10338   0.00000  Uiso   1.00
C63    C     0.09947   0.47337   0.11594   0.00000  Uiso   1.00
C64    C     0.87140   0.80211   0.11668   0.00000  Uiso   1.00
C65    C     0.83200   0.87923   0.08166   0.00000  Uiso   1.00
C66    C     0.84211   0.02213   0.08429   0.00000  Uiso   1.00
C67    C     0.82762   0.61433   0.16255   0.00000  Uiso   1.00
C68    C     0.75139   0.53360   0.16611   0.00000  Uiso   1.00
C69    C     0.72461   0.51844   0.20736   0.00000  Uiso   1.00
H70    H     0.99389   0.81066   0.21585   0.00000  Uiso   1.00
H71    H     0.14292   0.68080   0.20557   0.00000  Uiso   1.00
H72    H     0.96634   0.05729   0.18385   0.00000  Uiso   1.00
H73    H     0.88574   0.71171   0.26829   0.00000  Uiso   1.00
H74    H     0.28709   0.50891   0.17813   0.00000  Uiso   1.00
H75    H     0.91473   0.30277   0.13235   0.00000  Uiso   1.00
H76    H     0.74477   0.57406   0.31039   0.00000  Uiso   1.00
H77    H     0.83147   0.59536   0.09231   0.00000  Uiso   1.00
H78    H     0.97159   0.45366   0.07525   0.00000  Uiso   1.00
H79    H     0.79502   0.83017   0.05353   0.00000  Uiso   1.00
H80    H     0.71442   0.48459   0.13797   0.00000  Uiso   1.00
H81    H     0.14803   0.32457   0.07235   0.00000  Uiso   1.00
H82    H     0.77567   0.11843   0.02657   0.00000  Uiso   1.00
H83    H     0.60571   0.38972   0.20462   0.00000  Uiso   1.00
O84    O     0.31268   0.32745   0.11624   0.00000  Uiso   1.00
O85    O     0.82415   0.36896   0.05618   0.00000  Uiso   1.00
O86    O     0.60116   0.41291   0.28977   0.00000  Uiso   1.00
N87    N     0.23513   0.48495   0.15558   0.00000  Uiso   1.00
N88    N     0.88701   0.22716   0.11278   0.00000  Uiso   1.00
N89    N     0.72809   0.54591   0.27923   0.00000  Uiso   1.00
N90    N     0.16030   0.38575   0.09866   0.00000  Uiso   1.00
N91    N     0.81218   0.12797   0.05586   0.00000  Uiso   1.00
N92    N     0.65327   0.44671   0.22232   0.00000  Uiso   1.00
C93    C     0.46217   0.71390   0.15868   0.00000  Uiso   1.00
C94    C     0.39591   0.80911   0.13158   0.00000  Uiso   1.00
C95    C     0.30589   0.83106   0.13790   0.00000  Uiso   1.00
C96    C     0.25654   0.92209   0.10962   0.00000  Uiso   1.00
C97    C     0.14766   0.05975   0.07260   0.00000  Uiso   1.00
C98    C     0.49726   0.61244   0.12675   0.00000  Uiso   1.00
C99    C     0.49247   0.46903   0.12902   0.00000  Uiso   1.00
C100   C     0.52844   0.39450   0.09668   0.00000  Uiso   1.00
C101   C     0.57697   0.22681   0.05219   0.00000  Uiso   1.00
C102   C     0.54296   0.80417   0.17558   0.00000  Uiso   1.00
C103   C     0.57662   0.82195   0.21892   0.00000  Uiso   1.00
C104   C     0.65109   0.90883   0.22769   0.00000  Uiso   1.00
C105   C     0.77058   0.03884   0.25902   0.00000  Uiso   1.00
C106   C     0.53460   0.83653   0.09721   0.00000  Uiso   1.00
C107   C     0.43525   0.87571   0.09819   0.00000  Uiso   1.00
C108   C     0.38602   0.96674   0.06989   0.00000  Uiso   1.00
C109   C     0.29595   0.98882   0.07618   0.00000  Uiso   1.00
C110   C     0.53660   0.67904   0.09336   0.00000  Uiso   1.00
C111   C     0.57260   0.60470   0.06101   0.00000  Uiso   1.00
C112   C     0.56785   0.46122   0.06323   0.00000  Uiso   1.00
C113   C     0.58230   0.87079   0.14220   0.00000  Uiso   1.00
C114   C     0.65674   0.95764   0.15090   0.00000  Uiso   1.00
C115   C     0.69050   0.97556   0.19424   0.00000  Uiso   1.00
H116   H     0.43154   0.66204   0.18467   0.00000  Uiso   1.00
H117   H     0.27547   0.77949   0.16374   0.00000  Uiso   1.00
H118   H     0.46203   0.41752   0.15487   0.00000  Uiso   1.00
H119   H     0.54616   0.77039   0.24474   0.00000  Uiso   1.00
H120   H     0.11977   0.93904   0.12580   0.00000  Uiso   1.00
H121   H     0.51317   0.17580   0.10710   0.00000  Uiso   1.00
H122   H     0.69058   0.91991   0.29662   0.00000  Uiso   1.00
H123   H     0.56522   0.88838   0.07122   0.00000  Uiso   1.00
H124   H     0.41648   0.01827   0.04406   0.00000  Uiso   1.00
H125   H     0.60304   0.65628   0.03518   0.00000  Uiso   1.00
H126   H     0.68717   0.00916   0.12506   0.00000  Uiso   1.00
H127   H     0.23422   0.13284   0.02866   0.00000  Uiso   1.00
H128   H     0.62762   0.36959   0.00996   0.00000  Uiso   1.00
H129   H     0.80503   0.11370   0.19948   0.00000  Uiso   1.00
O130   O     0.07673   0.11726   0.06141   0.00000  Uiso   1.00
O131   O     0.59286   0.11591   0.03687   0.00000  Uiso   1.00
O132   O     0.82561   0.09217   0.28552   0.00000  Uiso   1.00
N133   N     0.16713   0.96685   0.10667   0.00000  Uiso   1.00
N134   N     0.53491   0.25326   0.08918   0.00000  Uiso   1.00
N135   N     0.70079   0.94891   0.26637   0.00000  Uiso   1.00
N136   N     0.22871   0.07113   0.05440   0.00000  Uiso   1.00
N137   N     0.59650   0.35754   0.03691   0.00000  Uiso   1.00
N138   N     0.76237   0.05319   0.21410   0.00000  Uiso   1.00
C139   C     0.00820   0.08792   0.37036   0.00000  Uiso   1.00
C140   C     0.95300   0.99125   0.39609   0.00000  Uiso   1.00
C141   C     0.85980   0.97156   0.38887   0.00000  Uiso   1.00
C142   C     0.82209   0.87865   0.41595   0.00000  Uiso   1.00
C143   C     0.72821   0.73934   0.45088   0.00000  Uiso   1.00
C144   C     0.05854   0.18553   0.40355   0.00000  Uiso   1.00
C145   C     0.05410   0.32917   0.40259   0.00000  Uiso   1.00
C146   C     0.10525   0.39980   0.43595   0.00000  Uiso   1.00
C147   C     0.17527   0.56210   0.48245   0.00000  Uiso   1.00
C148   C     0.08074   0.99793   0.35320   0.00000  Uiso   1.00
C149   C     0.09498   0.98386   0.30991   0.00000  Uiso   1.00
C150   C     0.16484   0.89656   0.30087   0.00000  Uiso   1.00
C151   C     0.26933   0.76759   0.26919   0.00000  Uiso   1.00
C152   C     0.10695   0.95794   0.43130   0.00000  Uiso   1.00
C153   C     0.00664   0.92066   0.42920   0.00000  Uiso   1.00
C154   C     0.96906   0.82775   0.45629   0.00000  Uiso   1.00
C155   C     0.87583   0.80792   0.44911   0.00000  Uiso   1.00
C156   C     0.11218   0.11493   0.43666   0.00000  Uiso   1.00
C157   C     0.16335   0.18536   0.47002   0.00000  Uiso   1.00
C158   C     0.15898   0.32907   0.46911   0.00000  Uiso   1.00
C159   C     0.13438   0.92732   0.38630   0.00000  Uiso   1.00
C160   C     0.20423   0.84004   0.37734   0.00000  Uiso   1.00
C161   C     0.21857   0.82584   0.33404   0.00000  Uiso   1.00
H162   H     0.96645   0.14290   0.34459   0.00000  Uiso   1.00
H163   H     0.81832   0.02623   0.36325   0.00000  Uiso   1.00
H164   H     0.01259   0.38378   0.37697   0.00000  Uiso   1.00
H165   H     0.05346   0.03851   0.28430   0.00000  Uiso   1.00
H166   H     0.67774   0.86578   0.39854   0.00000  Uiso   1.00
H167   H     0.08740   0.61970   0.42747   0.00000  Uiso   1.00
H168   H     0.17358   0.89164   0.23205   0.00000  Uiso   1.00
H169   H     0.14871   0.90297   0.45708   0.00000  Uiso   1.00
H170   H     0.01058   0.77313   0.48191   0.00000  Uiso   1.00
H171   H     0.20485   0.13069   0.49563   0.00000  Uiso   1.00
H172   H     0.24572   0.78542   0.40296   0.00000  Uiso   1.00
H173   H     0.83379   0.66036   0.49485   0.00000  Uiso   1.00
H174   H     0.24345   0.41429   0.52378   0.00000  Uiso   1.00
H175   H     0.32963   0.68622   0.32836   0.00000  Uiso   1.00
O176   O     0.66160   0.68202   0.46101   0.00000  Uiso   1.00
O177   O     0.19907   0.67113   0.49895   0.00000  Uiso   1.00
O178   O     0.31214   0.71593   0.24258   0.00000  Uiso   1.00
N179   N     0.73342   0.83523   0.41779   0.00000  Uiso   1.00
N180   N     0.11642   0.54010   0.44484   0.00000  Uiso   1.00
N181   N     0.19701   0.85946   0.26215   0.00000  Uiso   1.00
N182   N     0.81739   0.72470   0.46962   0.00000  Uiso   1.00
N183   N     0.20039   0.42957   0.49667   0.00000  Uiso   1.00
N184   N     0.28098   0.74892   0.31397   0.00000  Uiso   1.00
C185   C     0.48182   0.96933   0.84049   0.00000  Uiso   1.00
C186   C     0.55110   0.86847   0.86301   0.00000  Uiso   1.00
C187   C     0.63607   0.84007   0.85048   0.00000  Uiso   1.00
C188   C     0.68939   0.74460   0.87535   0.00000  Uiso   1.00
C189   C     0.80164   0.59787   0.90484   0.00000  Uiso   1.00
C190   C     0.46046   0.07225   0.87527   0.00000  Uiso   1.00
C191   C     0.46921   0.21519   0.87305   0.00000  Uiso   1.00
C192   C     0.44622   0.29126   0.90824   0.00000  Uiso   1.00
C193   C     0.41768   0.46091   0.95675   0.00000  Uiso   1.00
C194   C     0.39526   0.88571   0.82872   0.00000  Uiso   1.00
C195   C     0.34917   0.87182   0.78735   0.00000  Uiso   1.00
C196   C     0.27127   0.79086   0.78334   0.00000  Uiso   1.00
C197   C     0.14151   0.67087   0.75956   0.00000  Uiso   1.00
C198   C     0.42543   0.85027   0.90692   0.00000  Uiso   1.00
C199   C     0.52047   0.80381   0.89910   0.00000  Uiso   1.00
C200   C     0.57368   0.70835   0.92399   0.00000  Uiso   1.00
C201   C     0.65871   0.67981   0.91150   0.00000  Uiso   1.00
C202   C     0.42983   0.00759   0.91136   0.00000  Uiso   1.00
C203   C     0.40682   0.08346   0.94655   0.00000  Uiso   1.00
C204   C     0.41553   0.22648   0.94438   0.00000  Uiso   1.00
C205   C     0.36463   0.82103   0.86480   0.00000  Uiso   1.00
C206   C     0.28678   0.74009   0.86085   0.00000  Uiso   1.00
C207   C     0.24059   0.72608   0.81949   0.00000  Uiso   1.00
H208   H     0.50567   0.01969   0.81240   0.00000  Uiso   1.00
H209   H     0.65975   0.89015   0.82256   0.00000  Uiso   1.00
H210   H     0.49290   0.26521   0.84512   0.00000  Uiso   1.00
H211   H     0.37289   0.92188   0.75943   0.00000  Uiso   1.00
H212   H     0.81708   0.71805   0.84975   0.00000  Uiso   1.00
H213   H     0.46525   0.50888   0.89731   0.00000  Uiso   1.00
H214   H     0.21218   0.78492   0.71662   0.00000  Uiso   1.00
H215   H     0.40158   0.79993   0.93502   0.00000  Uiso   1.00
H216   H     0.54995   0.65832   0.95191   0.00000  Uiso   1.00
H217   H     0.38311   0.03338   0.97447   0.00000  Uiso   1.00
H218   H     0.26310   0.69006   0.88878   0.00000  Uiso   1.00
H219   H     0.72797   0.52989   0.95473   0.00000  Uiso   1.00
H220   H     0.37614   0.32073   0.00230   0.00000  Uiso   1.00
H221   H     0.12307   0.59676   0.82161   0.00000  Uiso   1.00
O222   O     0.87202   0.53482   0.91114   0.00000  Uiso   1.00
O223   O     0.41042   0.57236   0.97354   0.00000  Uiso   1.00
O224   O     0.07840   0.62253   0.73648   0.00000  Uiso   1.00
N225   N     0.77574   0.69318   0.87213   0.00000  Uiso   1.00
N226   N     0.44682   0.43256   0.91661   0.00000  Uiso   1.00
N227   N     0.21020   0.75575   0.74768   0.00000  Uiso   1.00
N228   N     0.72779   0.59193   0.92862   0.00000  Uiso   1.00
N229   N     0.39886   0.33131   0.97310   0.00000  Uiso   1.00
N230   N     0.16225   0.65450   0.80417   0.00000  Uiso   1.00
C231   C     0.95668   0.23867   0.68755   0.00000  Uiso   1.00
C232   C     0.01513   0.33910   0.66483   0.00000  Uiso   1.00
C233   C     0.10596   0.36827   0.67743   0.00000  Uiso   1.00
C234   C     0.14735   0.46316   0.65236   0.00000  Uiso   1.00
C235   C     0.24539   0.60940   0.62261   0.00000  Uiso   1.00
C236   C     0.91920   0.13454   0.65303   0.00000  Uiso   1.00
C237   C     0.92936   0.99171   0.65571   0.00000  Uiso   1.00
C238   C     0.88999   0.91440   0.62071   0.00000  Uiso   1.00
C239   C     0.83904   0.74305   0.57265   0.00000  Uiso   1.00
C240   C     0.87541   0.32230   0.69891   0.00000  Uiso   1.00
C241   C     0.84874   0.33733   0.74016   0.00000  Uiso   1.00
C242   C     0.77249   0.41809   0.74378   0.00000  Uiso   1.00
C243   C     0.65356   0.53828   0.76695   0.00000  Uiso   1.00
C244   C     0.86868   0.35532   0.62061   0.00000  Uiso   1.00
C245   C     0.96733   0.40245   0.62848   0.00000  Uiso   1.00
C246   C     0.00860   0.49733   0.60338   0.00000  Uiso   1.00
C247   C     0.09947   0.52663   0.61594   0.00000  Uiso   1.00
C248   C     0.87140   0.19789   0.61668   0.00000  Uiso   1.00
C249   C     0.83200   0.12077   0.58166   0.00000  Uiso   1.00
C250   C     0.84211   0.97787   0.58429   0.00000  Uiso   1.00
C251   C     0.82762   0.38567   0.66255   0.00000  Uiso   1.00
C252   C     0.75139   0.46640   0.66611   0.00000  Uiso   1.00
C253   C     0.72461   0.48156   0.70736   0.00000  Uiso   1.00
H254   H     0.99389   0.18934   0.71585   0.00000  Uiso   1.00
H255   H     0.14292   0.31920   0.70557   0.00000  Uiso   1.00
H256   H     0.96634   0.94271   0.68385   0.00000  Uiso   1.00
H257   H     0.88574   0.28829   0.76829   0.00000  Uiso   1.00
H258   H     0.28709   0.49109   0.67813   0.00000  Uiso   1.00
H259   H     0.91473   0.69723   0.63235   0.00000  Uiso   1.00
H260   H     0.74477   0.42594   0.81039   0.00000  Uiso   1.00
H261   H     0.83147   0.40464   0.59231   0.00000  Uiso   1.00
H262   H     0.97159   0.54634   0.57525   0.00000  Uiso   1.00
H263   H     0.79502   0.16983   0.55353   0.00000  Uiso   1.00
H264   H     0.71442   0.51541   0.63797   0.00000  Uiso   1.00
H265   H     0.14803   0.67543   0.57235   0.00000  Uiso   1.00
H266   H     0.77567   0.88157   0.52657   0.00000  Uiso   1.00
H267   H     0.60571   0.61028   0.70462   0.00000  Uiso   1.00
O268   O     0.31268   0.67255   0.61624   0.00000  Uiso   1.00
O269   O     0.82415   0.63104   0.55618   0.00000  Uiso   1.00
O270   O     0.60116   0.58709   0.78977   0.00000  Uiso   1.00
N271   N     0.23513   0.51505   0.65558   0.00000  Uiso   1.00
N272   N     0.88701   0.77284   0.61278   0.00000  Uiso   1.00
N273   N     0.72809   0.45409   0.77923   0.00000  Uiso   1.00
N274   N     0.16030   0.61425   0.59866   0.00000  Uiso   1.00
N275   N     0.81218   0.87203   0.55586   0.00000  Uiso   1.00
N276   N     0.65327   0.55329   0.72232   0.00000  Uiso   1.00
C277   C     0.46217   0.28610   0.65868   0.00000  Uiso   1.00
C278   C     0.39591   0.19089   0.63158   0.00000  Uiso   1.00
C279   C     0.30589   0.16894   0.63790   0.00000  Uiso   1.00
C280   C     0.25654   0.07791   0.60962   0.00000  Uiso   1.00
C281   C     0.14766   0.94025   0.57260   0.00000  Uiso   1.00
C282   C     0.49726   0.38756   0.62675   0.00000  Uiso   1.00
C283   C     0.49247   0.53097   0.62902   0.00000  Uiso   1.00
C284   C     0.52844   0.60550   0.59668   0.00000  Uiso   1.00
C285   C     0.57697   0.77319   0.55219   0.00000  Uiso   1.00
C286   C     0.54296   0.19583   0.67558   0.00000  Uiso   1.00
C287   C     0.57662   0.17805   0.71892   0.00000  Uiso   1.00
C288   C     0.65109   0.09117   0.72769   0.00000  Uiso   1.00
C289   C     0.77058   0.96116   0.75902   0.00000  Uiso   1.00
C290   C     0.53460   0.16347   0.59721   0.00000  Uiso   1.00
C291   C     0.43525   0.12429   0.59819   0.00000  Uiso   1.00
C292   C     0.38602   0.03326   0.56989   0.00000  Uiso   1.00
C293   C     0.29595   0.01118   0.57618   0.00000  Uiso   1.00
C294   C     0.53660   0.32096   0.59336   0.00000  Uiso   1.00
C295   C     0.57260   0.39530   0.56101   0.00000  Uiso   1.00
C296   C     0.56785   0.53878   0.56323   0.00000  Uiso   1.00
C297   C     0.58230   0.12921   0.64220   0.00000  Uiso   1.00
C298   C     0.65674   0.04236   0.65090   0.00000  Uiso   1.00
C299   C     0.69050   0.02444   0.69424   0.00000  Uiso   1.00
H300   H     0.43154   0.33796   0.68467   0.00000  Uiso   1.00
H301   H     0.27547   0.22051   0.66374   0.00000  Uiso   1.00
H302   H     0.46203   0.58248   0.65487   0.00000  Uiso   1.00
H303   H     0.54616   0.22961   0.74474   0.00000  Uiso   1.00
H304   H     0.11977   0.06096   0.62580   0.00000  Uiso   1.00
H305   H     0.51317   0.82420   0.60710   0.00000  Uiso   1.00
H306   H     0.69058   0.08009   0.79662   0.00000  Uiso   1.00
H307   H     0.56522   0.11162   0.57122   0.00000  Uiso   1.00
H308   H     0.41648   0.98173   0.54406   0.00000  Uiso   1.00
H309   H     0.60304   0.34372   0.53518   0.00000  Uiso   1.00
H310   H     0.68717   0.99084   0.62506   0.00000  Uiso   1.00
H311   H     0.23422   0.86716   0.52866   0.00000  Uiso   1.00
H312   H     0.62762   0.63041   0.50996   0.00000  Uiso   1.00
H313   H     0.80503   0.88630   0.69948   0.00000  Uiso   1.00
O314   O     0.07673   0.88274   0.56141   0.00000  Uiso   1.00
O315   O     0.59286   0.88409   0.53687   0.00000  Uiso   1.00
O316   O     0.82561   0.90783   0.78552   0.00000  Uiso   1.00
N317   N     0.16713   0.03315   0.60667   0.00000  Uiso   1.00
N318   N     0.53491   0.74674   0.58918   0.00000  Uiso   1.00
N319   N     0.70079   0.05109   0.76637   0.00000  Uiso   1.00
N320   N     0.22871   0.92887   0.55440   0.00000  Uiso   1.00
N321   N     0.59650   0.64246   0.53691   0.00000  Uiso   1.00
N322   N     0.76237   0.94681   0.71410   0.00000  Uiso   1.00
C323   C     0.00820   0.91208   0.87036   0.00000  Uiso   1.00
C324   C     0.95300   0.00875   0.89609   0.00000  Uiso   1.00
C325   C     0.85980   0.02844   0.88887   0.00000  Uiso   1.00
C326   C     0.82209   0.12135   0.91595   0.00000  Uiso   1.00
C327   C     0.72821   0.26066   0.95088   0.00000  Uiso   1.00
C328   C     0.05854   0.81447   0.90355   0.00000  Uiso   1.00
C329   C     0.05410   0.67083   0.90259   0.00000  Uiso   1.00
C330   C     0.10525   0.60020   0.93595   0.00000  Uiso   1.00
C331   C     0.17527   0.43790   0.98245   0.00000  Uiso   1.00
C332   C     0.08074   0.00207   0.85320   0.00000  Uiso   1.00
C333   C     0.09498   0.01614   0.80991   0.00000  Uiso   1.00
C334   C     0.16484   0.10344   0.80087   0.00000  Uiso   1.00
C335   C     0.26933   0.23241   0.76919   0.00000  Uiso   1.00
C336   C     0.10695   0.04206   0.93130   0.00000  Uiso   1.00
C337   C     0.00664   0.07934   0.92920   0.00000  Uiso   1.00
C338   C     0.96906   0.17225   0.95629   0.00000  Uiso   1.00
C339   C     0.87583   0.19208   0.94911   0.00000  Uiso   1.00
C340   C     0.11218   0.88507   0.93666   0.00000  Uiso   1.00
C341   C     0.16335   0.81464   0.97002   0.00000  Uiso   1.00
C342   C     0.15898   0.67093   0.96911   0.00000  Uiso   1.00
C343   C     0.13438   0.07268   0.88630   0.00000  Uiso   1.00
C344   C     0.20423   0.15996   0.87734   0.00000  Uiso   1.00
C345   C     0.21857   0.17416   0.83404   0.00000  Uiso   1.00
H346   H     0.96645   0.85710   0.84459   0.00000  Uiso   1.00
H347   H     0.81832   0.97377   0.86325   0.00000  Uiso   1.00
H348   H     0.01259   0.61622   0.87697   0.00000  Uiso   1.00
H349   H     0.05346   0.96149   0.78430   0.00000  Uiso   1.00
H350   H     0.67774   0.13422   0.89854   0.00000  Uiso   1.00
H351   H     0.08740   0.38030   0.92747   0.00000  Uiso   1.00
H352   H     0.17358   0.10836   0.73205   0.00000  Uiso   1.00
H353   H     0.14871   0.09703   0.95708   0.00000  Uiso   1.00
H354   H     0.01058   0.22687   0.98191   0.00000  Uiso   1.00
H355   H     0.20485   0.86931   0.99563   0.00000  Uiso   1.00
H356   H     0.24572   0.21458   0.90296   0.00000  Uiso   1.00
H357   H     0.83379   0.33964   0.99485   0.00000  Uiso   1.00
H358   H     0.24345   0.58571   0.02378   0.00000  Uiso   1.00
H359   H     0.32963   0.31378   0.82836   0.00000  Uiso   1.00
O360   O     0.66160   0.31798   0.96101   0.00000  Uiso   1.00
O361   O     0.19907   0.32887   0.99895   0.00000  Uiso   1.00
O362   O     0.31214   0.28407   0.74258   0.00000  Uiso   1.00
N363   N     0.73342   0.16477   0.91779   0.00000  Uiso   1.00
N364   N     0.11642   0.45990   0.94484   0.00000  Uiso   1.00
N365   N     0.19701   0.14054   0.76215   0.00000  Uiso   1.00
N366   N     0.81739   0.27530   0.96962   0.00000  Uiso   1.00
N367   N     0.20039   0.57043   0.99667   0.00000  Uiso   1.00
N368   N     0.28098   0.25108   0.81397   0.00000  Uiso   1.00
