data_job_02034
_audit_creation_date              2018-12-19
_audit_creation_method            'Materials Studio'
_symmetry_space_group_name_H-M    'P1'
_symmetry_Int_Tables_number       1
_symmetry_cell_setting            triclinic
loop_
_symmetry_equiv_pos_as_xyz
  x,y,z
_cell_length_a                    19.1675
_cell_length_b                    16.5854
_cell_length_c                    16.2199
_cell_angle_alpha                 90.0000
_cell_angle_beta                  90.0000
_cell_angle_gamma                 90.0000
loop_
_atom_site_label
_atom_site_type_symbol
_atom_site_fract_x
_atom_site_fract_y
_atom_site_fract_z
_atom_site_U_iso_or_equiv
_atom_site_adp_type
_atom_site_occupancy
C1     C     0.06406   0.81471   0.97302   0.00000  Uiso   1.00
C2     C     0.00067   0.80165   0.02825   0.00000  Uiso   1.00
C3     C     0.94434   0.85368   0.03589   0.00000  Uiso   1.00
C4     C     0.89155   0.83088   0.08967   0.00000  Uiso   1.00
C5     C     0.79261   0.82160   0.16868   0.00000  Uiso   1.00
C6     C     0.12754   0.81058   0.02954   0.00000  Uiso   1.00
C7     C     0.17788   0.87012   0.03827   0.00000  Uiso   1.00
C8     C     0.23189   0.85483   0.09313   0.00000  Uiso   1.00
C9     C     0.32993   0.85940   0.17410   0.00000  Uiso   1.00
C10    C     0.06837   0.74075   0.91742   0.00000  Uiso   1.00
C11    C     0.06899   0.74157   0.83186   0.00000  Uiso   1.00
C12    C     0.07320   0.66748   0.79231   0.00000  Uiso   1.00
C13    C     0.07939   0.56362   0.69919   0.00000  Uiso   1.00
C14    C     0.07048   0.68168   0.05493   0.00000  Uiso   1.00
C15    C     0.00416   0.72939   0.07273   0.00000  Uiso   1.00
C16    C     0.95144   0.70650   0.12651   0.00000  Uiso   1.00
C17    C     0.89504   0.75849   0.13423   0.00000  Uiso   1.00
C18    C     0.13102   0.73833   0.07403   0.00000  Uiso   1.00
C19    C     0.18498   0.72294   0.12888   0.00000  Uiso   1.00
C20    C     0.23538   0.78244   0.13769   0.00000  Uiso   1.00
C21    C     0.07186   0.66849   0.96190   0.00000  Uiso   1.00
C22    C     0.07608   0.59439   0.92248   0.00000  Uiso   1.00
C23    C     0.07670   0.59509   0.83688   0.00000  Uiso   1.00
H24    H     0.06135   0.87096   0.93839   0.00000  Uiso   1.00
H25    H     0.94167   0.90959   0.00146   0.00000  Uiso   1.00
H26    H     0.17517   0.92602   0.00383   0.00000  Uiso   1.00
H27    H     0.06629   0.79749   0.79746   0.00000  Uiso   1.00
H28    H     0.81053   0.92057   0.09102   0.00000  Uiso   1.00
H29    H     0.30289   0.95521   0.09600   0.00000  Uiso   1.00
H30    H     0.07330   0.68417   0.66081   0.00000  Uiso   1.00
H31    H     0.07319   0.62543   0.08956   0.00000  Uiso   1.00
H32    H     0.95415   0.65058   0.16092   0.00000  Uiso   1.00
H33    H     0.18766   0.66702   0.16329   0.00000  Uiso   1.00
H34    H     0.07878   0.53848   0.95692   0.00000  Uiso   1.00
H35    H     0.82066   0.71035   0.22045   0.00000  Uiso   1.00
H36    H     0.31303   0.74498   0.22542   0.00000  Uiso   1.00
H37    H     0.08344   0.47395   0.79025   0.00000  Uiso   1.00
O38    O     0.73708   0.83645   0.19998   0.00000  Uiso   1.00
O39    O     0.38305   0.88189   0.20649   0.00000  Uiso   1.00
O40    O     0.08183   0.52630   0.63554   0.00000  Uiso   1.00
N41    N     0.82924   0.86764   0.11168   0.00000  Uiso   1.00
N42    N     0.28956   0.90002   0.11634   0.00000  Uiso   1.00
N43    N     0.07494   0.64663   0.70948   0.00000  Uiso   1.00
N44    N     0.83469   0.75452   0.18132   0.00000  Uiso   1.00
N45    N     0.29502   0.78690   0.18598   0.00000  Uiso   1.00
N46    N     0.08039   0.53351   0.77912   0.00000  Uiso   1.00
C47    C     0.93776   0.71089   0.55156   0.00000  Uiso   1.00
C48    C     0.00149   0.72504   0.49717   0.00000  Uiso   1.00
C49    C     0.05864   0.67409   0.49045   0.00000  Uiso   1.00
C50    C     0.11162   0.69777   0.43734   0.00000  Uiso   1.00
C51    C     0.21118   0.70876   0.35967   0.00000  Uiso   1.00
C52    C     0.87479   0.71364   0.49416   0.00000  Uiso   1.00
C53    C     0.82542   0.65310   0.48492   0.00000  Uiso   1.00
C54    C     0.77174   0.66720   0.42928   0.00000  Uiso   1.00
C55    C     0.67457   0.66051   0.34698   0.00000  Uiso   1.00
C56    C     0.93182   0.78490   0.60689   0.00000  Uiso   1.00
C57    C     0.93038   0.78429   0.69243   0.00000  Uiso   1.00
C58    C     0.92470   0.85839   0.73170   0.00000  Uiso   1.00
C59    C     0.91608   0.96236   0.82442   0.00000  Uiso   1.00
C60    C     0.93022   0.84356   0.46919   0.00000  Uiso   1.00
C61    C     0.99739   0.79710   0.45243   0.00000  Uiso   1.00
C62    C     0.05030   0.82087   0.39932   0.00000  Uiso   1.00
C63    C     0.10752   0.76996   0.39252   0.00000  Uiso   1.00
C64    C     0.87070   0.78569   0.44942   0.00000  Uiso   1.00
C65    C     0.81707   0.79989   0.39378   0.00000  Uiso   1.00
C66    C     0.76763   0.73939   0.38446   0.00000  Uiso   1.00
C67    C     0.92773   0.85696   0.56215   0.00000  Uiso   1.00
C68    C     0.92204   0.93108   0.60129   0.00000  Uiso   1.00
C69    C     0.92059   0.93058   0.68688   0.00000  Uiso   1.00
H70    H     0.94094   0.65479   0.58639   0.00000  Uiso   1.00
H71    H     0.06178   0.61832   0.52508   0.00000  Uiso   1.00
H72    H     0.82860   0.59735   0.51956   0.00000  Uiso   1.00
H73    H     0.93355   0.72852   0.72704   0.00000  Uiso   1.00
H74    H     0.19394   0.60966   0.43736   0.00000  Uiso   1.00
H75    H     0.70224   0.56545   0.42573   0.00000  Uiso   1.00
H76    H     0.92355   0.84204   0.86324   0.00000  Uiso   1.00
H77    H     0.92703   0.89966   0.43435   0.00000  Uiso   1.00
H78    H     0.04711   0.87664   0.36470   0.00000  Uiso   1.00
H79    H     0.81392   0.85566   0.35917   0.00000  Uiso   1.00
H80    H     0.91887   0.98683   0.56665   0.00000  Uiso   1.00
H81    H     0.18203   0.81931   0.30718   0.00000  Uiso   1.00
H82    H     0.69032   0.77510   0.29556   0.00000  Uiso   1.00
H83    H     0.91164   0.05170   0.73306   0.00000  Uiso   1.00
O84    O     0.26722   0.69491   0.32917   0.00000  Uiso   1.00
O85    O     0.62212   0.63691   0.31393   0.00000  Uiso   1.00
O86    O     0.91247   0.99980   0.88793   0.00000  Uiso   1.00
N87    N     0.17467   0.66217   0.41629   0.00000  Uiso   1.00
N88    N     0.71496   0.62083   0.40541   0.00000  Uiso   1.00
N89    N     0.92184   0.87942   0.81444   0.00000  Uiso   1.00
N90    N     0.16826   0.77498   0.34625   0.00000  Uiso   1.00
N91    N     0.70855   0.73364   0.33537   0.00000  Uiso   1.00
N92    N     0.91544   0.99224   0.74440   0.00000  Uiso   1.00
C93    C     0.93594   0.18529   0.97302   0.00000  Uiso   1.00
C94    C     0.99933   0.19835   0.02825   0.00000  Uiso   1.00
C95    C     0.05566   0.14632   0.03589   0.00000  Uiso   1.00
C96    C     0.10845   0.16912   0.08967   0.00000  Uiso   1.00
C97    C     0.20739   0.17840   0.16868   0.00000  Uiso   1.00
C98    C     0.87246   0.18942   0.02954   0.00000  Uiso   1.00
C99    C     0.82212   0.12988   0.03827   0.00000  Uiso   1.00
C100   C     0.76811   0.14517   0.09313   0.00000  Uiso   1.00
C101   C     0.67007   0.14060   0.17410   0.00000  Uiso   1.00
C102   C     0.93163   0.25925   0.91742   0.00000  Uiso   1.00
C103   C     0.93101   0.25843   0.83186   0.00000  Uiso   1.00
C104   C     0.92680   0.33252   0.79231   0.00000  Uiso   1.00
C105   C     0.92061   0.43638   0.69919   0.00000  Uiso   1.00
C106   C     0.92952   0.31832   0.05493   0.00000  Uiso   1.00
C107   C     0.99584   0.27061   0.07273   0.00000  Uiso   1.00
C108   C     0.04856   0.29350   0.12651   0.00000  Uiso   1.00
C109   C     0.10496   0.24151   0.13423   0.00000  Uiso   1.00
C110   C     0.86898   0.26167   0.07403   0.00000  Uiso   1.00
C111   C     0.81502   0.27706   0.12888   0.00000  Uiso   1.00
C112   C     0.76462   0.21756   0.13769   0.00000  Uiso   1.00
C113   C     0.92814   0.33151   0.96190   0.00000  Uiso   1.00
C114   C     0.92392   0.40561   0.92248   0.00000  Uiso   1.00
C115   C     0.92330   0.40491   0.83688   0.00000  Uiso   1.00
H116   H     0.93865   0.12904   0.93839   0.00000  Uiso   1.00
H117   H     0.05833   0.09041   0.00146   0.00000  Uiso   1.00
H118   H     0.82483   0.07398   0.00383   0.00000  Uiso   1.00
H119   H     0.93371   0.20251   0.79746   0.00000  Uiso   1.00
H120   H     0.18947   0.07943   0.09102   0.00000  Uiso   1.00
H121   H     0.69711   0.04479   0.09600   0.00000  Uiso   1.00
H122   H     0.92670   0.31583   0.66081   0.00000  Uiso   1.00
H123   H     0.92681   0.37457   0.08956   0.00000  Uiso   1.00
H124   H     0.04585   0.34942   0.16092   0.00000  Uiso   1.00
H125   H     0.81234   0.33298   0.16329   0.00000  Uiso   1.00
H126   H     0.92122   0.46152   0.95692   0.00000  Uiso   1.00
H127   H     0.17934   0.28965   0.22045   0.00000  Uiso   1.00
H128   H     0.68697   0.25502   0.22542   0.00000  Uiso   1.00
H129   H     0.91656   0.52605   0.79025   0.00000  Uiso   1.00
O130   O     0.26292   0.16355   0.19998   0.00000  Uiso   1.00
O131   O     0.61695   0.11811   0.20649   0.00000  Uiso   1.00
O132   O     0.91817   0.47370   0.63554   0.00000  Uiso   1.00
N133   N     0.17076   0.13236   0.11168   0.00000  Uiso   1.00
N134   N     0.71044   0.09998   0.11634   0.00000  Uiso   1.00
N135   N     0.92506   0.35337   0.70948   0.00000  Uiso   1.00
N136   N     0.16531   0.24548   0.18132   0.00000  Uiso   1.00
N137   N     0.70498   0.21310   0.18598   0.00000  Uiso   1.00
N138   N     0.91961   0.46649   0.77912   0.00000  Uiso   1.00
C139   C     0.06224   0.28911   0.55156   0.00000  Uiso   1.00
C140   C     0.99851   0.27496   0.49717   0.00000  Uiso   1.00
C141   C     0.94136   0.32591   0.49045   0.00000  Uiso   1.00
C142   C     0.88838   0.30223   0.43734   0.00000  Uiso   1.00
C143   C     0.78882   0.29124   0.35967   0.00000  Uiso   1.00
C144   C     0.12521   0.28636   0.49416   0.00000  Uiso   1.00
C145   C     0.17458   0.34690   0.48492   0.00000  Uiso   1.00
C146   C     0.22826   0.33280   0.42928   0.00000  Uiso   1.00
C147   C     0.32543   0.33949   0.34698   0.00000  Uiso   1.00
C148   C     0.06818   0.21510   0.60689   0.00000  Uiso   1.00
C149   C     0.06962   0.21571   0.69243   0.00000  Uiso   1.00
C150   C     0.07530   0.14161   0.73170   0.00000  Uiso   1.00
C151   C     0.08392   0.03764   0.82442   0.00000  Uiso   1.00
C152   C     0.06978   0.15644   0.46919   0.00000  Uiso   1.00
C153   C     0.00261   0.20290   0.45243   0.00000  Uiso   1.00
C154   C     0.94970   0.17913   0.39932   0.00000  Uiso   1.00
C155   C     0.89248   0.23004   0.39252   0.00000  Uiso   1.00
C156   C     0.12930   0.21431   0.44942   0.00000  Uiso   1.00
C157   C     0.18293   0.20011   0.39378   0.00000  Uiso   1.00
C158   C     0.23237   0.26061   0.38446   0.00000  Uiso   1.00
C159   C     0.07227   0.14304   0.56215   0.00000  Uiso   1.00
C160   C     0.07796   0.06892   0.60129   0.00000  Uiso   1.00
C161   C     0.07941   0.06942   0.68688   0.00000  Uiso   1.00
H162   H     0.05906   0.34521   0.58639   0.00000  Uiso   1.00
H163   H     0.93822   0.38168   0.52508   0.00000  Uiso   1.00
H164   H     0.17140   0.40265   0.51956   0.00000  Uiso   1.00
H165   H     0.06645   0.27148   0.72704   0.00000  Uiso   1.00
H166   H     0.80606   0.39034   0.43736   0.00000  Uiso   1.00
H167   H     0.29776   0.43455   0.42573   0.00000  Uiso   1.00
H168   H     0.07645   0.15796   0.86324   0.00000  Uiso   1.00
H169   H     0.07297   0.10034   0.43435   0.00000  Uiso   1.00
H170   H     0.95289   0.12336   0.36470   0.00000  Uiso   1.00
H171   H     0.18608   0.14434   0.35917   0.00000  Uiso   1.00
H172   H     0.08113   0.01317   0.56665   0.00000  Uiso   1.00
H173   H     0.81797   0.18069   0.30718   0.00000  Uiso   1.00
H174   H     0.30968   0.22490   0.29556   0.00000  Uiso   1.00
H175   H     0.08836   0.94830   0.73306   0.00000  Uiso   1.00
O176   O     0.73278   0.30509   0.32917   0.00000  Uiso   1.00
O177   O     0.37788   0.36309   0.31393   0.00000  Uiso   1.00
O178   O     0.08753   0.00020   0.88793   0.00000  Uiso   1.00
N179   N     0.82533   0.33783   0.41629   0.00000  Uiso   1.00
N180   N     0.28504   0.37917   0.40541   0.00000  Uiso   1.00
N181   N     0.07816   0.12058   0.81444   0.00000  Uiso   1.00
N182   N     0.83174   0.22502   0.34625   0.00000  Uiso   1.00
N183   N     0.29145   0.26636   0.33537   0.00000  Uiso   1.00
N184   N     0.08456   0.00776   0.74440   0.00000  Uiso   1.00
C185   C     0.43594   0.31471   0.02698   0.00000  Uiso   1.00
C186   C     0.49933   0.30165   0.97175   0.00000  Uiso   1.00
C187   C     0.55566   0.35368   0.96411   0.00000  Uiso   1.00
C188   C     0.60845   0.33088   0.91033   0.00000  Uiso   1.00
C189   C     0.70739   0.32160   0.83132   0.00000  Uiso   1.00
C190   C     0.37246   0.31058   0.97046   0.00000  Uiso   1.00
C191   C     0.32212   0.37012   0.96173   0.00000  Uiso   1.00
C192   C     0.26811   0.35483   0.90687   0.00000  Uiso   1.00
C193   C     0.17007   0.35940   0.82590   0.00000  Uiso   1.00
C194   C     0.43163   0.24075   0.08258   0.00000  Uiso   1.00
C195   C     0.43101   0.24157   0.16814   0.00000  Uiso   1.00
C196   C     0.42680   0.16748   0.20769   0.00000  Uiso   1.00
C197   C     0.42061   0.06362   0.30081   0.00000  Uiso   1.00
C198   C     0.42952   0.18168   0.94507   0.00000  Uiso   1.00
C199   C     0.49584   0.22939   0.92727   0.00000  Uiso   1.00
C200   C     0.54856   0.20650   0.87349   0.00000  Uiso   1.00
C201   C     0.60496   0.25849   0.86577   0.00000  Uiso   1.00
C202   C     0.36898   0.23833   0.92597   0.00000  Uiso   1.00
C203   C     0.31502   0.22294   0.87112   0.00000  Uiso   1.00
C204   C     0.26462   0.28244   0.86231   0.00000  Uiso   1.00
C205   C     0.42814   0.16849   0.03810   0.00000  Uiso   1.00
C206   C     0.42392   0.09439   0.07752   0.00000  Uiso   1.00
C207   C     0.42330   0.09509   0.16312   0.00000  Uiso   1.00
H208   H     0.43865   0.37096   0.06161   0.00000  Uiso   1.00
H209   H     0.55833   0.40959   0.99854   0.00000  Uiso   1.00
H210   H     0.32483   0.42602   0.99617   0.00000  Uiso   1.00
H211   H     0.43371   0.29749   0.20254   0.00000  Uiso   1.00
H212   H     0.68947   0.42057   0.90898   0.00000  Uiso   1.00
H213   H     0.19711   0.45521   0.90400   0.00000  Uiso   1.00
H214   H     0.42670   0.18417   0.33919   0.00000  Uiso   1.00
H215   H     0.42681   0.12543   0.91044   0.00000  Uiso   1.00
H216   H     0.54585   0.15058   0.83908   0.00000  Uiso   1.00
H217   H     0.31234   0.16702   0.83671   0.00000  Uiso   1.00
H218   H     0.42122   0.03848   0.04308   0.00000  Uiso   1.00
H219   H     0.67934   0.21035   0.77955   0.00000  Uiso   1.00
H220   H     0.18697   0.24498   0.77458   0.00000  Uiso   1.00
H221   H     0.41656   0.97395   0.20975   0.00000  Uiso   1.00
O222   O     0.76292   0.33645   0.80002   0.00000  Uiso   1.00
O223   O     0.11695   0.38189   0.79351   0.00000  Uiso   1.00
O224   O     0.41817   0.02630   0.36446   0.00000  Uiso   1.00
N225   N     0.67076   0.36764   0.88832   0.00000  Uiso   1.00
N226   N     0.21044   0.40002   0.88366   0.00000  Uiso   1.00
N227   N     0.42506   0.14663   0.29052   0.00000  Uiso   1.00
N228   N     0.66531   0.25452   0.81868   0.00000  Uiso   1.00
N229   N     0.20498   0.28690   0.81402   0.00000  Uiso   1.00
N230   N     0.41961   0.03351   0.22088   0.00000  Uiso   1.00
C231   C     0.56224   0.21089   0.44844   0.00000  Uiso   1.00
C232   C     0.49851   0.22504   0.50283   0.00000  Uiso   1.00
C233   C     0.44136   0.17409   0.50955   0.00000  Uiso   1.00
C234   C     0.38838   0.19777   0.56266   0.00000  Uiso   1.00
C235   C     0.28882   0.20876   0.64033   0.00000  Uiso   1.00
C236   C     0.62521   0.21364   0.50584   0.00000  Uiso   1.00
C237   C     0.67458   0.15310   0.51508   0.00000  Uiso   1.00
C238   C     0.72826   0.16720   0.57072   0.00000  Uiso   1.00
C239   C     0.82543   0.16051   0.65302   0.00000  Uiso   1.00
C240   C     0.56818   0.28490   0.39311   0.00000  Uiso   1.00
C241   C     0.56962   0.28429   0.30757   0.00000  Uiso   1.00
C242   C     0.57530   0.35839   0.26830   0.00000  Uiso   1.00
C243   C     0.58392   0.46236   0.17558   0.00000  Uiso   1.00
C244   C     0.56978   0.34356   0.53081   0.00000  Uiso   1.00
C245   C     0.50261   0.29710   0.54757   0.00000  Uiso   1.00
C246   C     0.44970   0.32087   0.60068   0.00000  Uiso   1.00
C247   C     0.39248   0.26996   0.60748   0.00000  Uiso   1.00
C248   C     0.62930   0.28569   0.55058   0.00000  Uiso   1.00
C249   C     0.68293   0.29989   0.60622   0.00000  Uiso   1.00
C250   C     0.73237   0.23939   0.61554   0.00000  Uiso   1.00
C251   C     0.57227   0.35696   0.43785   0.00000  Uiso   1.00
C252   C     0.57796   0.43108   0.39871   0.00000  Uiso   1.00
C253   C     0.57941   0.43058   0.31312   0.00000  Uiso   1.00
H254   H     0.55906   0.15479   0.41361   0.00000  Uiso   1.00
H255   H     0.43822   0.11832   0.47492   0.00000  Uiso   1.00
H256   H     0.67140   0.09735   0.48044   0.00000  Uiso   1.00
H257   H     0.56645   0.22852   0.27296   0.00000  Uiso   1.00
H258   H     0.30606   0.10966   0.56264   0.00000  Uiso   1.00
H259   H     0.79776   0.06545   0.57427   0.00000  Uiso   1.00
H260   H     0.57645   0.34204   0.13676   0.00000  Uiso   1.00
H261   H     0.57297   0.39966   0.56565   0.00000  Uiso   1.00
H262   H     0.45289   0.37664   0.63530   0.00000  Uiso   1.00
H263   H     0.68608   0.35566   0.64083   0.00000  Uiso   1.00
H264   H     0.58113   0.48683   0.43335   0.00000  Uiso   1.00
H265   H     0.31797   0.31931   0.69282   0.00000  Uiso   1.00
H266   H     0.80968   0.27510   0.70444   0.00000  Uiso   1.00
H267   H     0.58836   0.55170   0.26694   0.00000  Uiso   1.00
O268   O     0.23278   0.19491   0.67083   0.00000  Uiso   1.00
O269   O     0.87788   0.13691   0.68607   0.00000  Uiso   1.00
O270   O     0.58753   0.49980   0.11207   0.00000  Uiso   1.00
N271   N     0.32533   0.16217   0.58371   0.00000  Uiso   1.00
N272   N     0.78504   0.12083   0.59459   0.00000  Uiso   1.00
N273   N     0.57816   0.37942   0.18556   0.00000  Uiso   1.00
N274   N     0.33174   0.27498   0.65375   0.00000  Uiso   1.00
N275   N     0.79145   0.23364   0.66463   0.00000  Uiso   1.00
N276   N     0.58456   0.49224   0.25560   0.00000  Uiso   1.00
C277   C     0.56406   0.68529   0.02698   0.00000  Uiso   1.00
C278   C     0.50067   0.69835   0.97175   0.00000  Uiso   1.00
C279   C     0.44434   0.64632   0.96411   0.00000  Uiso   1.00
C280   C     0.39155   0.66912   0.91033   0.00000  Uiso   1.00
C281   C     0.29261   0.67840   0.83132   0.00000  Uiso   1.00
C282   C     0.62754   0.68942   0.97046   0.00000  Uiso   1.00
C283   C     0.67788   0.62988   0.96173   0.00000  Uiso   1.00
C284   C     0.73189   0.64517   0.90687   0.00000  Uiso   1.00
C285   C     0.82993   0.64060   0.82590   0.00000  Uiso   1.00
C286   C     0.56837   0.75925   0.08258   0.00000  Uiso   1.00
C287   C     0.56899   0.75843   0.16814   0.00000  Uiso   1.00
C288   C     0.57320   0.83252   0.20769   0.00000  Uiso   1.00
C289   C     0.57939   0.93638   0.30081   0.00000  Uiso   1.00
C290   C     0.57048   0.81832   0.94507   0.00000  Uiso   1.00
C291   C     0.50416   0.77061   0.92727   0.00000  Uiso   1.00
C292   C     0.45144   0.79350   0.87349   0.00000  Uiso   1.00
C293   C     0.39504   0.74151   0.86577   0.00000  Uiso   1.00
C294   C     0.63102   0.76167   0.92597   0.00000  Uiso   1.00
C295   C     0.68498   0.77706   0.87112   0.00000  Uiso   1.00
C296   C     0.73538   0.71756   0.86231   0.00000  Uiso   1.00
C297   C     0.57186   0.83151   0.03810   0.00000  Uiso   1.00
C298   C     0.57608   0.90561   0.07752   0.00000  Uiso   1.00
C299   C     0.57670   0.90491   0.16312   0.00000  Uiso   1.00
H300   H     0.56135   0.62904   0.06161   0.00000  Uiso   1.00
H301   H     0.44167   0.59041   0.99854   0.00000  Uiso   1.00
H302   H     0.67517   0.57398   0.99617   0.00000  Uiso   1.00
H303   H     0.56629   0.70251   0.20254   0.00000  Uiso   1.00
H304   H     0.31053   0.57943   0.90898   0.00000  Uiso   1.00
H305   H     0.80289   0.54479   0.90400   0.00000  Uiso   1.00
H306   H     0.57330   0.81583   0.33919   0.00000  Uiso   1.00
H307   H     0.57319   0.87457   0.91044   0.00000  Uiso   1.00
H308   H     0.45415   0.84942   0.83908   0.00000  Uiso   1.00
H309   H     0.68766   0.83298   0.83671   0.00000  Uiso   1.00
H310   H     0.57878   0.96152   0.04308   0.00000  Uiso   1.00
H311   H     0.32066   0.78965   0.77955   0.00000  Uiso   1.00
H312   H     0.81303   0.75502   0.77458   0.00000  Uiso   1.00
H313   H     0.58344   0.02605   0.20975   0.00000  Uiso   1.00
O314   O     0.23708   0.66355   0.80002   0.00000  Uiso   1.00
O315   O     0.88305   0.61811   0.79351   0.00000  Uiso   1.00
O316   O     0.58183   0.97370   0.36446   0.00000  Uiso   1.00
N317   N     0.32924   0.63236   0.88832   0.00000  Uiso   1.00
N318   N     0.78956   0.59998   0.88366   0.00000  Uiso   1.00
N319   N     0.57494   0.85337   0.29052   0.00000  Uiso   1.00
N320   N     0.33469   0.74548   0.81868   0.00000  Uiso   1.00
N321   N     0.79502   0.71310   0.81402   0.00000  Uiso   1.00
N322   N     0.58039   0.96649   0.22088   0.00000  Uiso   1.00
C323   C     0.43776   0.78911   0.44844   0.00000  Uiso   1.00
C324   C     0.50149   0.77496   0.50283   0.00000  Uiso   1.00
C325   C     0.55864   0.82591   0.50955   0.00000  Uiso   1.00
C326   C     0.61162   0.80223   0.56266   0.00000  Uiso   1.00
C327   C     0.71118   0.79124   0.64033   0.00000  Uiso   1.00
C328   C     0.37479   0.78636   0.50584   0.00000  Uiso   1.00
C329   C     0.32542   0.84690   0.51508   0.00000  Uiso   1.00
C330   C     0.27174   0.83280   0.57072   0.00000  Uiso   1.00
C331   C     0.17457   0.83949   0.65302   0.00000  Uiso   1.00
C332   C     0.43182   0.71510   0.39311   0.00000  Uiso   1.00
C333   C     0.43038   0.71571   0.30757   0.00000  Uiso   1.00
C334   C     0.42470   0.64161   0.26830   0.00000  Uiso   1.00
C335   C     0.41608   0.53764   0.17558   0.00000  Uiso   1.00
C336   C     0.43022   0.65644   0.53081   0.00000  Uiso   1.00
C337   C     0.49739   0.70290   0.54757   0.00000  Uiso   1.00
C338   C     0.55030   0.67913   0.60068   0.00000  Uiso   1.00
C339   C     0.60752   0.73004   0.60748   0.00000  Uiso   1.00
C340   C     0.37070   0.71431   0.55058   0.00000  Uiso   1.00
C341   C     0.31707   0.70011   0.60622   0.00000  Uiso   1.00
C342   C     0.26763   0.76061   0.61554   0.00000  Uiso   1.00
C343   C     0.42773   0.64304   0.43785   0.00000  Uiso   1.00
C344   C     0.42204   0.56892   0.39871   0.00000  Uiso   1.00
C345   C     0.42059   0.56942   0.31312   0.00000  Uiso   1.00
H346   H     0.44094   0.84521   0.41361   0.00000  Uiso   1.00
H347   H     0.56178   0.88168   0.47492   0.00000  Uiso   1.00
H348   H     0.32860   0.90265   0.48044   0.00000  Uiso   1.00
H349   H     0.43355   0.77148   0.27296   0.00000  Uiso   1.00
H350   H     0.69394   0.89034   0.56264   0.00000  Uiso   1.00
H351   H     0.20224   0.93455   0.57427   0.00000  Uiso   1.00
H352   H     0.42355   0.65796   0.13676   0.00000  Uiso   1.00
H353   H     0.42703   0.60034   0.56565   0.00000  Uiso   1.00
H354   H     0.54711   0.62336   0.63530   0.00000  Uiso   1.00
H355   H     0.31392   0.64434   0.64083   0.00000  Uiso   1.00
H356   H     0.41887   0.51317   0.43335   0.00000  Uiso   1.00
H357   H     0.68203   0.68069   0.69282   0.00000  Uiso   1.00
H358   H     0.19032   0.72490   0.70444   0.00000  Uiso   1.00
H359   H     0.41164   0.44830   0.26694   0.00000  Uiso   1.00
O360   O     0.76722   0.80509   0.67083   0.00000  Uiso   1.00
O361   O     0.12212   0.86309   0.68607   0.00000  Uiso   1.00
O362   O     0.41247   0.50020   0.11207   0.00000  Uiso   1.00
N363   N     0.67467   0.83783   0.58371   0.00000  Uiso   1.00
N364   N     0.21496   0.87917   0.59459   0.00000  Uiso   1.00
N365   N     0.42184   0.62058   0.18556   0.00000  Uiso   1.00
N366   N     0.66826   0.72502   0.65375   0.00000  Uiso   1.00
N367   N     0.20855   0.76636   0.66463   0.00000  Uiso   1.00
N368   N     0.41544   0.50776   0.25560   0.00000  Uiso   1.00
