data_job_05920
_audit_creation_date              2018-12-19
_audit_creation_method            'Materials Studio'
_symmetry_space_group_name_H-M    'P1'
_symmetry_Int_Tables_number       1
_symmetry_cell_setting            triclinic
loop_
_symmetry_equiv_pos_as_xyz
  x,y,z
_cell_length_a                    15.9705
_cell_length_b                    15.5230
_cell_length_c                    14.0785
_cell_angle_alpha                 95.8294
_cell_angle_beta                  96.1929
_cell_angle_gamma                 93.4848
loop_
_atom_site_label
_atom_site_type_symbol
_atom_site_fract_x
_atom_site_fract_y
_atom_site_fract_z
_atom_site_U_iso_or_equiv
_atom_site_adp_type
_atom_site_occupancy
C1     C     0.20248   0.86732   0.52273   0.00000  Uiso   1.00
C2     C     0.20472   0.96053   0.49727   0.00000  Uiso   1.00
C3     C     0.15864   0.98941   0.41888   0.00000  Uiso   1.00
C4     C     0.16953   0.07716   0.40812   0.00000  Uiso   1.00
C5     C     0.16466   0.21326   0.35862   0.00000  Uiso   1.00
C6     C     0.29352   0.84200   0.52837   0.00000  Uiso   1.00
C7     C     0.32209   0.77120   0.47613   0.00000  Uiso   1.00
C8     C     0.40773   0.75917   0.49156   0.00000  Uiso   1.00
C9     C     0.54072   0.71120   0.49039   0.00000  Uiso   1.00
C10    C     0.17862   0.87103   0.62499   0.00000  Uiso   1.00
C11    C     0.11060   0.82463   0.65400   0.00000  Uiso   1.00
C12    C     0.09951   0.83702   0.75078   0.00000  Uiso   1.00
C13    C     0.05410   0.83413   0.89962   0.00000  Uiso   1.00
C14    C     0.30375   0.97182   0.64303   0.00000  Uiso   1.00
C15    C     0.25973   0.01729   0.56261   0.00000  Uiso   1.00
C16    C     0.27069   0.10503   0.55197   0.00000  Uiso   1.00
C17    C     0.22463   0.13403   0.47357   0.00000  Uiso   1.00
C18    C     0.34852   0.89876   0.59371   0.00000  Uiso   1.00
C19    C     0.43414   0.88682   0.60922   0.00000  Uiso   1.00
C20    C     0.46284   0.81603   0.55701   0.00000  Uiso   1.00
C21    C     0.23362   0.92779   0.69033   0.00000  Uiso   1.00
C22    C     0.22264   0.94025   0.78709   0.00000  Uiso   1.00
C23    C     0.15462   0.89388   0.81624   0.00000  Uiso   1.00
H24    H     0.15966   0.82312   0.47186   0.00000  Uiso   1.00
H25    H     0.11608   0.94546   0.36832   0.00000  Uiso   1.00
H26    H     0.27951   0.72728   0.42558   0.00000  Uiso   1.00
H27    H     0.06805   0.78071   0.60341   0.00000  Uiso   1.00
H28    H     0.09205   0.10612   0.28233   0.00000  Uiso   1.00
H29    H     0.43664   0.64606   0.40307   0.00000  Uiso   1.00
H30    H     0.99073   0.75871   0.77808   0.00000  Uiso   1.00
H31    H     0.34658   0.01601   0.69390   0.00000  Uiso   1.00
H32    H     0.31326   0.14894   0.60255   0.00000  Uiso   1.00
H33    H     0.47669   0.93076   0.65980   0.00000  Uiso   1.00
H34    H     0.26522   0.98418   0.83763   0.00000  Uiso   1.00
H35    H     0.25209   0.27127   0.47243   0.00000  Uiso   1.00
H36    H     0.59667   0.81121   0.59317   0.00000  Uiso   1.00
H37    H     0.15076   0.92387   0.96818   0.00000  Uiso   1.00
O38    O     0.14680   0.27265   0.31326   0.00000  Uiso   1.00
O39    O     0.59887   0.66907   0.47168   0.00000  Uiso   1.00
O40    O     0.01385   0.81687   0.96367   0.00000  Uiso   1.00
N41    N     0.13427   0.12675   0.33961   0.00000  Uiso   1.00
N42    N     0.45645   0.69663   0.45249   0.00000  Uiso   1.00
N43    N     0.03957   0.80193   0.80309   0.00000  Uiso   1.00
N44    N     0.22039   0.21561   0.44191   0.00000  Uiso   1.00
N45    N     0.54256   0.78550   0.55478   0.00000  Uiso   1.00
N46    N     0.12568   0.89080   0.90539   0.00000  Uiso   1.00
C47    C     0.53520   0.19972   0.85254   0.00000  Uiso   1.00
C48    C     0.51119   0.20329   0.95473   0.00000  Uiso   1.00
C49    C     0.44308   0.15688   0.98353   0.00000  Uiso   1.00
C50    C     0.43184   0.16915   0.08027   0.00000  Uiso   1.00
C51    C     0.38618   0.16610   0.22897   0.00000  Uiso   1.00
C52    C     0.53750   0.29300   0.82726   0.00000  Uiso   1.00
C53    C     0.49152   0.32201   0.74888   0.00000  Uiso   1.00
C54    C     0.50244   0.40980   0.73831   0.00000  Uiso   1.00
C55    C     0.49768   0.54601   0.68908   0.00000  Uiso   1.00
C56    C     0.62622   0.17439   0.85826   0.00000  Uiso   1.00
C57    C     0.65485   0.10368   0.80592   0.00000  Uiso   1.00
C58    C     0.74048   0.09163   0.82144   0.00000  Uiso   1.00
C59    C     0.87347   0.04368   0.82034   0.00000  Uiso   1.00
C60    C     0.63636   0.30406   0.97314   0.00000  Uiso   1.00
C61    C     0.56614   0.25996   0.02023   0.00000  Uiso   1.00
C62    C     0.55500   0.27231   0.11696   0.00000  Uiso   1.00
C63    C     0.48689   0.22592   0.14589   0.00000  Uiso   1.00
C64    C     0.59245   0.34967   0.89276   0.00000  Uiso   1.00
C65    C     0.60345   0.43744   0.88231   0.00000  Uiso   1.00
C66    C     0.55749   0.46657   0.80393   0.00000  Uiso   1.00
C67    C     0.68118   0.23106   0.92377   0.00000  Uiso   1.00
C68    C     0.76678   0.21911   0.93936   0.00000  Uiso   1.00
C69    C     0.79553   0.14840   0.88706   0.00000  Uiso   1.00
H70    H     0.49242   0.15561   0.80154   0.00000  Uiso   1.00
H71    H     0.40056   0.11303   0.93281   0.00000  Uiso   1.00
H72    H     0.44901   0.27813   0.69820   0.00000  Uiso   1.00
H73    H     0.61231   0.05984   0.75524   0.00000  Uiso   1.00
H74    H     0.32294   0.09084   0.10724   0.00000  Uiso   1.00
H75    H     0.42511   0.43897   0.61252   0.00000  Uiso   1.00
H76    H     0.76947   0.97866   0.73280   0.00000  Uiso   1.00
H77    H     0.67915   0.34818   0.02414   0.00000  Uiso   1.00
H78    H     0.59754   0.31617   0.16763   0.00000  Uiso   1.00
H79    H     0.64598   0.48127   0.93301   0.00000  Uiso   1.00
H80    H     0.80928   0.26298   0.99006   0.00000  Uiso   1.00
H81    H     0.48281   0.25572   0.29782   0.00000  Uiso   1.00
H82    H     0.58498   0.60385   0.80310   0.00000  Uiso   1.00
H83    H     0.92934   0.14353   0.92339   0.00000  Uiso   1.00
O84    O     0.34580   0.14877   0.29290   0.00000  Uiso   1.00
O85    O     0.47986   0.60549   0.64384   0.00000  Uiso   1.00
O86    O     0.93165   0.00157   0.80165   0.00000  Uiso   1.00
N87    N     0.37177   0.13403   0.13240   0.00000  Uiso   1.00
N88    N     0.46728   0.45951   0.66988   0.00000  Uiso   1.00
N89    N     0.78924   0.02917   0.78231   0.00000  Uiso   1.00
N90    N     0.45780   0.22275   0.23495   0.00000  Uiso   1.00
N91    N     0.55331   0.54822   0.77243   0.00000  Uiso   1.00
N92    N     0.87526   0.11788   0.88486   0.00000  Uiso   1.00
C93    C     0.87073   0.53416   0.18810   0.00000  Uiso   1.00
C94    C     0.96171   0.50868   0.19366   0.00000  Uiso   1.00
C95    C     0.99015   0.43788   0.14130   0.00000  Uiso   1.00
C96    C     0.07575   0.42567   0.15668   0.00000  Uiso   1.00
C97    C     0.20863   0.37747   0.15540   0.00000  Uiso   1.00
C98    C     0.84688   0.53780   0.29037   0.00000  Uiso   1.00
C99    C     0.77877   0.49149   0.31931   0.00000  Uiso   1.00
C100   C     0.76770   0.50380   0.41610   0.00000  Uiso   1.00
C101   C     0.72227   0.50085   0.56494   0.00000  Uiso   1.00
C102   C     0.87311   0.62743   0.16281   0.00000  Uiso   1.00
C103   C     0.82704   0.65649   0.08453   0.00000  Uiso   1.00
C104   C     0.83804   0.74428   0.07394   0.00000  Uiso   1.00
C105   C     0.83333   0.88050   0.02473   0.00000  Uiso   1.00
C106   C     0.97217   0.63839   0.30852   0.00000  Uiso   1.00
C107   C     0.01680   0.56529   0.25907   0.00000  Uiso   1.00
C108   C     0.10238   0.55319   0.27453   0.00000  Uiso   1.00
C109   C     0.13095   0.48238   0.22220   0.00000  Uiso   1.00
C110   C     0.90197   0.59440   0.35577   0.00000  Uiso   1.00
C111   C     0.89100   0.60680   0.45254   0.00000  Uiso   1.00
C112   C     0.82290   0.56051   0.48163   0.00000  Uiso   1.00
C113   C     0.92821   0.68404   0.22822   0.00000  Uiso   1.00
C114   C     0.93927   0.77180   0.21775   0.00000  Uiso   1.00
C115   C     0.89323   0.80099   0.13946   0.00000  Uiso   1.00
H116   H     0.82783   0.49009   0.13719   0.00000  Uiso   1.00
H117   H     0.94749   0.39408   0.09070   0.00000  Uiso   1.00
H118   H     0.73614   0.44769   0.26868   0.00000  Uiso   1.00
H119   H     0.78440   0.61267   0.03393   0.00000  Uiso   1.00
H120   H     0.10445   0.31258   0.06803   0.00000  Uiso   1.00
H121   H     0.65879   0.42564   0.44331   0.00000  Uiso   1.00
H122   H     0.76056   0.77353   0.94829   0.00000  Uiso   1.00
H123   H     0.01506   0.68246   0.35945   0.00000  Uiso   1.00
H124   H     0.14500   0.59701   0.32515   0.00000  Uiso   1.00
H125   H     0.93365   0.65061   0.50313   0.00000  Uiso   1.00
H126   H     0.98192   0.81559   0.26838   0.00000  Uiso   1.00
H127   H     0.26476   0.47728   0.25832   0.00000  Uiso   1.00
H128   H     0.81909   0.59034   0.63360   0.00000  Uiso   1.00
H129   H     0.92087   0.93823   0.13858   0.00000  Uiso   1.00
O130   O     0.26670   0.33523   0.13663   0.00000  Uiso   1.00
O131   O     0.68200   0.48357   0.62897   0.00000  Uiso   1.00
O132   O     0.81553   0.93999   0.97952   0.00000  Uiso   1.00
N133   N     0.12435   0.36308   0.11751   0.00000  Uiso   1.00
N134   N     0.70769   0.46877   0.46837   0.00000  Uiso   1.00
N135   N     0.80282   0.79403   0.00558   0.00000  Uiso   1.00
N136   N     0.21061   0.45171   0.21990   0.00000  Uiso   1.00
N137   N     0.79395   0.55740   0.57076   0.00000  Uiso   1.00
N138   N     0.88908   0.88265   0.10798   0.00000  Uiso   1.00
C139   C     0.79752   0.13268   0.47727   0.00000  Uiso   1.00
C140   C     0.79528   0.03947   0.50273   0.00000  Uiso   1.00
C141   C     0.84136   0.01059   0.58112   0.00000  Uiso   1.00
C142   C     0.83047   0.92284   0.59188   0.00000  Uiso   1.00
C143   C     0.83533   0.78674   0.64138   0.00000  Uiso   1.00
C144   C     0.70648   0.15800   0.47163   0.00000  Uiso   1.00
C145   C     0.67791   0.22880   0.52387   0.00000  Uiso   1.00
C146   C     0.59227   0.24083   0.50844   0.00000  Uiso   1.00
C147   C     0.45928   0.28880   0.50961   0.00000  Uiso   1.00
C148   C     0.82138   0.12897   0.37501   0.00000  Uiso   1.00
C149   C     0.88940   0.17537   0.34600   0.00000  Uiso   1.00
C150   C     0.90049   0.16298   0.24922   0.00000  Uiso   1.00
C151   C     0.94590   0.16587   0.10038   0.00000  Uiso   1.00
C152   C     0.69625   0.02818   0.35697   0.00000  Uiso   1.00
C153   C     0.74027   0.98271   0.43739   0.00000  Uiso   1.00
C154   C     0.72931   0.89497   0.44803   0.00000  Uiso   1.00
C155   C     0.77537   0.86597   0.52642   0.00000  Uiso   1.00
C156   C     0.65147   0.10124   0.40629   0.00000  Uiso   1.00
C157   C     0.56586   0.11318   0.39078   0.00000  Uiso   1.00
C158   C     0.53716   0.18397   0.44299   0.00000  Uiso   1.00
C159   C     0.76638   0.07221   0.30967   0.00000  Uiso   1.00
C160   C     0.77736   0.05975   0.21291   0.00000  Uiso   1.00
C161   C     0.84538   0.10612   0.18376   0.00000  Uiso   1.00
H162   H     0.84034   0.17688   0.52814   0.00000  Uiso   1.00
H163   H     0.88392   0.05454   0.63168   0.00000  Uiso   1.00
H164   H     0.72049   0.27272   0.57442   0.00000  Uiso   1.00
H165   H     0.93195   0.21929   0.39659   0.00000  Uiso   1.00
H166   H     0.90795   0.89388   0.71767   0.00000  Uiso   1.00
H167   H     0.56336   0.35394   0.59693   0.00000  Uiso   1.00
H168   H     0.00927   0.24128   0.22192   0.00000  Uiso   1.00
H169   H     0.65342   0.98399   0.30610   0.00000  Uiso   1.00
H170   H     0.68674   0.85106   0.39745   0.00000  Uiso   1.00
H171   H     0.52331   0.06924   0.34020   0.00000  Uiso   1.00
H172   H     0.73478   0.01582   0.16237   0.00000  Uiso   1.00
H173   H     0.74791   0.72873   0.52757   0.00000  Uiso   1.00
H174   H     0.40333   0.18879   0.40683   0.00000  Uiso   1.00
H175   H     0.84924   0.07613   0.03182   0.00000  Uiso   1.00
O176   O     0.85320   0.72735   0.68674   0.00000  Uiso   1.00
O177   O     0.40113   0.33093   0.52832   0.00000  Uiso   1.00
O178   O     0.98615   0.18313   0.03633   0.00000  Uiso   1.00
N179   N     0.86572   0.87325   0.66039   0.00000  Uiso   1.00
N180   N     0.54355   0.30337   0.54751   0.00000  Uiso   1.00
N181   N     0.96043   0.19807   0.19691   0.00000  Uiso   1.00
N182   N     0.77961   0.78439   0.55809   0.00000  Uiso   1.00
N183   N     0.45744   0.21450   0.44522   0.00000  Uiso   1.00
N184   N     0.87432   0.10920   0.09461   0.00000  Uiso   1.00
C185   C     0.46480   0.80028   0.14746   0.00000  Uiso   1.00
C186   C     0.48881   0.79671   0.04527   0.00000  Uiso   1.00
C187   C     0.55692   0.84312   0.01647   0.00000  Uiso   1.00
C188   C     0.56816   0.83085   0.91973   0.00000  Uiso   1.00
C189   C     0.61382   0.83390   0.77102   0.00000  Uiso   1.00
C190   C     0.46250   0.70700   0.17273   0.00000  Uiso   1.00
C191   C     0.50848   0.67799   0.25112   0.00000  Uiso   1.00
C192   C     0.49756   0.59020   0.26169   0.00000  Uiso   1.00
C193   C     0.50232   0.45399   0.31092   0.00000  Uiso   1.00
C194   C     0.37378   0.82561   0.14174   0.00000  Uiso   1.00
C195   C     0.34515   0.89632   0.19408   0.00000  Uiso   1.00
C196   C     0.25952   0.90837   0.17856   0.00000  Uiso   1.00
C197   C     0.12653   0.95632   0.17966   0.00000  Uiso   1.00
C198   C     0.36364   0.69594   0.02686   0.00000  Uiso   1.00
C199   C     0.43386   0.74004   0.97977   0.00000  Uiso   1.00
C200   C     0.44499   0.72769   0.88304   0.00000  Uiso   1.00
C201   C     0.51311   0.77408   0.85411   0.00000  Uiso   1.00
C202   C     0.40755   0.65033   0.10724   0.00000  Uiso   1.00
C203   C     0.39655   0.56256   0.11769   0.00000  Uiso   1.00
C204   C     0.44251   0.53342   0.19607   0.00000  Uiso   1.00
C205   C     0.31882   0.76894   0.07623   0.00000  Uiso   1.00
C206   C     0.23322   0.78088   0.06064   0.00000  Uiso   1.00
C207   C     0.20447   0.85160   0.11294   0.00000  Uiso   1.00
H208   H     0.50758   0.84439   0.19846   0.00000  Uiso   1.00
H209   H     0.59944   0.88697   0.06719   0.00000  Uiso   1.00
H210   H     0.55099   0.72187   0.30180   0.00000  Uiso   1.00
H211   H     0.38769   0.94016   0.24476   0.00000  Uiso   1.00
H212   H     0.67706   0.90915   0.89276   0.00000  Uiso   1.00
H213   H     0.57489   0.56103   0.38748   0.00000  Uiso   1.00
H214   H     0.23053   0.02134   0.26720   0.00000  Uiso   1.00
H215   H     0.32085   0.65182   0.97586   0.00000  Uiso   1.00
H216   H     0.40246   0.68383   0.83237   0.00000  Uiso   1.00
H217   H     0.35402   0.51873   0.06699   0.00000  Uiso   1.00
H218   H     0.19072   0.73702   0.00994   0.00000  Uiso   1.00
H219   H     0.51719   0.74428   0.70218   0.00000  Uiso   1.00
H220   H     0.41502   0.39615   0.19690   0.00000  Uiso   1.00
H221   H     0.07066   0.85647   0.07661   0.00000  Uiso   1.00
O222   O     0.65420   0.85123   0.70710   0.00000  Uiso   1.00
O223   O     0.52014   0.39451   0.35616   0.00000  Uiso   1.00
O224   O     0.06835   0.99843   0.19835   0.00000  Uiso   1.00
N225   N     0.62823   0.86597   0.86760   0.00000  Uiso   1.00
N226   N     0.53272   0.54049   0.33012   0.00000  Uiso   1.00
N227   N     0.21076   0.97083   0.21769   0.00000  Uiso   1.00
N228   N     0.54220   0.77725   0.76505   0.00000  Uiso   1.00
N229   N     0.44669   0.45178   0.22757   0.00000  Uiso   1.00
N230   N     0.12474   0.88212   0.11513   0.00000  Uiso   1.00
C231   C     0.12927   0.46584   0.81190   0.00000  Uiso   1.00
C232   C     0.03829   0.49132   0.80634   0.00000  Uiso   1.00
C233   C     0.00985   0.56212   0.85870   0.00000  Uiso   1.00
C234   C     0.92425   0.57433   0.84331   0.00000  Uiso   1.00
C235   C     0.79137   0.62253   0.84460   0.00000  Uiso   1.00
C236   C     0.15312   0.46220   0.70963   0.00000  Uiso   1.00
C237   C     0.22123   0.50851   0.68069   0.00000  Uiso   1.00
C238   C     0.23230   0.49620   0.58390   0.00000  Uiso   1.00
C239   C     0.27773   0.49915   0.43506   0.00000  Uiso   1.00
C240   C     0.12689   0.37257   0.83719   0.00000  Uiso   1.00
C241   C     0.17296   0.34351   0.91547   0.00000  Uiso   1.00
C242   C     0.16196   0.25572   0.92606   0.00000  Uiso   1.00
C243   C     0.16667   0.11950   0.97527   0.00000  Uiso   1.00
C244   C     0.02783   0.36161   0.69148   0.00000  Uiso   1.00
C245   C     0.98320   0.43471   0.74093   0.00000  Uiso   1.00
C246   C     0.89762   0.44681   0.72547   0.00000  Uiso   1.00
C247   C     0.86905   0.51762   0.77780   0.00000  Uiso   1.00
C248   C     0.09803   0.40560   0.64423   0.00000  Uiso   1.00
C249   C     0.10900   0.39320   0.54746   0.00000  Uiso   1.00
C250   C     0.17710   0.43949   0.51837   0.00000  Uiso   1.00
C251   C     0.07179   0.31596   0.77178   0.00000  Uiso   1.00
C252   C     0.06073   0.22820   0.78225   0.00000  Uiso   1.00
C253   C     0.10677   0.19901   0.86054   0.00000  Uiso   1.00
H254   H     0.17217   0.50991   0.86281   0.00000  Uiso   1.00
H255   H     0.05251   0.60592   0.90930   0.00000  Uiso   1.00
H256   H     0.26386   0.55231   0.73132   0.00000  Uiso   1.00
H257   H     0.21560   0.38733   0.96607   0.00000  Uiso   1.00
H258   H     0.89555   0.68742   0.93197   0.00000  Uiso   1.00
H259   H     0.34121   0.57436   0.55669   0.00000  Uiso   1.00
H260   H     0.23944   0.22647   0.05171   0.00000  Uiso   1.00
H261   H     0.98494   0.31754   0.64055   0.00000  Uiso   1.00
H262   H     0.85499   0.40299   0.67485   0.00000  Uiso   1.00
H263   H     0.06635   0.34939   0.49687   0.00000  Uiso   1.00
H264   H     0.01808   0.18441   0.73162   0.00000  Uiso   1.00
H265   H     0.73524   0.52272   0.74168   0.00000  Uiso   1.00
H266   H     0.18091   0.40966   0.36640   0.00000  Uiso   1.00
H267   H     0.07913   0.06177   0.86142   0.00000  Uiso   1.00
O268   O     0.73330   0.66477   0.86337   0.00000  Uiso   1.00
O269   O     0.31800   0.51643   0.37103   0.00000  Uiso   1.00
O270   O     0.18447   0.06001   0.02048   0.00000  Uiso   1.00
N271   N     0.87565   0.63692   0.88249   0.00000  Uiso   1.00
N272   N     0.29231   0.53123   0.53163   0.00000  Uiso   1.00
N273   N     0.19718   0.20597   0.99442   0.00000  Uiso   1.00
N274   N     0.78939   0.54829   0.78010   0.00000  Uiso   1.00
N275   N     0.20605   0.44260   0.42923   0.00000  Uiso   1.00
N276   N     0.11092   0.11735   0.89202   0.00000  Uiso   1.00
