data_job_04723
_audit_creation_date              2018-12-19
_audit_creation_method            'Materials Studio'
_symmetry_space_group_name_H-M    'P1'
_symmetry_Int_Tables_number       1
_symmetry_cell_setting            triclinic
loop_
_symmetry_equiv_pos_as_xyz
  x,y,z
_cell_length_a                    22.4374
_cell_length_b                    20.7002
_cell_length_c                    24.5676
_cell_angle_alpha                 90.0000
_cell_angle_beta                  147.8503
_cell_angle_gamma                 90.0000
loop_
_atom_site_label
_atom_site_type_symbol
_atom_site_fract_x
_atom_site_fract_y
_atom_site_fract_z
_atom_site_U_iso_or_equiv
_atom_site_adp_type
_atom_site_occupancy
C1     C     0.95536   0.19627   0.55423   0.00000  Uiso   1.00
C2     C     0.83091   0.18038   0.46193   0.00000  Uiso   1.00
C3     C     0.78553   0.11900   0.43234   0.00000  Uiso   1.00
C4     C     0.66965   0.11462   0.34562   0.00000  Uiso   1.00
C5     C     0.48675   0.08157   0.21065   0.00000  Uiso   1.00
C6     C     0.97006   0.23385   0.51270   0.00000  Uiso   1.00
C7     C     0.04170   0.21744   0.52581   0.00000  Uiso   1.00
C8     C     0.04297   0.25809   0.48184   0.00000  Uiso   1.00
C9     C     0.07616   0.30808   0.42575   0.00000  Uiso   1.00
C10    C     0.97936   0.24404   0.61858   0.00000  Uiso   1.00
C11    C     0.05884   0.23621   0.72072   0.00000  Uiso   1.00
C12    C     0.06796   0.28544   0.76590   0.00000  Uiso   1.00
C13    C     0.11559   0.35125   0.87420   0.00000  Uiso   1.00
C14    C     0.83024   0.29764   0.45284   0.00000  Uiso   1.00
C15    C     0.76295   0.23544   0.40686   0.00000  Uiso   1.00
C16    C     0.64711   0.23115   0.32016   0.00000  Uiso   1.00
C17    C     0.60157   0.16978   0.29045   0.00000  Uiso   1.00
C18    C     0.90211   0.28891   0.45763   0.00000  Uiso   1.00
C19    C     0.90327   0.32959   0.41363   0.00000  Uiso   1.00
C20    C     0.97489   0.31325   0.42666   0.00000  Uiso   1.00
C21    C     0.91140   0.29910   0.56351   0.00000  Uiso   1.00
C22    C     0.92041   0.34835   0.60854   0.00000  Uiso   1.00
C23    C     0.99988   0.34059   0.71073   0.00000  Uiso   1.00
H24    H     0.00827   0.15340   0.59711   0.00000  Uiso   1.00
H25    H     0.83815   0.07640   0.47498   0.00000  Uiso   1.00
H26    H     0.09429   0.17483   0.56844   0.00000  Uiso   1.00
H27    H     0.11142   0.19359   0.76332   0.00000  Uiso   1.00
H28    H     0.61958   0.01531   0.31527   0.00000  Uiso   1.00
H29    H     0.15968   0.22287   0.51236   0.00000  Uiso   1.00
H30    H     0.19581   0.26243   0.92331   0.00000  Uiso   1.00
H31    H     0.77733   0.34050   0.40996   0.00000  Uiso   1.00
H32    H     0.59454   0.27377   0.27756   0.00000  Uiso   1.00
H33    H     0.85067   0.37220   0.37102   0.00000  Uiso   1.00
H34    H     0.86780   0.39095   0.56590   0.00000  Uiso   1.00
H35    H     0.42185   0.17550   0.15503   0.00000  Uiso   1.00
H36    H     0.96196   0.38306   0.35213   0.00000  Uiso   1.00
H37    H     0.99808   0.42261   0.76307   0.00000  Uiso   1.00
O38    O     0.40463   0.04813   0.15141   0.00000  Uiso   1.00
O39    O     0.11324   0.32044   0.41001   0.00000  Uiso   1.00
O40    O     0.16063   0.37233   0.94915   0.00000  Uiso   1.00
N41    N     0.59813   0.06217   0.29574   0.00000  Uiso   1.00
N42    N     0.10308   0.25622   0.48000   0.00000  Uiso   1.00
N43    N     0.13688   0.29321   0.86420   0.00000  Uiso   1.00
N44    N     0.49173   0.14837   0.20952   0.00000  Uiso   1.00
N45    N     0.99668   0.34242   0.39378   0.00000  Uiso   1.00
N46    N     0.03048   0.37941   0.77798   0.00000  Uiso   1.00
C47    C     0.66410   0.27929   0.53680   0.00000  Uiso   1.00
C48    C     0.59301   0.30266   0.43417   0.00000  Uiso   1.00
C49    C     0.60503   0.36127   0.41666   0.00000  Uiso   1.00
C50    C     0.53171   0.37364   0.31736   0.00000  Uiso   1.00
C51    C     0.43381   0.41673   0.16999   0.00000  Uiso   1.00
C52    C     0.58226   0.26434   0.51947   0.00000  Uiso   1.00
C53    C     0.58525   0.29072   0.57370   0.00000  Uiso   1.00
C54    C     0.50289   0.27083   0.54621   0.00000  Uiso   1.00
C55    C     0.38835   0.25439   0.53132   0.00000  Uiso   1.00
C56    C     0.71315   0.21452   0.55724   0.00000  Uiso   1.00
C57    C     0.82619   0.19901   0.64323   0.00000  Uiso   1.00
C58    C     0.85403   0.13716   0.64755   0.00000  Uiso   1.00
C59    C     0.94271   0.04338   0.69131   0.00000  Uiso   1.00
C60    C     0.51252   0.19705   0.39158   0.00000  Uiso   1.00
C61    C     0.51068   0.25799   0.35529   0.00000  Uiso   1.00
C62    C     0.43732   0.27027   0.25599   0.00000  Uiso   1.00
C63    C     0.44923   0.32889   0.23834   0.00000  Uiso   1.00
C64    C     0.49993   0.21967   0.44060   0.00000  Uiso   1.00
C65    C     0.41754   0.19973   0.41303   0.00000  Uiso   1.00
C66    C     0.42040   0.22607   0.46719   0.00000  Uiso   1.00
C67    C     0.63082   0.16985   0.47836   0.00000  Uiso   1.00
C68    C     0.65848   0.10801   0.48255   0.00000  Uiso   1.00
C69    C     0.77154   0.09241   0.56853   0.00000  Uiso   1.00
H70    H     0.72820   0.31407   0.59821   0.00000  Uiso   1.00
H71    H     0.66875   0.39583   0.47772   0.00000  Uiso   1.00
H72    H     0.64898   0.32529   0.63474   0.00000  Uiso   1.00
H73    H     0.88988   0.23359   0.70426   0.00000  Uiso   1.00
H74    H     0.56650   0.46678   0.30934   0.00000  Uiso   1.00
H75    H     0.52485   0.31802   0.64045   0.00000  Uiso   1.00
H76    H     0.03284   0.12466   0.78704   0.00000  Uiso   1.00
H77    H     0.44842   0.16227   0.33017   0.00000  Uiso   1.00
H78    H     0.37361   0.23569   0.19496   0.00000  Uiso   1.00
H79    H     0.35385   0.16515   0.35199   0.00000  Uiso   1.00
H80    H     0.59475   0.07346   0.42150   0.00000  Uiso   1.00
H81    H     0.32696   0.33681   0.07985   0.00000  Uiso   1.00
H82    H     0.28530   0.18805   0.41096   0.00000  Uiso   1.00
H83    H     0.79329   0.99469   0.55755   0.00000  Uiso   1.00
O84    O     0.40255   0.45285   0.11049   0.00000  Uiso   1.00
O85    O     0.34791   0.25767   0.54490   0.00000  Uiso   1.00
O86    O     0.01438   0.00399   0.73722   0.00000  Uiso   1.00
N87    N     0.52041   0.42611   0.27389   0.00000  Uiso   1.00
N88    N     0.48145   0.28704   0.58344   0.00000  Uiso   1.00
N89    N     0.95637   0.10625   0.72051   0.00000  Uiso   1.00
N90    N     0.39151   0.35617   0.15040   0.00000  Uiso   1.00
N91    N     0.35255   0.21710   0.45995   0.00000  Uiso   1.00
N92    N     0.82748   0.03632   0.59702   0.00000  Uiso   1.00
C93    C     0.04464   0.69627   0.94577   0.00000  Uiso   1.00
C94    C     0.16909   0.68038   0.03807   0.00000  Uiso   1.00
C95    C     0.21447   0.61900   0.06766   0.00000  Uiso   1.00
C96    C     0.33035   0.61462   0.15438   0.00000  Uiso   1.00
C97    C     0.51325   0.58157   0.28935   0.00000  Uiso   1.00
C98    C     0.02994   0.73385   0.98730   0.00000  Uiso   1.00
C99    C     0.95830   0.71744   0.97419   0.00000  Uiso   1.00
C100   C     0.95703   0.75809   0.01816   0.00000  Uiso   1.00
C101   C     0.92384   0.80808   0.07425   0.00000  Uiso   1.00
C102   C     0.02064   0.74404   0.88142   0.00000  Uiso   1.00
C103   C     0.94116   0.73621   0.77928   0.00000  Uiso   1.00
C104   C     0.93204   0.78544   0.73410   0.00000  Uiso   1.00
C105   C     0.88441   0.85125   0.62580   0.00000  Uiso   1.00
C106   C     0.16976   0.79764   0.04716   0.00000  Uiso   1.00
C107   C     0.23705   0.73544   0.09314   0.00000  Uiso   1.00
C108   C     0.35289   0.73115   0.17984   0.00000  Uiso   1.00
C109   C     0.39843   0.66978   0.20955   0.00000  Uiso   1.00
C110   C     0.09789   0.78891   0.04237   0.00000  Uiso   1.00
C111   C     0.09673   0.82959   0.08637   0.00000  Uiso   1.00
C112   C     0.02511   0.81325   0.07334   0.00000  Uiso   1.00
C113   C     0.08860   0.79910   0.93649   0.00000  Uiso   1.00
C114   C     0.07959   0.84835   0.89146   0.00000  Uiso   1.00
C115   C     0.00012   0.84059   0.78927   0.00000  Uiso   1.00
H116   H     0.99173   0.65340   0.90289   0.00000  Uiso   1.00
H117   H     0.16185   0.57640   0.02502   0.00000  Uiso   1.00
H118   H     0.90571   0.67483   0.93156   0.00000  Uiso   1.00
H119   H     0.88858   0.69359   0.73668   0.00000  Uiso   1.00
H120   H     0.38042   0.51531   0.18473   0.00000  Uiso   1.00
H121   H     0.84032   0.72287   0.98764   0.00000  Uiso   1.00
H122   H     0.80419   0.76243   0.57669   0.00000  Uiso   1.00
H123   H     0.22267   0.84050   0.09004   0.00000  Uiso   1.00
H124   H     0.40546   0.77377   0.22244   0.00000  Uiso   1.00
H125   H     0.14933   0.87220   0.12898   0.00000  Uiso   1.00
H126   H     0.13220   0.89095   0.93410   0.00000  Uiso   1.00
H127   H     0.57815   0.67550   0.34497   0.00000  Uiso   1.00
H128   H     0.03804   0.88306   0.14787   0.00000  Uiso   1.00
H129   H     0.00192   0.92261   0.73693   0.00000  Uiso   1.00
O130   O     0.59537   0.54813   0.34859   0.00000  Uiso   1.00
O131   O     0.88676   0.82044   0.08999   0.00000  Uiso   1.00
O132   O     0.83937   0.87233   0.55085   0.00000  Uiso   1.00
N133   N     0.40187   0.56217   0.20426   0.00000  Uiso   1.00
N134   N     0.89692   0.75622   0.02000   0.00000  Uiso   1.00
N135   N     0.86312   0.79321   0.63580   0.00000  Uiso   1.00
N136   N     0.50827   0.64837   0.29048   0.00000  Uiso   1.00
N137   N     0.00332   0.84242   0.10622   0.00000  Uiso   1.00
N138   N     0.96952   0.87941   0.72202   0.00000  Uiso   1.00
C139   C     0.33590   0.77929   0.96320   0.00000  Uiso   1.00
C140   C     0.40699   0.80266   0.06583   0.00000  Uiso   1.00
C141   C     0.39497   0.86127   0.08334   0.00000  Uiso   1.00
C142   C     0.46829   0.87364   0.18264   0.00000  Uiso   1.00
C143   C     0.56619   0.91673   0.33001   0.00000  Uiso   1.00
C144   C     0.41774   0.76434   0.98053   0.00000  Uiso   1.00
C145   C     0.41475   0.79072   0.92630   0.00000  Uiso   1.00
C146   C     0.49711   0.77083   0.95379   0.00000  Uiso   1.00
C147   C     0.61165   0.75439   0.96868   0.00000  Uiso   1.00
C148   C     0.28685   0.71452   0.94276   0.00000  Uiso   1.00
C149   C     0.17381   0.69901   0.85677   0.00000  Uiso   1.00
C150   C     0.14597   0.63716   0.85245   0.00000  Uiso   1.00
C151   C     0.05729   0.54338   0.80869   0.00000  Uiso   1.00
C152   C     0.48748   0.69705   0.10842   0.00000  Uiso   1.00
C153   C     0.48932   0.75799   0.14471   0.00000  Uiso   1.00
C154   C     0.56268   0.77027   0.24401   0.00000  Uiso   1.00
C155   C     0.55077   0.82889   0.26166   0.00000  Uiso   1.00
C156   C     0.50007   0.71967   0.05940   0.00000  Uiso   1.00
C157   C     0.58246   0.69973   0.08697   0.00000  Uiso   1.00
C158   C     0.57960   0.72607   0.03281   0.00000  Uiso   1.00
C159   C     0.36918   0.66985   0.02164   0.00000  Uiso   1.00
C160   C     0.34152   0.60801   0.01745   0.00000  Uiso   1.00
C161   C     0.22846   0.59241   0.93147   0.00000  Uiso   1.00
H162   H     0.27180   0.81407   0.90179   0.00000  Uiso   1.00
H163   H     0.33125   0.89583   0.02228   0.00000  Uiso   1.00
H164   H     0.35102   0.82529   0.86526   0.00000  Uiso   1.00
H165   H     0.11012   0.73359   0.79574   0.00000  Uiso   1.00
H166   H     0.43350   0.96678   0.19066   0.00000  Uiso   1.00
H167   H     0.47515   0.81802   0.85955   0.00000  Uiso   1.00
H168   H     0.96716   0.62466   0.71296   0.00000  Uiso   1.00
H169   H     0.55158   0.66227   0.16983   0.00000  Uiso   1.00
H170   H     0.62639   0.73569   0.30504   0.00000  Uiso   1.00
H171   H     0.64615   0.66515   0.14801   0.00000  Uiso   1.00
H172   H     0.40525   0.57346   0.07850   0.00000  Uiso   1.00
H173   H     0.67304   0.83681   0.42015   0.00000  Uiso   1.00
H174   H     0.71470   0.68805   0.08904   0.00000  Uiso   1.00
H175   H     0.20671   0.49469   0.94245   0.00000  Uiso   1.00
O176   O     0.59745   0.95285   0.38951   0.00000  Uiso   1.00
O177   O     0.65209   0.75767   0.95510   0.00000  Uiso   1.00
O178   O     0.98562   0.50399   0.76278   0.00000  Uiso   1.00
N179   N     0.47959   0.92611   0.22611   0.00000  Uiso   1.00
N180   N     0.51855   0.78704   0.91656   0.00000  Uiso   1.00
N181   N     0.04363   0.60625   0.77949   0.00000  Uiso   1.00
N182   N     0.60849   0.85617   0.34960   0.00000  Uiso   1.00
N183   N     0.64745   0.71710   0.04005   0.00000  Uiso   1.00
N184   N     0.17252   0.53632   0.90298   0.00000  Uiso   1.00
C185   C     0.04464   0.80373   0.44577   0.00000  Uiso   1.00
C186   C     0.16909   0.81962   0.53807   0.00000  Uiso   1.00
C187   C     0.21447   0.88100   0.56766   0.00000  Uiso   1.00
C188   C     0.33035   0.88538   0.65438   0.00000  Uiso   1.00
C189   C     0.51325   0.91843   0.78935   0.00000  Uiso   1.00
C190   C     0.02994   0.76615   0.48730   0.00000  Uiso   1.00
C191   C     0.95830   0.78256   0.47419   0.00000  Uiso   1.00
C192   C     0.95703   0.74191   0.51816   0.00000  Uiso   1.00
C193   C     0.92384   0.69192   0.57425   0.00000  Uiso   1.00
C194   C     0.02064   0.75596   0.38142   0.00000  Uiso   1.00
C195   C     0.94116   0.76379   0.27928   0.00000  Uiso   1.00
C196   C     0.93204   0.71456   0.23410   0.00000  Uiso   1.00
C197   C     0.88441   0.64875   0.12580   0.00000  Uiso   1.00
C198   C     0.16976   0.70236   0.54716   0.00000  Uiso   1.00
C199   C     0.23705   0.76456   0.59314   0.00000  Uiso   1.00
C200   C     0.35289   0.76885   0.67984   0.00000  Uiso   1.00
C201   C     0.39843   0.83022   0.70955   0.00000  Uiso   1.00
C202   C     0.09789   0.71109   0.54237   0.00000  Uiso   1.00
C203   C     0.09673   0.67041   0.58637   0.00000  Uiso   1.00
C204   C     0.02511   0.68675   0.57334   0.00000  Uiso   1.00
C205   C     0.08860   0.70090   0.43649   0.00000  Uiso   1.00
C206   C     0.07959   0.65165   0.39146   0.00000  Uiso   1.00
C207   C     0.00012   0.65941   0.28927   0.00000  Uiso   1.00
H208   H     0.99173   0.84660   0.40289   0.00000  Uiso   1.00
H209   H     0.16185   0.92360   0.52502   0.00000  Uiso   1.00
H210   H     0.90571   0.82517   0.43156   0.00000  Uiso   1.00
H211   H     0.88858   0.80641   0.23668   0.00000  Uiso   1.00
H212   H     0.38042   0.98469   0.68473   0.00000  Uiso   1.00
H213   H     0.84032   0.77713   0.48764   0.00000  Uiso   1.00
H214   H     0.80419   0.73757   0.07669   0.00000  Uiso   1.00
H215   H     0.22267   0.65950   0.59004   0.00000  Uiso   1.00
H216   H     0.40546   0.72623   0.72244   0.00000  Uiso   1.00
H217   H     0.14933   0.62780   0.62898   0.00000  Uiso   1.00
H218   H     0.13220   0.60905   0.43410   0.00000  Uiso   1.00
H219   H     0.57815   0.82450   0.84497   0.00000  Uiso   1.00
H220   H     0.03804   0.61694   0.64787   0.00000  Uiso   1.00
H221   H     0.00192   0.57739   0.23693   0.00000  Uiso   1.00
O222   O     0.59537   0.95187   0.84859   0.00000  Uiso   1.00
O223   O     0.88676   0.67956   0.58999   0.00000  Uiso   1.00
O224   O     0.83937   0.62767   0.05085   0.00000  Uiso   1.00
N225   N     0.40187   0.93783   0.70426   0.00000  Uiso   1.00
N226   N     0.89692   0.74378   0.52000   0.00000  Uiso   1.00
N227   N     0.86312   0.70679   0.13580   0.00000  Uiso   1.00
N228   N     0.50827   0.85163   0.79048   0.00000  Uiso   1.00
N229   N     0.00332   0.65758   0.60622   0.00000  Uiso   1.00
N230   N     0.96952   0.62059   0.22202   0.00000  Uiso   1.00
C231   C     0.33590   0.72071   0.46320   0.00000  Uiso   1.00
C232   C     0.40699   0.69734   0.56583   0.00000  Uiso   1.00
C233   C     0.39497   0.63873   0.58334   0.00000  Uiso   1.00
C234   C     0.46829   0.62636   0.68264   0.00000  Uiso   1.00
C235   C     0.56619   0.58327   0.83001   0.00000  Uiso   1.00
C236   C     0.41774   0.73566   0.48053   0.00000  Uiso   1.00
C237   C     0.41475   0.70928   0.42630   0.00000  Uiso   1.00
C238   C     0.49711   0.72917   0.45379   0.00000  Uiso   1.00
C239   C     0.61165   0.74561   0.46868   0.00000  Uiso   1.00
C240   C     0.28685   0.78548   0.44276   0.00000  Uiso   1.00
C241   C     0.17381   0.80099   0.35677   0.00000  Uiso   1.00
C242   C     0.14597   0.86284   0.35245   0.00000  Uiso   1.00
C243   C     0.05729   0.95662   0.30869   0.00000  Uiso   1.00
C244   C     0.48748   0.80295   0.60842   0.00000  Uiso   1.00
C245   C     0.48932   0.74201   0.64471   0.00000  Uiso   1.00
C246   C     0.56268   0.72973   0.74401   0.00000  Uiso   1.00
C247   C     0.55077   0.67111   0.76166   0.00000  Uiso   1.00
C248   C     0.50007   0.78033   0.55940   0.00000  Uiso   1.00
C249   C     0.58246   0.80027   0.58697   0.00000  Uiso   1.00
C250   C     0.57960   0.77393   0.53281   0.00000  Uiso   1.00
C251   C     0.36918   0.83015   0.52164   0.00000  Uiso   1.00
C252   C     0.34152   0.89199   0.51745   0.00000  Uiso   1.00
C253   C     0.22846   0.90759   0.43147   0.00000  Uiso   1.00
H254   H     0.27180   0.68593   0.40179   0.00000  Uiso   1.00
H255   H     0.33125   0.60417   0.52228   0.00000  Uiso   1.00
H256   H     0.35102   0.67471   0.36526   0.00000  Uiso   1.00
H257   H     0.11012   0.76641   0.29574   0.00000  Uiso   1.00
H258   H     0.43350   0.53322   0.69066   0.00000  Uiso   1.00
H259   H     0.47515   0.68198   0.35955   0.00000  Uiso   1.00
H260   H     0.96716   0.87534   0.21296   0.00000  Uiso   1.00
H261   H     0.55158   0.83773   0.66983   0.00000  Uiso   1.00
H262   H     0.62639   0.76431   0.80504   0.00000  Uiso   1.00
H263   H     0.64615   0.83485   0.64801   0.00000  Uiso   1.00
H264   H     0.40525   0.92654   0.57850   0.00000  Uiso   1.00
H265   H     0.67304   0.66319   0.92015   0.00000  Uiso   1.00
H266   H     0.71470   0.81195   0.58904   0.00000  Uiso   1.00
H267   H     0.20671   0.00531   0.44245   0.00000  Uiso   1.00
O268   O     0.59745   0.54715   0.88951   0.00000  Uiso   1.00
O269   O     0.65209   0.74233   0.45510   0.00000  Uiso   1.00
O270   O     0.98562   0.99601   0.26278   0.00000  Uiso   1.00
N271   N     0.47959   0.57389   0.72611   0.00000  Uiso   1.00
N272   N     0.51855   0.71296   0.41656   0.00000  Uiso   1.00
N273   N     0.04363   0.89375   0.27949   0.00000  Uiso   1.00
N274   N     0.60849   0.64383   0.84960   0.00000  Uiso   1.00
N275   N     0.64745   0.78290   0.54005   0.00000  Uiso   1.00
N276   N     0.17252   0.96368   0.40298   0.00000  Uiso   1.00
C277   C     0.95536   0.30373   0.05423   0.00000  Uiso   1.00
C278   C     0.83091   0.31962   0.96193   0.00000  Uiso   1.00
C279   C     0.78553   0.38100   0.93234   0.00000  Uiso   1.00
C280   C     0.66965   0.38538   0.84562   0.00000  Uiso   1.00
C281   C     0.48675   0.41843   0.71065   0.00000  Uiso   1.00
C282   C     0.97006   0.26615   0.01270   0.00000  Uiso   1.00
C283   C     0.04170   0.28256   0.02581   0.00000  Uiso   1.00
C284   C     0.04297   0.24191   0.98184   0.00000  Uiso   1.00
C285   C     0.07616   0.19192   0.92575   0.00000  Uiso   1.00
C286   C     0.97936   0.25596   0.11858   0.00000  Uiso   1.00
C287   C     0.05884   0.26379   0.22072   0.00000  Uiso   1.00
C288   C     0.06796   0.21456   0.26590   0.00000  Uiso   1.00
C289   C     0.11559   0.14875   0.37420   0.00000  Uiso   1.00
C290   C     0.83024   0.20236   0.95284   0.00000  Uiso   1.00
C291   C     0.76295   0.26456   0.90686   0.00000  Uiso   1.00
C292   C     0.64711   0.26885   0.82016   0.00000  Uiso   1.00
C293   C     0.60157   0.33022   0.79045   0.00000  Uiso   1.00
C294   C     0.90211   0.21109   0.95763   0.00000  Uiso   1.00
C295   C     0.90327   0.17041   0.91363   0.00000  Uiso   1.00
C296   C     0.97489   0.18675   0.92666   0.00000  Uiso   1.00
C297   C     0.91140   0.20090   0.06351   0.00000  Uiso   1.00
C298   C     0.92041   0.15165   0.10854   0.00000  Uiso   1.00
C299   C     0.99988   0.15941   0.21073   0.00000  Uiso   1.00
H300   H     0.00827   0.34660   0.09711   0.00000  Uiso   1.00
H301   H     0.83815   0.42360   0.97498   0.00000  Uiso   1.00
H302   H     0.09429   0.32517   0.06844   0.00000  Uiso   1.00
H303   H     0.11142   0.30641   0.26332   0.00000  Uiso   1.00
H304   H     0.61958   0.48469   0.81527   0.00000  Uiso   1.00
H305   H     0.15968   0.27713   0.01236   0.00000  Uiso   1.00
H306   H     0.19581   0.23757   0.42331   0.00000  Uiso   1.00
H307   H     0.77733   0.15950   0.90996   0.00000  Uiso   1.00
H308   H     0.59454   0.22623   0.77756   0.00000  Uiso   1.00
H309   H     0.85067   0.12780   0.87102   0.00000  Uiso   1.00
H310   H     0.86780   0.10905   0.06590   0.00000  Uiso   1.00
H311   H     0.42185   0.32450   0.65503   0.00000  Uiso   1.00
H312   H     0.96196   0.11694   0.85213   0.00000  Uiso   1.00
H313   H     0.99808   0.07739   0.26307   0.00000  Uiso   1.00
O314   O     0.40463   0.45187   0.65141   0.00000  Uiso   1.00
O315   O     0.11324   0.17956   0.91001   0.00000  Uiso   1.00
O316   O     0.16063   0.12767   0.44915   0.00000  Uiso   1.00
N317   N     0.59813   0.43783   0.79574   0.00000  Uiso   1.00
N318   N     0.10308   0.24378   0.98000   0.00000  Uiso   1.00
N319   N     0.13688   0.20679   0.36420   0.00000  Uiso   1.00
N320   N     0.49173   0.35163   0.70952   0.00000  Uiso   1.00
N321   N     0.99668   0.15758   0.89378   0.00000  Uiso   1.00
N322   N     0.03048   0.12059   0.27798   0.00000  Uiso   1.00
C323   C     0.66410   0.22071   0.03680   0.00000  Uiso   1.00
C324   C     0.59301   0.19734   0.93417   0.00000  Uiso   1.00
C325   C     0.60503   0.13873   0.91666   0.00000  Uiso   1.00
C326   C     0.53171   0.12636   0.81736   0.00000  Uiso   1.00
C327   C     0.43381   0.08327   0.66999   0.00000  Uiso   1.00
C328   C     0.58226   0.23566   0.01947   0.00000  Uiso   1.00
C329   C     0.58525   0.20928   0.07370   0.00000  Uiso   1.00
C330   C     0.50289   0.22917   0.04621   0.00000  Uiso   1.00
C331   C     0.38835   0.24561   0.03132   0.00000  Uiso   1.00
C332   C     0.71315   0.28548   0.05724   0.00000  Uiso   1.00
C333   C     0.82619   0.30099   0.14323   0.00000  Uiso   1.00
C334   C     0.85403   0.36284   0.14755   0.00000  Uiso   1.00
C335   C     0.94271   0.45662   0.19131   0.00000  Uiso   1.00
C336   C     0.51252   0.30295   0.89158   0.00000  Uiso   1.00
C337   C     0.51068   0.24201   0.85529   0.00000  Uiso   1.00
C338   C     0.43732   0.22973   0.75599   0.00000  Uiso   1.00
C339   C     0.44923   0.17111   0.73834   0.00000  Uiso   1.00
C340   C     0.49993   0.28033   0.94060   0.00000  Uiso   1.00
C341   C     0.41754   0.30027   0.91303   0.00000  Uiso   1.00
C342   C     0.42040   0.27393   0.96719   0.00000  Uiso   1.00
C343   C     0.63082   0.33015   0.97836   0.00000  Uiso   1.00
C344   C     0.65848   0.39199   0.98255   0.00000  Uiso   1.00
C345   C     0.77154   0.40759   0.06853   0.00000  Uiso   1.00
H346   H     0.72820   0.18593   0.09821   0.00000  Uiso   1.00
H347   H     0.66875   0.10417   0.97772   0.00000  Uiso   1.00
H348   H     0.64898   0.17471   0.13474   0.00000  Uiso   1.00
H349   H     0.88988   0.26641   0.20426   0.00000  Uiso   1.00
H350   H     0.56650   0.03322   0.80934   0.00000  Uiso   1.00
H351   H     0.52485   0.18198   0.14045   0.00000  Uiso   1.00
H352   H     0.03284   0.37534   0.28704   0.00000  Uiso   1.00
H353   H     0.44842   0.33773   0.83017   0.00000  Uiso   1.00
H354   H     0.37361   0.26431   0.69496   0.00000  Uiso   1.00
H355   H     0.35385   0.33485   0.85199   0.00000  Uiso   1.00
H356   H     0.59475   0.42654   0.92150   0.00000  Uiso   1.00
H357   H     0.32696   0.16319   0.57985   0.00000  Uiso   1.00
H358   H     0.28530   0.31195   0.91096   0.00000  Uiso   1.00
H359   H     0.79329   0.50531   0.05755   0.00000  Uiso   1.00
O360   O     0.40255   0.04715   0.61049   0.00000  Uiso   1.00
O361   O     0.34791   0.24233   0.04490   0.00000  Uiso   1.00
O362   O     0.01438   0.49601   0.23722   0.00000  Uiso   1.00
N363   N     0.52041   0.07389   0.77389   0.00000  Uiso   1.00
N364   N     0.48145   0.21296   0.08344   0.00000  Uiso   1.00
N365   N     0.95637   0.39375   0.22051   0.00000  Uiso   1.00
N366   N     0.39151   0.14383   0.65040   0.00000  Uiso   1.00
N367   N     0.35255   0.28290   0.95995   0.00000  Uiso   1.00
N368   N     0.82748   0.46368   0.09702   0.00000  Uiso   1.00
