data_job_03170
_audit_creation_date              2018-12-19
_audit_creation_method            'Materials Studio'
_symmetry_space_group_name_H-M    'P1'
_symmetry_Int_Tables_number       1
_symmetry_cell_setting            triclinic
loop_
_symmetry_equiv_pos_as_xyz
  x,y,z
_cell_length_a                    43.2115
_cell_length_b                    22.2637
_cell_length_c                    7.2334
_cell_angle_alpha                 90.0000
_cell_angle_beta                  90.0000
_cell_angle_gamma                 90.0000
loop_
_atom_site_label
_atom_site_type_symbol
_atom_site_fract_x
_atom_site_fract_y
_atom_site_fract_z
_atom_site_U_iso_or_equiv
_atom_site_adp_type
_atom_site_occupancy
C1     C     0.85319   0.69624   0.34629   0.00000  Uiso   1.00
C2     C     0.85033   0.76113   0.41162   0.00000  Uiso   1.00
C3     C     0.84587   0.81081   0.29884   0.00000  Uiso   1.00
C4     C     0.84385   0.86635   0.38528   0.00000  Uiso   1.00
C5     C     0.83907   0.96625   0.45746   0.00000  Uiso   1.00
C6     C     0.88403   0.67345   0.42100   0.00000  Uiso   1.00
C7     C     0.90790   0.64940   0.31610   0.00000  Uiso   1.00
C8     C     0.93425   0.63113   0.41044   0.00000  Uiso   1.00
C9     C     0.98177   0.59487   0.49720   0.00000  Uiso   1.00
C10    C     0.82820   0.66121   0.44889   0.00000  Uiso   1.00
C11    C     0.80513   0.62685   0.36744   0.00000  Uiso   1.00
C12    C     0.78448   0.59826   0.48527   0.00000  Uiso   1.00
C13    C     0.74532   0.54300   0.61532   0.00000  Uiso   1.00
C14    C     0.85755   0.70655   0.70036   0.00000  Uiso   1.00
C15    C     0.85270   0.76672   0.60394   0.00000  Uiso   1.00
C16    C     0.85069   0.82220   0.69058   0.00000  Uiso   1.00
C17    C     0.84622   0.87195   0.57794   0.00000  Uiso   1.00
C18    C     0.88640   0.67905   0.61331   0.00000  Uiso   1.00
C19    C     0.91272   0.66080   0.70784   0.00000  Uiso   1.00
C20    C     0.93662   0.63674   0.60311   0.00000  Uiso   1.00
C21    C     0.83057   0.66681   0.64121   0.00000  Uiso   1.00
C22    C     0.80995   0.63826   0.75918   0.00000  Uiso   1.00
C23    C     0.78685   0.60387   0.67794   0.00000  Uiso   1.00
H24    H     0.85135   0.69189   0.19657   0.00000  Uiso   1.00
H25    H     0.84404   0.80646   0.15001   0.00000  Uiso   1.00
H26    H     0.90606   0.64507   0.16728   0.00000  Uiso   1.00
H27    H     0.80331   0.62253   0.21861   0.00000  Uiso   1.00
H28    H     0.83699   0.93595   0.18321   0.00000  Uiso   1.00
H29    H     0.96776   0.59565   0.21961   0.00000  Uiso   1.00
H30    H     0.75108   0.54811   0.32786   0.00000  Uiso   1.00
H31    H     0.85939   0.71090   0.85010   0.00000  Uiso   1.00
H32    H     0.85252   0.82652   0.83941   0.00000  Uiso   1.00
H33    H     0.91454   0.66514   0.85667   0.00000  Uiso   1.00
H34    H     0.81179   0.64260   0.90800   0.00000  Uiso   1.00
H35    H     0.84388   0.95224   0.74275   0.00000  Uiso   1.00
H36    H     0.97464   0.61193   0.77915   0.00000  Uiso   1.00
H37    H     0.75797   0.56440   0.88740   0.00000  Uiso   1.00
O38    O     0.83578   0.01981   0.44415   0.00000  Uiso   1.00
O39    O     0.00734   0.57334   0.49191   0.00000  Uiso   1.00
O40    O     0.72306   0.51098   0.63393   0.00000  Uiso   1.00
N41    N     0.83955   0.92391   0.31636   0.00000  Uiso   1.00
N42    N     0.96181   0.60576   0.35040   0.00000  Uiso   1.00
N43    N     0.75924   0.56131   0.45160   0.00000  Uiso   1.00
N44    N     0.84325   0.93268   0.61745   0.00000  Uiso   1.00
N45    N     0.96551   0.61452   0.65148   0.00000  Uiso   1.00
N46    N     0.76295   0.57007   0.75269   0.00000  Uiso   1.00
C47    C     0.64681   0.80376   0.84629   0.00000  Uiso   1.00
C48    C     0.64967   0.73887   0.91162   0.00000  Uiso   1.00
C49    C     0.65413   0.68919   0.79884   0.00000  Uiso   1.00
C50    C     0.65615   0.63365   0.88528   0.00000  Uiso   1.00
C51    C     0.66093   0.53375   0.95746   0.00000  Uiso   1.00
C52    C     0.61597   0.82655   0.92100   0.00000  Uiso   1.00
C53    C     0.59210   0.85060   0.81610   0.00000  Uiso   1.00
C54    C     0.56575   0.86887   0.91044   0.00000  Uiso   1.00
C55    C     0.51823   0.90513   0.99720   0.00000  Uiso   1.00
C56    C     0.67180   0.83879   0.94889   0.00000  Uiso   1.00
C57    C     0.69487   0.87315   0.86744   0.00000  Uiso   1.00
C58    C     0.71552   0.90174   0.98527   0.00000  Uiso   1.00
C59    C     0.75468   0.95700   0.11532   0.00000  Uiso   1.00
C60    C     0.64245   0.79345   0.20036   0.00000  Uiso   1.00
C61    C     0.64730   0.73328   0.10394   0.00000  Uiso   1.00
C62    C     0.64931   0.67780   0.19058   0.00000  Uiso   1.00
C63    C     0.65378   0.62805   0.07794   0.00000  Uiso   1.00
C64    C     0.61360   0.82095   0.11331   0.00000  Uiso   1.00
C65    C     0.58728   0.83920   0.20784   0.00000  Uiso   1.00
C66    C     0.56338   0.86326   0.10311   0.00000  Uiso   1.00
C67    C     0.66943   0.83319   0.14121   0.00000  Uiso   1.00
C68    C     0.69005   0.86174   0.25918   0.00000  Uiso   1.00
C69    C     0.71315   0.89613   0.17794   0.00000  Uiso   1.00
H70    H     0.64865   0.80811   0.69657   0.00000  Uiso   1.00
H71    H     0.65596   0.69354   0.65001   0.00000  Uiso   1.00
H72    H     0.59394   0.85493   0.66728   0.00000  Uiso   1.00
H73    H     0.69669   0.87747   0.71861   0.00000  Uiso   1.00
H74    H     0.66301   0.56405   0.68321   0.00000  Uiso   1.00
H75    H     0.53224   0.90435   0.71961   0.00000  Uiso   1.00
H76    H     0.74892   0.95189   0.82786   0.00000  Uiso   1.00
H77    H     0.64061   0.78910   0.35010   0.00000  Uiso   1.00
H78    H     0.64748   0.67348   0.33941   0.00000  Uiso   1.00
H79    H     0.58546   0.83486   0.35667   0.00000  Uiso   1.00
H80    H     0.68821   0.85740   0.40800   0.00000  Uiso   1.00
H81    H     0.65612   0.54776   0.24275   0.00000  Uiso   1.00
H82    H     0.52536   0.88807   0.27915   0.00000  Uiso   1.00
H83    H     0.74203   0.93560   0.38740   0.00000  Uiso   1.00
O84    O     0.66422   0.48019   0.94415   0.00000  Uiso   1.00
O85    O     0.49266   0.92666   0.99191   0.00000  Uiso   1.00
O86    O     0.77694   0.98902   0.13393   0.00000  Uiso   1.00
N87    N     0.66045   0.57609   0.81636   0.00000  Uiso   1.00
N88    N     0.53819   0.89424   0.85040   0.00000  Uiso   1.00
N89    N     0.74076   0.93869   0.95160   0.00000  Uiso   1.00
N90    N     0.65675   0.56732   0.11745   0.00000  Uiso   1.00
N91    N     0.53449   0.88548   0.15148   0.00000  Uiso   1.00
N92    N     0.73705   0.92993   0.25269   0.00000  Uiso   1.00
C93    C     0.14681   0.69624   0.15371   0.00000  Uiso   1.00
C94    C     0.14967   0.76113   0.08838   0.00000  Uiso   1.00
C95    C     0.15413   0.81081   0.20116   0.00000  Uiso   1.00
C96    C     0.15615   0.86635   0.11472   0.00000  Uiso   1.00
C97    C     0.16093   0.96625   0.04254   0.00000  Uiso   1.00
C98    C     0.11597   0.67345   0.07900   0.00000  Uiso   1.00
C99    C     0.09210   0.64940   0.18390   0.00000  Uiso   1.00
C100   C     0.06575   0.63113   0.08956   0.00000  Uiso   1.00
C101   C     0.01823   0.59487   0.00280   0.00000  Uiso   1.00
C102   C     0.17180   0.66121   0.05111   0.00000  Uiso   1.00
C103   C     0.19487   0.62685   0.13256   0.00000  Uiso   1.00
C104   C     0.21552   0.59826   0.01473   0.00000  Uiso   1.00
C105   C     0.25468   0.54300   0.88468   0.00000  Uiso   1.00
C106   C     0.14245   0.70655   0.79964   0.00000  Uiso   1.00
C107   C     0.14730   0.76672   0.89606   0.00000  Uiso   1.00
C108   C     0.14931   0.82220   0.80942   0.00000  Uiso   1.00
C109   C     0.15378   0.87195   0.92206   0.00000  Uiso   1.00
C110   C     0.11360   0.67905   0.88669   0.00000  Uiso   1.00
C111   C     0.08728   0.66080   0.79216   0.00000  Uiso   1.00
C112   C     0.06338   0.63674   0.89689   0.00000  Uiso   1.00
C113   C     0.16943   0.66681   0.85879   0.00000  Uiso   1.00
C114   C     0.19005   0.63826   0.74082   0.00000  Uiso   1.00
C115   C     0.21315   0.60387   0.82206   0.00000  Uiso   1.00
H116   H     0.14865   0.69189   0.30343   0.00000  Uiso   1.00
H117   H     0.15596   0.80646   0.34999   0.00000  Uiso   1.00
H118   H     0.09394   0.64507   0.33272   0.00000  Uiso   1.00
H119   H     0.19669   0.62253   0.28139   0.00000  Uiso   1.00
H120   H     0.16301   0.93595   0.31679   0.00000  Uiso   1.00
H121   H     0.03224   0.59565   0.28039   0.00000  Uiso   1.00
H122   H     0.24892   0.54811   0.17214   0.00000  Uiso   1.00
H123   H     0.14061   0.71090   0.64990   0.00000  Uiso   1.00
H124   H     0.14748   0.82652   0.66059   0.00000  Uiso   1.00
H125   H     0.08546   0.66514   0.64333   0.00000  Uiso   1.00
H126   H     0.18821   0.64260   0.59200   0.00000  Uiso   1.00
H127   H     0.15612   0.95224   0.75725   0.00000  Uiso   1.00
H128   H     0.02536   0.61193   0.72085   0.00000  Uiso   1.00
H129   H     0.24203   0.56440   0.61260   0.00000  Uiso   1.00
O130   O     0.16422   0.01981   0.05585   0.00000  Uiso   1.00
O131   O     0.99266   0.57334   0.00809   0.00000  Uiso   1.00
O132   O     0.27694   0.51098   0.86607   0.00000  Uiso   1.00
N133   N     0.16045   0.92391   0.18364   0.00000  Uiso   1.00
N134   N     0.03819   0.60576   0.14960   0.00000  Uiso   1.00
N135   N     0.24076   0.56131   0.04840   0.00000  Uiso   1.00
N136   N     0.15675   0.93268   0.88255   0.00000  Uiso   1.00
N137   N     0.03449   0.61452   0.84852   0.00000  Uiso   1.00
N138   N     0.23705   0.57007   0.74731   0.00000  Uiso   1.00
C139   C     0.35319   0.80376   0.65371   0.00000  Uiso   1.00
C140   C     0.35033   0.73887   0.58838   0.00000  Uiso   1.00
C141   C     0.34587   0.68919   0.70116   0.00000  Uiso   1.00
C142   C     0.34385   0.63365   0.61472   0.00000  Uiso   1.00
C143   C     0.33907   0.53375   0.54254   0.00000  Uiso   1.00
C144   C     0.38403   0.82655   0.57900   0.00000  Uiso   1.00
C145   C     0.40790   0.85060   0.68390   0.00000  Uiso   1.00
C146   C     0.43425   0.86887   0.58956   0.00000  Uiso   1.00
C147   C     0.48177   0.90513   0.50280   0.00000  Uiso   1.00
C148   C     0.32820   0.83879   0.55111   0.00000  Uiso   1.00
C149   C     0.30513   0.87315   0.63256   0.00000  Uiso   1.00
C150   C     0.28448   0.90174   0.51473   0.00000  Uiso   1.00
C151   C     0.24532   0.95700   0.38468   0.00000  Uiso   1.00
C152   C     0.35755   0.79345   0.29964   0.00000  Uiso   1.00
C153   C     0.35270   0.73328   0.39606   0.00000  Uiso   1.00
C154   C     0.35069   0.67780   0.30942   0.00000  Uiso   1.00
C155   C     0.34622   0.62805   0.42206   0.00000  Uiso   1.00
C156   C     0.38640   0.82095   0.38669   0.00000  Uiso   1.00
C157   C     0.41272   0.83920   0.29216   0.00000  Uiso   1.00
C158   C     0.43662   0.86326   0.39689   0.00000  Uiso   1.00
C159   C     0.33057   0.83319   0.35879   0.00000  Uiso   1.00
C160   C     0.30995   0.86174   0.24082   0.00000  Uiso   1.00
C161   C     0.28685   0.89613   0.32206   0.00000  Uiso   1.00
H162   H     0.35135   0.80811   0.80343   0.00000  Uiso   1.00
H163   H     0.34404   0.69354   0.84999   0.00000  Uiso   1.00
H164   H     0.40606   0.85493   0.83272   0.00000  Uiso   1.00
H165   H     0.30331   0.87747   0.78139   0.00000  Uiso   1.00
H166   H     0.33699   0.56405   0.81679   0.00000  Uiso   1.00
H167   H     0.46776   0.90435   0.78039   0.00000  Uiso   1.00
H168   H     0.25108   0.95189   0.67214   0.00000  Uiso   1.00
H169   H     0.35939   0.78910   0.14990   0.00000  Uiso   1.00
H170   H     0.35252   0.67348   0.16059   0.00000  Uiso   1.00
H171   H     0.41454   0.83486   0.14333   0.00000  Uiso   1.00
H172   H     0.31179   0.85740   0.09200   0.00000  Uiso   1.00
H173   H     0.34388   0.54776   0.25725   0.00000  Uiso   1.00
H174   H     0.47464   0.88807   0.22085   0.00000  Uiso   1.00
H175   H     0.25797   0.93560   0.11260   0.00000  Uiso   1.00
O176   O     0.33578   0.48019   0.55585   0.00000  Uiso   1.00
O177   O     0.50734   0.92666   0.50809   0.00000  Uiso   1.00
O178   O     0.22306   0.98902   0.36607   0.00000  Uiso   1.00
N179   N     0.33955   0.57609   0.68364   0.00000  Uiso   1.00
N180   N     0.46181   0.89424   0.64960   0.00000  Uiso   1.00
N181   N     0.25924   0.93869   0.54840   0.00000  Uiso   1.00
N182   N     0.34325   0.56732   0.38255   0.00000  Uiso   1.00
N183   N     0.46551   0.88548   0.34852   0.00000  Uiso   1.00
N184   N     0.26295   0.92993   0.24731   0.00000  Uiso   1.00
C185   C     0.14681   0.30376   0.65371   0.00000  Uiso   1.00
C186   C     0.14967   0.23887   0.58838   0.00000  Uiso   1.00
C187   C     0.15413   0.18919   0.70116   0.00000  Uiso   1.00
C188   C     0.15615   0.13365   0.61472   0.00000  Uiso   1.00
C189   C     0.16093   0.03375   0.54254   0.00000  Uiso   1.00
C190   C     0.11597   0.32655   0.57900   0.00000  Uiso   1.00
C191   C     0.09210   0.35060   0.68390   0.00000  Uiso   1.00
C192   C     0.06575   0.36887   0.58956   0.00000  Uiso   1.00
C193   C     0.01823   0.40513   0.50280   0.00000  Uiso   1.00
C194   C     0.17180   0.33879   0.55111   0.00000  Uiso   1.00
C195   C     0.19487   0.37315   0.63256   0.00000  Uiso   1.00
C196   C     0.21552   0.40174   0.51473   0.00000  Uiso   1.00
C197   C     0.25468   0.45700   0.38468   0.00000  Uiso   1.00
C198   C     0.14245   0.29345   0.29964   0.00000  Uiso   1.00
C199   C     0.14730   0.23328   0.39606   0.00000  Uiso   1.00
C200   C     0.14931   0.17780   0.30942   0.00000  Uiso   1.00
C201   C     0.15378   0.12805   0.42206   0.00000  Uiso   1.00
C202   C     0.11360   0.32095   0.38669   0.00000  Uiso   1.00
C203   C     0.08728   0.33920   0.29216   0.00000  Uiso   1.00
C204   C     0.06338   0.36326   0.39689   0.00000  Uiso   1.00
C205   C     0.16943   0.33319   0.35879   0.00000  Uiso   1.00
C206   C     0.19005   0.36174   0.24082   0.00000  Uiso   1.00
C207   C     0.21315   0.39613   0.32206   0.00000  Uiso   1.00
H208   H     0.14865   0.30811   0.80343   0.00000  Uiso   1.00
H209   H     0.15596   0.19354   0.84999   0.00000  Uiso   1.00
H210   H     0.09394   0.35493   0.83272   0.00000  Uiso   1.00
H211   H     0.19669   0.37747   0.78139   0.00000  Uiso   1.00
H212   H     0.16301   0.06405   0.81679   0.00000  Uiso   1.00
H213   H     0.03224   0.40435   0.78039   0.00000  Uiso   1.00
H214   H     0.24892   0.45189   0.67214   0.00000  Uiso   1.00
H215   H     0.14061   0.28910   0.14990   0.00000  Uiso   1.00
H216   H     0.14748   0.17348   0.16059   0.00000  Uiso   1.00
H217   H     0.08546   0.33486   0.14333   0.00000  Uiso   1.00
H218   H     0.18821   0.35740   0.09200   0.00000  Uiso   1.00
H219   H     0.15612   0.04776   0.25725   0.00000  Uiso   1.00
H220   H     0.02536   0.38807   0.22085   0.00000  Uiso   1.00
H221   H     0.24203   0.43560   0.11260   0.00000  Uiso   1.00
O222   O     0.16422   0.98019   0.55585   0.00000  Uiso   1.00
O223   O     0.99266   0.42666   0.50809   0.00000  Uiso   1.00
O224   O     0.27694   0.48902   0.36607   0.00000  Uiso   1.00
N225   N     0.16045   0.07609   0.68364   0.00000  Uiso   1.00
N226   N     0.03819   0.39424   0.64960   0.00000  Uiso   1.00
N227   N     0.24076   0.43869   0.54840   0.00000  Uiso   1.00
N228   N     0.15675   0.06732   0.38255   0.00000  Uiso   1.00
N229   N     0.03449   0.38548   0.34852   0.00000  Uiso   1.00
N230   N     0.23705   0.42993   0.24731   0.00000  Uiso   1.00
C231   C     0.35319   0.19624   0.15371   0.00000  Uiso   1.00
C232   C     0.35033   0.26113   0.08838   0.00000  Uiso   1.00
C233   C     0.34587   0.31081   0.20116   0.00000  Uiso   1.00
C234   C     0.34385   0.36635   0.11472   0.00000  Uiso   1.00
C235   C     0.33907   0.46625   0.04254   0.00000  Uiso   1.00
C236   C     0.38403   0.17345   0.07900   0.00000  Uiso   1.00
C237   C     0.40790   0.14940   0.18390   0.00000  Uiso   1.00
C238   C     0.43425   0.13113   0.08956   0.00000  Uiso   1.00
C239   C     0.48177   0.09487   0.00280   0.00000  Uiso   1.00
C240   C     0.32820   0.16121   0.05111   0.00000  Uiso   1.00
C241   C     0.30513   0.12685   0.13256   0.00000  Uiso   1.00
C242   C     0.28448   0.09826   0.01473   0.00000  Uiso   1.00
C243   C     0.24532   0.04300   0.88468   0.00000  Uiso   1.00
C244   C     0.35755   0.20655   0.79964   0.00000  Uiso   1.00
C245   C     0.35270   0.26672   0.89606   0.00000  Uiso   1.00
C246   C     0.35069   0.32220   0.80942   0.00000  Uiso   1.00
C247   C     0.34622   0.37195   0.92206   0.00000  Uiso   1.00
C248   C     0.38640   0.17905   0.88669   0.00000  Uiso   1.00
C249   C     0.41272   0.16080   0.79216   0.00000  Uiso   1.00
C250   C     0.43662   0.13674   0.89689   0.00000  Uiso   1.00
C251   C     0.33057   0.16681   0.85879   0.00000  Uiso   1.00
C252   C     0.30995   0.13826   0.74082   0.00000  Uiso   1.00
C253   C     0.28685   0.10387   0.82206   0.00000  Uiso   1.00
H254   H     0.35135   0.19189   0.30343   0.00000  Uiso   1.00
H255   H     0.34404   0.30646   0.34999   0.00000  Uiso   1.00
H256   H     0.40606   0.14507   0.33272   0.00000  Uiso   1.00
H257   H     0.30331   0.12253   0.28139   0.00000  Uiso   1.00
H258   H     0.33699   0.43595   0.31679   0.00000  Uiso   1.00
H259   H     0.46776   0.09565   0.28039   0.00000  Uiso   1.00
H260   H     0.25108   0.04811   0.17214   0.00000  Uiso   1.00
H261   H     0.35939   0.21090   0.64990   0.00000  Uiso   1.00
H262   H     0.35252   0.32652   0.66059   0.00000  Uiso   1.00
H263   H     0.41454   0.16514   0.64333   0.00000  Uiso   1.00
H264   H     0.31179   0.14260   0.59200   0.00000  Uiso   1.00
H265   H     0.34388   0.45224   0.75725   0.00000  Uiso   1.00
H266   H     0.47464   0.11193   0.72085   0.00000  Uiso   1.00
H267   H     0.25797   0.06440   0.61260   0.00000  Uiso   1.00
O268   O     0.33578   0.51981   0.05585   0.00000  Uiso   1.00
O269   O     0.50734   0.07334   0.00809   0.00000  Uiso   1.00
O270   O     0.22306   0.01098   0.86607   0.00000  Uiso   1.00
N271   N     0.33955   0.42391   0.18364   0.00000  Uiso   1.00
N272   N     0.46181   0.10576   0.14960   0.00000  Uiso   1.00
N273   N     0.25924   0.06131   0.04840   0.00000  Uiso   1.00
N274   N     0.34325   0.43268   0.88255   0.00000  Uiso   1.00
N275   N     0.46551   0.11452   0.84852   0.00000  Uiso   1.00
N276   N     0.26295   0.07007   0.74731   0.00000  Uiso   1.00
C277   C     0.85319   0.30376   0.84629   0.00000  Uiso   1.00
C278   C     0.85033   0.23887   0.91162   0.00000  Uiso   1.00
C279   C     0.84587   0.18919   0.79884   0.00000  Uiso   1.00
C280   C     0.84385   0.13365   0.88528   0.00000  Uiso   1.00
C281   C     0.83907   0.03375   0.95746   0.00000  Uiso   1.00
C282   C     0.88403   0.32655   0.92100   0.00000  Uiso   1.00
C283   C     0.90790   0.35060   0.81610   0.00000  Uiso   1.00
C284   C     0.93425   0.36887   0.91044   0.00000  Uiso   1.00
C285   C     0.98177   0.40513   0.99720   0.00000  Uiso   1.00
C286   C     0.82820   0.33879   0.94889   0.00000  Uiso   1.00
C287   C     0.80513   0.37315   0.86744   0.00000  Uiso   1.00
C288   C     0.78448   0.40174   0.98527   0.00000  Uiso   1.00
C289   C     0.74532   0.45700   0.11532   0.00000  Uiso   1.00
C290   C     0.85755   0.29345   0.20036   0.00000  Uiso   1.00
C291   C     0.85270   0.23328   0.10394   0.00000  Uiso   1.00
C292   C     0.85069   0.17780   0.19058   0.00000  Uiso   1.00
C293   C     0.84622   0.12805   0.07794   0.00000  Uiso   1.00
C294   C     0.88640   0.32095   0.11331   0.00000  Uiso   1.00
C295   C     0.91272   0.33920   0.20784   0.00000  Uiso   1.00
C296   C     0.93662   0.36326   0.10311   0.00000  Uiso   1.00
C297   C     0.83057   0.33319   0.14121   0.00000  Uiso   1.00
C298   C     0.80995   0.36174   0.25918   0.00000  Uiso   1.00
C299   C     0.78685   0.39613   0.17794   0.00000  Uiso   1.00
H300   H     0.85135   0.30811   0.69657   0.00000  Uiso   1.00
H301   H     0.84404   0.19354   0.65001   0.00000  Uiso   1.00
H302   H     0.90606   0.35493   0.66728   0.00000  Uiso   1.00
H303   H     0.80331   0.37747   0.71861   0.00000  Uiso   1.00
H304   H     0.83699   0.06405   0.68321   0.00000  Uiso   1.00
H305   H     0.96776   0.40435   0.71961   0.00000  Uiso   1.00
H306   H     0.75108   0.45189   0.82786   0.00000  Uiso   1.00
H307   H     0.85939   0.28910   0.35010   0.00000  Uiso   1.00
H308   H     0.85252   0.17348   0.33941   0.00000  Uiso   1.00
H309   H     0.91454   0.33486   0.35667   0.00000  Uiso   1.00
H310   H     0.81179   0.35740   0.40800   0.00000  Uiso   1.00
H311   H     0.84388   0.04776   0.24275   0.00000  Uiso   1.00
H312   H     0.97464   0.38807   0.27915   0.00000  Uiso   1.00
H313   H     0.75797   0.43560   0.38740   0.00000  Uiso   1.00
O314   O     0.83578   0.98019   0.94415   0.00000  Uiso   1.00
O315   O     0.00734   0.42666   0.99191   0.00000  Uiso   1.00
O316   O     0.72306   0.48902   0.13393   0.00000  Uiso   1.00
N317   N     0.83955   0.07609   0.81636   0.00000  Uiso   1.00
N318   N     0.96181   0.39424   0.85040   0.00000  Uiso   1.00
N319   N     0.75924   0.43869   0.95160   0.00000  Uiso   1.00
N320   N     0.84325   0.06732   0.11745   0.00000  Uiso   1.00
N321   N     0.96551   0.38548   0.15148   0.00000  Uiso   1.00
N322   N     0.76295   0.42993   0.25269   0.00000  Uiso   1.00
C323   C     0.64681   0.19624   0.34629   0.00000  Uiso   1.00
C324   C     0.64967   0.26113   0.41162   0.00000  Uiso   1.00
C325   C     0.65413   0.31081   0.29884   0.00000  Uiso   1.00
C326   C     0.65615   0.36635   0.38528   0.00000  Uiso   1.00
C327   C     0.66093   0.46625   0.45746   0.00000  Uiso   1.00
C328   C     0.61597   0.17345   0.42100   0.00000  Uiso   1.00
C329   C     0.59210   0.14940   0.31610   0.00000  Uiso   1.00
C330   C     0.56575   0.13113   0.41044   0.00000  Uiso   1.00
C331   C     0.51823   0.09487   0.49720   0.00000  Uiso   1.00
C332   C     0.67180   0.16121   0.44889   0.00000  Uiso   1.00
C333   C     0.69487   0.12685   0.36744   0.00000  Uiso   1.00
C334   C     0.71552   0.09826   0.48527   0.00000  Uiso   1.00
C335   C     0.75468   0.04300   0.61532   0.00000  Uiso   1.00
C336   C     0.64245   0.20655   0.70036   0.00000  Uiso   1.00
C337   C     0.64730   0.26672   0.60394   0.00000  Uiso   1.00
C338   C     0.64931   0.32220   0.69058   0.00000  Uiso   1.00
C339   C     0.65378   0.37195   0.57794   0.00000  Uiso   1.00
C340   C     0.61360   0.17905   0.61331   0.00000  Uiso   1.00
C341   C     0.58728   0.16080   0.70784   0.00000  Uiso   1.00
C342   C     0.56338   0.13674   0.60311   0.00000  Uiso   1.00
C343   C     0.66943   0.16681   0.64121   0.00000  Uiso   1.00
C344   C     0.69005   0.13826   0.75918   0.00000  Uiso   1.00
C345   C     0.71315   0.10387   0.67794   0.00000  Uiso   1.00
H346   H     0.64865   0.19189   0.19657   0.00000  Uiso   1.00
H347   H     0.65596   0.30646   0.15001   0.00000  Uiso   1.00
H348   H     0.59394   0.14507   0.16728   0.00000  Uiso   1.00
H349   H     0.69669   0.12253   0.21861   0.00000  Uiso   1.00
H350   H     0.66301   0.43595   0.18321   0.00000  Uiso   1.00
H351   H     0.53224   0.09565   0.21961   0.00000  Uiso   1.00
H352   H     0.74892   0.04811   0.32786   0.00000  Uiso   1.00
H353   H     0.64061   0.21090   0.85010   0.00000  Uiso   1.00
H354   H     0.64748   0.32652   0.83941   0.00000  Uiso   1.00
H355   H     0.58546   0.16514   0.85667   0.00000  Uiso   1.00
H356   H     0.68821   0.14260   0.90800   0.00000  Uiso   1.00
H357   H     0.65612   0.45224   0.74275   0.00000  Uiso   1.00
H358   H     0.52536   0.11193   0.77915   0.00000  Uiso   1.00
H359   H     0.74203   0.06440   0.88740   0.00000  Uiso   1.00
O360   O     0.66422   0.51981   0.44415   0.00000  Uiso   1.00
O361   O     0.49266   0.07334   0.49191   0.00000  Uiso   1.00
O362   O     0.77694   0.01098   0.63393   0.00000  Uiso   1.00
N363   N     0.66045   0.42391   0.31636   0.00000  Uiso   1.00
N364   N     0.53819   0.10576   0.35040   0.00000  Uiso   1.00
N365   N     0.74076   0.06131   0.45160   0.00000  Uiso   1.00
N366   N     0.65675   0.43268   0.61745   0.00000  Uiso   1.00
N367   N     0.53449   0.11452   0.65148   0.00000  Uiso   1.00
N368   N     0.73705   0.07007   0.75269   0.00000  Uiso   1.00
