data_job_06643
_audit_creation_date              2018-12-19
_audit_creation_method            'Materials Studio'
_symmetry_space_group_name_H-M    'P1'
_symmetry_Int_Tables_number       1
_symmetry_cell_setting            triclinic
loop_
_symmetry_equiv_pos_as_xyz
  x,y,z
_cell_length_a                    13.6329
_cell_length_b                    22.2395
_cell_length_c                    27.9151
_cell_angle_alpha                 72.6243
_cell_angle_beta                  91.2887
_cell_angle_gamma                 102.2805
loop_
_atom_site_label
_atom_site_type_symbol
_atom_site_fract_x
_atom_site_fract_y
_atom_site_fract_z
_atom_site_U_iso_or_equiv
_atom_site_adp_type
_atom_site_occupancy
C1     C     0.14991   0.70050   0.36676   0.00000  Uiso   1.00
C2     C     0.18967   0.70208   0.41797   0.00000  Uiso   1.00
C3     C     0.29006   0.71185   0.42983   0.00000  Uiso   1.00
C4     C     0.31099   0.71159   0.47879   0.00000  Uiso   1.00
C5     C     0.38441   0.71548   0.55287   0.00000  Uiso   1.00
C6     C     0.07654   0.63563   0.37581   0.00000  Uiso   1.00
C7     C     0.08180   0.58954   0.35222   0.00000  Uiso   1.00
C8     C     0.00748   0.53334   0.36568   0.00000  Uiso   1.00
C9     C     0.90522   0.43409   0.37428   0.00000  Uiso   1.00
C10    C     0.08664   0.75156   0.35164   0.00000  Uiso   1.00
C11    C     0.10037   0.80293   0.30772   0.00000  Uiso   1.00
C12    C     0.03454   0.84433   0.30083   0.00000  Uiso   1.00
C13    C     0.94797   0.92507   0.27189   0.00000  Uiso   1.00
C14    C     0.00856   0.68266   0.43261   0.00000  Uiso   1.00
C15    C     0.11290   0.69239   0.45373   0.00000  Uiso   1.00
C16    C     0.13368   0.69211   0.50269   0.00000  Uiso   1.00
C17    C     0.23408   0.70188   0.51462   0.00000  Uiso   1.00
C18    C     0.99977   0.62594   0.41157   0.00000  Uiso   1.00
C19    C     0.92542   0.56980   0.42507   0.00000  Uiso   1.00
C20    C     0.93057   0.52363   0.40151   0.00000  Uiso   1.00
C21    C     0.00987   0.74187   0.38740   0.00000  Uiso   1.00
C22    C     0.94400   0.78319   0.38057   0.00000  Uiso   1.00
C23    C     0.95763   0.83461   0.33666   0.00000  Uiso   1.00
H24    H     0.20967   0.70805   0.33892   0.00000  Uiso   1.00
H25    H     0.34945   0.71935   0.40215   0.00000  Uiso   1.00
H26    H     0.14121   0.59706   0.32454   0.00000  Uiso   1.00
H27    H     0.15979   0.81041   0.28005   0.00000  Uiso   1.00
H28    H     0.47056   0.72758   0.48802   0.00000  Uiso   1.00
H29    H     0.03147   0.46973   0.32437   0.00000  Uiso   1.00
H30    H     0.07064   0.91964   0.23056   0.00000  Uiso   1.00
H31    H     0.94879   0.67512   0.46046   0.00000  Uiso   1.00
H32    H     0.07425   0.68461   0.53036   0.00000  Uiso   1.00
H33    H     0.86602   0.56232   0.45275   0.00000  Uiso   1.00
H34    H     0.88460   0.77568   0.40826   0.00000  Uiso   1.00
H35    H     0.24720   0.69938   0.59209   0.00000  Uiso   1.00
H36    H     0.80810   0.44154   0.42843   0.00000  Uiso   1.00
H37    H     0.84728   0.89144   0.33462   0.00000  Uiso   1.00
O38    O     0.44611   0.72030   0.58385   0.00000  Uiso   1.00
O39    O     0.87004   0.38202   0.36914   0.00000  Uiso   1.00
O40    O     0.92144   0.97229   0.24606   0.00000  Uiso   1.00
N41    N     0.40077   0.71965   0.50292   0.00000  Uiso   1.00
N42    N     0.99026   0.47858   0.34992   0.00000  Uiso   1.00
N43    N     0.02687   0.89919   0.26221   0.00000  Uiso   1.00
N44    N     0.28058   0.70448   0.55891   0.00000  Uiso   1.00
N45    N     0.87007   0.46341   0.40592   0.00000  Uiso   1.00
N46    N     0.90668   0.88402   0.31820   0.00000  Uiso   1.00
C47    C     0.11275   0.84911   0.77437   0.00000  Uiso   1.00
C48    C     0.07227   0.78385   0.76591   0.00000  Uiso   1.00
C49    C     0.12264   0.73375   0.77494   0.00000  Uiso   1.00
C50    C     0.07275   0.67792   0.76477   0.00000  Uiso   1.00
C51    C     0.02465   0.57742   0.75442   0.00000  Uiso   1.00
C52    C     0.10790   0.89972   0.72409   0.00000  Uiso   1.00
C53    C     0.18822   0.94705   0.69796   0.00000  Uiso   1.00
C54    C     0.16831   0.98876   0.65259   0.00000  Uiso   1.00
C55    C     0.17550   0.06818   0.57733   0.00000  Uiso   1.00
C56    C     0.03598   0.85686   0.80975   0.00000  Uiso   1.00
C57    C     0.05583   0.86818   0.85565   0.00000  Uiso   1.00
C58    C     0.97538   0.87383   0.88240   0.00000  Uiso   1.00
C59    C     0.87090   0.88671   0.94015   0.00000  Uiso   1.00
C60    C     0.93459   0.83902   0.74027   0.00000  Uiso   1.00
C61    C     0.97550   0.77837   0.74738   0.00000  Uiso   1.00
C62    C     0.92552   0.72259   0.73721   0.00000  Uiso   1.00
C63    C     0.97581   0.67242   0.74622   0.00000  Uiso   1.00
C64    C     0.01113   0.89424   0.70556   0.00000  Uiso   1.00
C65    C     0.99110   0.93588   0.66023   0.00000  Uiso   1.00
C66    C     0.07137   0.98327   0.63403   0.00000  Uiso   1.00
C67    C     0.93921   0.85138   0.79123   0.00000  Uiso   1.00
C68    C     0.85871   0.85701   0.81792   0.00000  Uiso   1.00
C69    C     0.87843   0.86834   0.86384   0.00000  Uiso   1.00
H70    H     0.18809   0.85338   0.78879   0.00000  Uiso   1.00
H71    H     0.19753   0.73802   0.78927   0.00000  Uiso   1.00
H72    H     0.26309   0.95128   0.71230   0.00000  Uiso   1.00
H73    H     0.13072   0.87242   0.86997   0.00000  Uiso   1.00
H74    H     0.16534   0.60771   0.78161   0.00000  Uiso   1.00
H75    H     0.30358   0.05740   0.61933   0.00000  Uiso   1.00
H76    H     0.02445   0.89111   0.95180   0.00000  Uiso   1.00
H77    H     0.85924   0.83476   0.72585   0.00000  Uiso   1.00
H78    H     0.85064   0.71836   0.72287   0.00000  Uiso   1.00
H79    H     0.91621   0.93163   0.64590   0.00000  Uiso   1.00
H80    H     0.78384   0.85277   0.80357   0.00000  Uiso   1.00
H81    H     0.88379   0.59175   0.72772   0.00000  Uiso   1.00
H82    H     0.02203   0.04145   0.56544   0.00000  Uiso   1.00
H83    H     0.74290   0.87516   0.89791   0.00000  Uiso   1.00
O84    O     0.02485   0.52351   0.75382   0.00000  Uiso   1.00
O85    O     0.20621   0.11350   0.54093   0.00000  Uiso   1.00
O86    O     0.84001   0.89533   0.97712   0.00000  Uiso   1.00
N87    N     0.10025   0.61992   0.76934   0.00000  Uiso   1.00
N88    N     0.22950   0.04035   0.61762   0.00000  Uiso   1.00
N89    N     0.96854   0.88490   0.92845   0.00000  Uiso   1.00
N90    N     0.94875   0.61133   0.74035   0.00000  Uiso   1.00
N91    N     0.07800   0.03177   0.58862   0.00000  Uiso   1.00
N92    N     0.81705   0.87632   0.89945   0.00000  Uiso   1.00
C93    C     0.35104   0.33716   0.86893   0.00000  Uiso   1.00
C94    C     0.42675   0.39565   0.83715   0.00000  Uiso   1.00
C95    C     0.51444   0.39391   0.81378   0.00000  Uiso   1.00
C96    C     0.57368   0.45270   0.78640   0.00000  Uiso   1.00
C97    C     0.69546   0.53464   0.73765   0.00000  Uiso   1.00
C98    C     0.34151   0.34818   0.91983   0.00000  Uiso   1.00
C99    C     0.35752   0.30652   0.96598   0.00000  Uiso   1.00
C100   C     0.34500   0.32534   0.00820   0.00000  Uiso   1.00
C101   C     0.33438   0.33356   0.08782   0.00000  Uiso   1.00
C102   C     0.25009   0.34131   0.84498   0.00000  Uiso   1.00
C103   C     0.18922   0.29387   0.82820   0.00000  Uiso   1.00
C104   C     0.09972   0.30691   0.80741   0.00000  Uiso   1.00
C105   C     0.94716   0.30447   0.77081   0.00000  Uiso   1.00
C106   C     0.30031   0.44465   0.86186   0.00000  Uiso   1.00
C107   C     0.39919   0.45403   0.83331   0.00000  Uiso   1.00
C108   C     0.45832   0.51284   0.80595   0.00000  Uiso   1.00
C109   C     0.54608   0.51119   0.78255   0.00000  Uiso   1.00
C110   C     0.31396   0.40656   0.91599   0.00000  Uiso   1.00
C111   C     0.30141   0.42545   0.95815   0.00000  Uiso   1.00
C112   C     0.31740   0.38384   0.00435   0.00000  Uiso   1.00
C113   C     0.22254   0.39970   0.84113   0.00000  Uiso   1.00
C114   C     0.13311   0.41281   0.82037   0.00000  Uiso   1.00
C115   C     0.07212   0.36541   0.80357   0.00000  Uiso   1.00
H116   H     0.37248   0.29170   0.87193   0.00000  Uiso   1.00
H117   H     0.53574   0.34871   0.81677   0.00000  Uiso   1.00
H118   H     0.37883   0.26134   0.96894   0.00000  Uiso   1.00
H119   H     0.21057   0.24870   0.83118   0.00000  Uiso   1.00
H120   H     0.70460   0.43768   0.75393   0.00000  Uiso   1.00
H121   H     0.37373   0.25343   0.07480   0.00000  Uiso   1.00
H122   H     0.01890   0.22677   0.78431   0.00000  Uiso   1.00
H123   H     0.27886   0.49011   0.85887   0.00000  Uiso   1.00
H124   H     0.43698   0.55802   0.80299   0.00000  Uiso   1.00
H125   H     0.28008   0.47064   0.95516   0.00000  Uiso   1.00
H126   H     0.11181   0.45800   0.81740   0.00000  Uiso   1.00
H127   H     0.62445   0.60756   0.74275   0.00000  Uiso   1.00
H128   H     0.29358   0.42330   0.06362   0.00000  Uiso   1.00
H129   H     0.93875   0.39665   0.77313   0.00000  Uiso   1.00
O130   O     0.77024   0.56371   0.71183   0.00000  Uiso   1.00
O131   O     0.33614   0.32197   0.13280   0.00000  Uiso   1.00
O132   O     0.87062   0.28700   0.75168   0.00000  Uiso   1.00
N133   N     0.66403   0.46834   0.75896   0.00000  Uiso   1.00
N134   N     0.35470   0.29608   0.05896   0.00000  Uiso   1.00
N135   N     0.02295   0.27115   0.78738   0.00000  Uiso   1.00
N136   N     0.62090   0.55975   0.75294   0.00000  Uiso   1.00
N137   N     0.31157   0.38749   0.05294   0.00000  Uiso   1.00
N138   N     0.97983   0.36256   0.78136   0.00000  Uiso   1.00
C139   C     0.73061   0.04463   0.61442   0.00000  Uiso   1.00
C140   C     0.78837   0.06923   0.56373   0.00000  Uiso   1.00
C141   C     0.88863   0.10087   0.55511   0.00000  Uiso   1.00
C142   C     0.92756   0.11952   0.50607   0.00000  Uiso   1.00
C143   C     0.02627   0.15961   0.43331   0.00000  Uiso   1.00
C144   C     0.68866   0.97277   0.62313   0.00000  Uiso   1.00
C145   C     0.70509   0.92331   0.66445   0.00000  Uiso   1.00
C146   C     0.66007   0.86075   0.66541   0.00000  Uiso   1.00
C147   C     0.60393   0.75108   0.68488   0.00000  Uiso   1.00
C148   C     0.64001   0.07602   0.60721   0.00000  Uiso   1.00
C149   C     0.61551   0.11336   0.63515   0.00000  Uiso   1.00
C150   C     0.52953   0.13772   0.62272   0.00000  Uiso   1.00
C151   C     0.39785   0.18836   0.61747   0.00000  Uiso   1.00
C152   C     0.62146   0.02149   0.54266   0.00000  Uiso   1.00
C153   C     0.72908   0.05667   0.52476   0.00000  Uiso   1.00
C154   C     0.76786   0.07528   0.47572   0.00000  Uiso   1.00
C155   C     0.86817   0.10694   0.46702   0.00000  Uiso   1.00
C156   C     0.62938   0.96020   0.58415   0.00000  Uiso   1.00
C157   C     0.58432   0.89771   0.58506   0.00000  Uiso   1.00
C158   C     0.60068   0.84816   0.62637   0.00000  Uiso   1.00
C159   C     0.58072   0.06346   0.56823   0.00000  Uiso   1.00
C160   C     0.49475   0.08776   0.55576   0.00000  Uiso   1.00
C161   C     0.47013   0.12513   0.58367   0.00000  Uiso   1.00
H162   H     0.77677   0.05441   0.64476   0.00000  Uiso   1.00
H163   H     0.93449   0.11058   0.58529   0.00000  Uiso   1.00
H164   H     0.75096   0.93304   0.69461   0.00000  Uiso   1.00
H165   H     0.66141   0.12307   0.66531   0.00000  Uiso   1.00
H166   H     0.08322   0.16730   0.50216   0.00000  Uiso   1.00
H167   H     0.69622   0.79295   0.73268   0.00000  Uiso   1.00
H168   H     0.50737   0.19365   0.67091   0.00000  Uiso   1.00
H169   H     0.57530   0.01171   0.51231   0.00000  Uiso   1.00
H170   H     0.72197   0.06555   0.44556   0.00000  Uiso   1.00
H171   H     0.53844   0.88801   0.55489   0.00000  Uiso   1.00
H172   H     0.44889   0.07803   0.52559   0.00000  Uiso   1.00
H173   H     0.91073   0.13074   0.38876   0.00000  Uiso   1.00
H174   H     0.52372   0.75640   0.61928   0.00000  Uiso   1.00
H175   H     0.33488   0.15710   0.55751   0.00000  Uiso   1.00
O176   O     0.09710   0.18519   0.40394   0.00000  Uiso   1.00
O177   O     0.58935   0.69406   0.70639   0.00000  Uiso   1.00
O178   O     0.34160   0.21977   0.62534   0.00000  Uiso   1.00
N179   N     0.02249   0.15132   0.48463   0.00000  Uiso   1.00
N180   N     0.66068   0.80133   0.70015   0.00000  Uiso   1.00
N181   N     0.48411   0.17594   0.64241   0.00000  Uiso   1.00
N182   N     0.92967   0.13165   0.42361   0.00000  Uiso   1.00
N183   N     0.56786   0.78166   0.63913   0.00000  Uiso   1.00
N184   N     0.39129   0.15627   0.58138   0.00000  Uiso   1.00
C185   C     0.66074   0.64552   0.33234   0.00000  Uiso   1.00
C186   C     0.64678   0.57949   0.32413   0.00000  Uiso   1.00
C187   C     0.71817   0.55793   0.30282   0.00000  Uiso   1.00
C188   C     0.69083   0.49597   0.29862   0.00000  Uiso   1.00
C189   C     0.68367   0.39936   0.28338   0.00000  Uiso   1.00
C190   C     0.63908   0.63256   0.38830   0.00000  Uiso   1.00
C191   C     0.70399   0.65562   0.42093   0.00000  Uiso   1.00
C192   C     0.67017   0.63833   0.47074   0.00000  Uiso   1.00
C193   C     0.65102   0.62413   0.55511   0.00000  Uiso   1.00
C194   C     0.57610   0.67539   0.30545   0.00000  Uiso   1.00
C195   C     0.58806   0.73448   0.26845   0.00000  Uiso   1.00
C196   C     0.50122   0.75326   0.24852   0.00000  Uiso   1.00
C197   C     0.38429   0.80557   0.20426   0.00000  Uiso   1.00
C198   C     0.48524   0.57383   0.36276   0.00000  Uiso   1.00
C199   C     0.55145   0.54055   0.34065   0.00000  Uiso   1.00
C200   C     0.52400   0.47861   0.33648   0.00000  Uiso   1.00
C201   C     0.59534   0.45696   0.31517   0.00000  Uiso   1.00
C202   C     0.54376   0.59362   0.40482   0.00000  Uiso   1.00
C203   C     0.50982   0.57630   0.45459   0.00000  Uiso   1.00
C204   C     0.57467   0.59932   0.48729   0.00000  Uiso   1.00
C205   C     0.48078   0.63645   0.32197   0.00000  Uiso   1.00
C206   C     0.39389   0.65515   0.30210   0.00000  Uiso   1.00
C207   C     0.40572   0.71425   0.26507   0.00000  Uiso   1.00
H208   H     0.73495   0.67584   0.31948   0.00000  Uiso   1.00
H209   H     0.79193   0.58808   0.29005   0.00000  Uiso   1.00
H210   H     0.77775   0.68575   0.40814   0.00000  Uiso   1.00
H211   H     0.66184   0.76460   0.25567   0.00000  Uiso   1.00
H212   H     0.81308   0.47360   0.26471   0.00000  Uiso   1.00
H213   H     0.78317   0.67957   0.51371   0.00000  Uiso   1.00
H214   H     0.53875   0.84583   0.19221   0.00000  Uiso   1.00
H215   H     0.41102   0.54351   0.37563   0.00000  Uiso   1.00
H216   H     0.45022   0.44849   0.34927   0.00000  Uiso   1.00
H217   H     0.43605   0.54616   0.46736   0.00000  Uiso   1.00
H218   H     0.32014   0.62500   0.31490   0.00000  Uiso   1.00
H219   H     0.53574   0.36030   0.31278   0.00000  Uiso   1.00
H220   H     0.50583   0.56627   0.56178   0.00000  Uiso   1.00
H221   H     0.26141   0.73253   0.24028   0.00000  Uiso   1.00
O222   O     0.70605   0.35682   0.27041   0.00000  Uiso   1.00
O223   O     0.66681   0.62705   0.59708   0.00000  Uiso   1.00
O224   O     0.34614   0.84518   0.17528   0.00000  Uiso   1.00
N225   N     0.74242   0.45998   0.27963   0.00000  Uiso   1.00
N226   N     0.71446   0.65254   0.51243   0.00000  Uiso   1.00
N227   N     0.48595   0.80798   0.21187   0.00000  Uiso   1.00
N228   N     0.59318   0.39901   0.30550   0.00000  Uiso   1.00
N229   N     0.56523   0.59157   0.53830   0.00000  Uiso   1.00
N230   N     0.33671   0.74702   0.23773   0.00000  Uiso   1.00
C231   C     0.83115   0.27468   0.06274   0.00000  Uiso   1.00
C232   C     0.90368   0.32546   0.08026   0.00000  Uiso   1.00
C233   C     0.99672   0.31948   0.09996   0.00000  Uiso   1.00
C234   C     0.05178   0.37136   0.11376   0.00000  Uiso   1.00
C235   C     0.17002   0.44173   0.14181   0.00000  Uiso   1.00
C236   C     0.81106   0.30770   0.00828   0.00000  Uiso   1.00
C237   C     0.82623   0.28676   0.96746   0.00000  Uiso   1.00
C238   C     0.80331   0.32369   0.92068   0.00000  Uiso   1.00
C239   C     0.77770   0.36645   0.83698   0.00000  Uiso   1.00
C240   C     0.73232   0.26133   0.09248   0.00000  Uiso   1.00
C241   C     0.68126   0.20140   0.12244   0.00000  Uiso   1.00
C242   C     0.59204   0.19928   0.14654   0.00000  Uiso   1.00
C243   C     0.44416   0.17005   0.19357   0.00000  Uiso   1.00
C244   C     0.76347   0.37747   0.05223   0.00000  Uiso   1.00
C245   C     0.86691   0.38129   0.07455   0.00000  Uiso   1.00
C246   C     0.92184   0.43320   0.08833   0.00000  Uiso   1.00
C247   C     0.01495   0.42729   0.10805   0.00000  Uiso   1.00
C248   C     0.77430   0.36352   0.00257   0.00000  Uiso   1.00
C249   C     0.75135   0.40049   0.95584   0.00000  Uiso   1.00
C250   C     0.76649   0.37962   0.91496   0.00000  Uiso   1.00
C251   C     0.69556   0.31716   0.08677   0.00000  Uiso   1.00
C252   C     0.60639   0.31513   0.11082   0.00000  Uiso   1.00
C253   C     0.55521   0.25522   0.14082   0.00000  Uiso   1.00
H254   H     0.85976   0.23121   0.06718   0.00000  Uiso   1.00
H255   H     0.02515   0.27626   0.10436   0.00000  Uiso   1.00
H256   H     0.85467   0.24355   0.97189   0.00000  Uiso   1.00
H257   H     0.70973   0.15821   0.12685   0.00000  Uiso   1.00
H258   H     0.19231   0.35084   0.14305   0.00000  Uiso   1.00
H259   H     0.83282   0.28185   0.86373   0.00000  Uiso   1.00
H260   H     0.52718   0.10189   0.19050   0.00000  Uiso   1.00
H261   H     0.73484   0.42094   0.04779   0.00000  Uiso   1.00
H262   H     0.89338   0.47640   0.08391   0.00000  Uiso   1.00
H263   H     0.72290   0.44369   0.95144   0.00000  Uiso   1.00
H264   H     0.57796   0.35834   0.10640   0.00000  Uiso   1.00
H265   H     0.08536   0.51328   0.12645   0.00000  Uiso   1.00
H266   H     0.72587   0.44429   0.84713   0.00000  Uiso   1.00
H267   H     0.42024   0.26433   0.17389   0.00000  Uiso   1.00
O268   O     0.24539   0.46513   0.15885   0.00000  Uiso   1.00
O269   O     0.77374   0.37461   0.79239   0.00000  Uiso   1.00
O270   O     0.37276   0.13850   0.22110   0.00000  Uiso   1.00
N271   N     0.14538   0.38145   0.13420   0.00000  Uiso   1.00
N272   N     0.80929   0.31696   0.87304   0.00000  Uiso   1.00
N273   N     0.52353   0.14870   0.17853   0.00000  Uiso   1.00
N274   N     0.08783   0.46886   0.12527   0.00000  Uiso   1.00
N275   N     0.75174   0.40437   0.86411   0.00000  Uiso   1.00
N276   N     0.46598   0.23611   0.16960   0.00000  Uiso   1.00
C277   C     0.85009   0.29950   0.63324   0.00000  Uiso   1.00
C278   C     0.81033   0.29792   0.58203   0.00000  Uiso   1.00
C279   C     0.70994   0.28815   0.57017   0.00000  Uiso   1.00
C280   C     0.68901   0.28841   0.52121   0.00000  Uiso   1.00
C281   C     0.61559   0.28452   0.44713   0.00000  Uiso   1.00
C282   C     0.92346   0.36437   0.62419   0.00000  Uiso   1.00
C283   C     0.91820   0.41046   0.64778   0.00000  Uiso   1.00
C284   C     0.99252   0.46666   0.63432   0.00000  Uiso   1.00
C285   C     0.09478   0.56591   0.62572   0.00000  Uiso   1.00
C286   C     0.91336   0.24844   0.64836   0.00000  Uiso   1.00
C287   C     0.89963   0.19707   0.69228   0.00000  Uiso   1.00
C288   C     0.96546   0.15567   0.69917   0.00000  Uiso   1.00
C289   C     0.05203   0.07493   0.72811   0.00000  Uiso   1.00
C290   C     0.99144   0.31734   0.56739   0.00000  Uiso   1.00
C291   C     0.88710   0.30761   0.54627   0.00000  Uiso   1.00
C292   C     0.86632   0.30789   0.49731   0.00000  Uiso   1.00
C293   C     0.76592   0.29812   0.48538   0.00000  Uiso   1.00
C294   C     0.00023   0.37406   0.58843   0.00000  Uiso   1.00
C295   C     0.07458   0.43020   0.57493   0.00000  Uiso   1.00
C296   C     0.06943   0.47637   0.59849   0.00000  Uiso   1.00
C297   C     0.99013   0.25813   0.61260   0.00000  Uiso   1.00
C298   C     0.05600   0.21681   0.61943   0.00000  Uiso   1.00
C299   C     0.04237   0.16539   0.66334   0.00000  Uiso   1.00
H300   H     0.79033   0.29195   0.66108   0.00000  Uiso   1.00
H301   H     0.65055   0.28065   0.59785   0.00000  Uiso   1.00
H302   H     0.85879   0.40294   0.67546   0.00000  Uiso   1.00
H303   H     0.84021   0.18959   0.71995   0.00000  Uiso   1.00
H304   H     0.52944   0.27242   0.51198   0.00000  Uiso   1.00
H305   H     0.96853   0.53027   0.67563   0.00000  Uiso   1.00
H306   H     0.92936   0.08036   0.76944   0.00000  Uiso   1.00
H307   H     0.05121   0.32488   0.53954   0.00000  Uiso   1.00
H308   H     0.92575   0.31539   0.46964   0.00000  Uiso   1.00
H309   H     0.13398   0.43768   0.54725   0.00000  Uiso   1.00
H310   H     0.11540   0.22432   0.59174   0.00000  Uiso   1.00
H311   H     0.75280   0.30062   0.40791   0.00000  Uiso   1.00
H312   H     0.19190   0.55846   0.57157   0.00000  Uiso   1.00
H313   H     0.15272   0.10856   0.66538   0.00000  Uiso   1.00
O314   O     0.55389   0.27970   0.41615   0.00000  Uiso   1.00
O315   O     0.12996   0.61798   0.63086   0.00000  Uiso   1.00
O316   O     0.07856   0.02771   0.75394   0.00000  Uiso   1.00
N317   N     0.59923   0.28035   0.49708   0.00000  Uiso   1.00
N318   N     0.00974   0.52142   0.65008   0.00000  Uiso   1.00
N319   N     0.97313   0.10081   0.73779   0.00000  Uiso   1.00
N320   N     0.71942   0.29552   0.44109   0.00000  Uiso   1.00
N321   N     0.12993   0.53659   0.59408   0.00000  Uiso   1.00
N322   N     0.09332   0.11598   0.68180   0.00000  Uiso   1.00
C323   C     0.88725   0.15089   0.22563   0.00000  Uiso   1.00
C324   C     0.92773   0.21615   0.23409   0.00000  Uiso   1.00
C325   C     0.87736   0.26625   0.22506   0.00000  Uiso   1.00
C326   C     0.92725   0.32208   0.23523   0.00000  Uiso   1.00
C327   C     0.97535   0.42258   0.24558   0.00000  Uiso   1.00
C328   C     0.89210   0.10028   0.27591   0.00000  Uiso   1.00
C329   C     0.81178   0.05295   0.30204   0.00000  Uiso   1.00
C330   C     0.83169   0.01124   0.34741   0.00000  Uiso   1.00
C331   C     0.82450   0.93182   0.42267   0.00000  Uiso   1.00
C332   C     0.96402   0.14314   0.19025   0.00000  Uiso   1.00
C333   C     0.94417   0.13182   0.14435   0.00000  Uiso   1.00
C334   C     0.02462   0.12617   0.11760   0.00000  Uiso   1.00
C335   C     0.12910   0.11329   0.05985   0.00000  Uiso   1.00
C336   C     0.06541   0.16098   0.25973   0.00000  Uiso   1.00
C337   C     0.02450   0.22163   0.25262   0.00000  Uiso   1.00
C338   C     0.07448   0.27741   0.26279   0.00000  Uiso   1.00
C339   C     0.02419   0.32758   0.25378   0.00000  Uiso   1.00
C340   C     0.98887   0.10576   0.29444   0.00000  Uiso   1.00
C341   C     0.00890   0.06412   0.33977   0.00000  Uiso   1.00
C342   C     0.92863   0.01673   0.36597   0.00000  Uiso   1.00
C343   C     0.06079   0.14862   0.20877   0.00000  Uiso   1.00
C344   C     0.14129   0.14299   0.18208   0.00000  Uiso   1.00
C345   C     0.12157   0.13166   0.13616   0.00000  Uiso   1.00
H346   H     0.81191   0.14662   0.21121   0.00000  Uiso   1.00
H347   H     0.80247   0.26198   0.21073   0.00000  Uiso   1.00
H348   H     0.73691   0.04872   0.28770   0.00000  Uiso   1.00
H349   H     0.86928   0.12758   0.13003   0.00000  Uiso   1.00
H350   H     0.83466   0.39229   0.21839   0.00000  Uiso   1.00
H351   H     0.69642   0.94260   0.38067   0.00000  Uiso   1.00
H352   H     0.97555   0.10889   0.04820   0.00000  Uiso   1.00
H353   H     0.14076   0.16524   0.27415   0.00000  Uiso   1.00
H354   H     0.14936   0.28164   0.27713   0.00000  Uiso   1.00
H355   H     0.08379   0.06837   0.35410   0.00000  Uiso   1.00
H356   H     0.21616   0.14723   0.19643   0.00000  Uiso   1.00
H357   H     0.11621   0.40825   0.27228   0.00000  Uiso   1.00
H358   H     0.97797   0.95855   0.43456   0.00000  Uiso   1.00
H359   H     0.25710   0.12484   0.10209   0.00000  Uiso   1.00
O360   O     0.97515   0.47649   0.24618   0.00000  Uiso   1.00
O361   O     0.79379   0.88650   0.45907   0.00000  Uiso   1.00
O362   O     0.15999   0.10467   0.02288   0.00000  Uiso   1.00
N363   N     0.89975   0.38008   0.23066   0.00000  Uiso   1.00
N364   N     0.77050   0.95965   0.38238   0.00000  Uiso   1.00
N365   N     0.03146   0.11510   0.07155   0.00000  Uiso   1.00
N366   N     0.05125   0.38867   0.25965   0.00000  Uiso   1.00
N367   N     0.92200   0.96823   0.41138   0.00000  Uiso   1.00
N368   N     0.18295   0.12368   0.10055   0.00000  Uiso   1.00
C369   C     0.64896   0.66284   0.13107   0.00000  Uiso   1.00
C370   C     0.57325   0.60435   0.16285   0.00000  Uiso   1.00
C371   C     0.48556   0.60609   0.18622   0.00000  Uiso   1.00
C372   C     0.42632   0.54730   0.21360   0.00000  Uiso   1.00
C373   C     0.30454   0.46536   0.26235   0.00000  Uiso   1.00
C374   C     0.65849   0.65182   0.08017   0.00000  Uiso   1.00
C375   C     0.64248   0.69348   0.03402   0.00000  Uiso   1.00
C376   C     0.65500   0.67466   0.99180   0.00000  Uiso   1.00
C377   C     0.66562   0.66644   0.91218   0.00000  Uiso   1.00
C378   C     0.74991   0.65869   0.15502   0.00000  Uiso   1.00
C379   C     0.81078   0.70613   0.17180   0.00000  Uiso   1.00
C380   C     0.90028   0.69309   0.19259   0.00000  Uiso   1.00
C381   C     0.05284   0.69553   0.22919   0.00000  Uiso   1.00
C382   C     0.69969   0.55535   0.13814   0.00000  Uiso   1.00
C383   C     0.60081   0.54597   0.16669   0.00000  Uiso   1.00
C384   C     0.54168   0.48716   0.19405   0.00000  Uiso   1.00
C385   C     0.45392   0.48881   0.21745   0.00000  Uiso   1.00
C386   C     0.68604   0.59344   0.08401   0.00000  Uiso   1.00
C387   C     0.69859   0.57455   0.04185   0.00000  Uiso   1.00
C388   C     0.68260   0.61616   0.99565   0.00000  Uiso   1.00
C389   C     0.77746   0.60030   0.15887   0.00000  Uiso   1.00
C390   C     0.86689   0.58719   0.17963   0.00000  Uiso   1.00
C391   C     0.92788   0.63459   0.19643   0.00000  Uiso   1.00
H392   H     0.62752   0.70830   0.12807   0.00000  Uiso   1.00
H393   H     0.46426   0.65129   0.18323   0.00000  Uiso   1.00
H394   H     0.62117   0.73866   0.03106   0.00000  Uiso   1.00
H395   H     0.78943   0.75130   0.16882   0.00000  Uiso   1.00
H396   H     0.29540   0.56232   0.24607   0.00000  Uiso   1.00
H397   H     0.62627   0.74657   0.92520   0.00000  Uiso   1.00
H398   H     0.98110   0.77323   0.21569   0.00000  Uiso   1.00
H399   H     0.72114   0.50989   0.14113   0.00000  Uiso   1.00
H400   H     0.56302   0.44198   0.19701   0.00000  Uiso   1.00
H401   H     0.71992   0.52936   0.04484   0.00000  Uiso   1.00
H402   H     0.88819   0.54200   0.18260   0.00000  Uiso   1.00
H403   H     0.37555   0.39244   0.25725   0.00000  Uiso   1.00
H404   H     0.70642   0.57670   0.93638   0.00000  Uiso   1.00
H405   H     0.06125   0.60335   0.22687   0.00000  Uiso   1.00
O406   O     0.22976   0.43629   0.28817   0.00000  Uiso   1.00
O407   O     0.66386   0.67803   0.86720   0.00000  Uiso   1.00
O408   O     0.12938   0.71300   0.24832   0.00000  Uiso   1.00
N409   N     0.33597   0.53166   0.24104   0.00000  Uiso   1.00
N410   N     0.64530   0.70392   0.94104   0.00000  Uiso   1.00
N411   N     0.97705   0.72885   0.21262   0.00000  Uiso   1.00
N412   N     0.37910   0.44025   0.24706   0.00000  Uiso   1.00
N413   N     0.68843   0.61251   0.94706   0.00000  Uiso   1.00
N414   N     0.02017   0.63744   0.21864   0.00000  Uiso   1.00
C415   C     0.26939   0.95537   0.38558   0.00000  Uiso   1.00
C416   C     0.21163   0.93077   0.43627   0.00000  Uiso   1.00
C417   C     0.11137   0.89913   0.44489   0.00000  Uiso   1.00
C418   C     0.07244   0.88048   0.49393   0.00000  Uiso   1.00
C419   C     0.97373   0.84039   0.56669   0.00000  Uiso   1.00
C420   C     0.31134   0.02723   0.37687   0.00000  Uiso   1.00
C421   C     0.29491   0.07669   0.33555   0.00000  Uiso   1.00
C422   C     0.33993   0.13925   0.33459   0.00000  Uiso   1.00
C423   C     0.39607   0.24892   0.31512   0.00000  Uiso   1.00
C424   C     0.35999   0.92398   0.39279   0.00000  Uiso   1.00
C425   C     0.38449   0.88664   0.36485   0.00000  Uiso   1.00
C426   C     0.47047   0.86228   0.37728   0.00000  Uiso   1.00
C427   C     0.60215   0.81164   0.38253   0.00000  Uiso   1.00
C428   C     0.37854   0.97851   0.45734   0.00000  Uiso   1.00
C429   C     0.27092   0.94333   0.47524   0.00000  Uiso   1.00
C430   C     0.23214   0.92472   0.52428   0.00000  Uiso   1.00
C431   C     0.13183   0.89306   0.53298   0.00000  Uiso   1.00
C432   C     0.37062   0.03980   0.41585   0.00000  Uiso   1.00
C433   C     0.41568   0.10229   0.41494   0.00000  Uiso   1.00
C434   C     0.39932   0.15184   0.37363   0.00000  Uiso   1.00
C435   C     0.41928   0.93654   0.43177   0.00000  Uiso   1.00
C436   C     0.50525   0.91224   0.44424   0.00000  Uiso   1.00
C437   C     0.52987   0.87487   0.41633   0.00000  Uiso   1.00
H438   H     0.22323   0.94559   0.35524   0.00000  Uiso   1.00
H439   H     0.06551   0.88942   0.41471   0.00000  Uiso   1.00
H440   H     0.24904   0.06696   0.30539   0.00000  Uiso   1.00
H441   H     0.33859   0.87693   0.33469   0.00000  Uiso   1.00
H442   H     0.91678   0.83270   0.49784   0.00000  Uiso   1.00
H443   H     0.30378   0.20705   0.26732   0.00000  Uiso   1.00
H444   H     0.49263   0.80635   0.32909   0.00000  Uiso   1.00
H445   H     0.42470   0.98829   0.48769   0.00000  Uiso   1.00
H446   H     0.27803   0.93445   0.55444   0.00000  Uiso   1.00
H447   H     0.46156   0.11199   0.44511   0.00000  Uiso   1.00
H448   H     0.55111   0.92197   0.47441   0.00000  Uiso   1.00
H449   H     0.08927   0.86926   0.61124   0.00000  Uiso   1.00
H450   H     0.47628   0.24360   0.38072   0.00000  Uiso   1.00
H451   H     0.66512   0.84290   0.44249   0.00000  Uiso   1.00
O452   O     0.90290   0.81481   0.59606   0.00000  Uiso   1.00
O453   O     0.41065   0.30594   0.29361   0.00000  Uiso   1.00
O454   O     0.65840   0.78023   0.37466   0.00000  Uiso   1.00
N455   N     0.97751   0.84868   0.51537   0.00000  Uiso   1.00
N456   N     0.33932   0.19867   0.29985   0.00000  Uiso   1.00
N457   N     0.51589   0.82406   0.35759   0.00000  Uiso   1.00
N458   N     0.07033   0.86835   0.57639   0.00000  Uiso   1.00
N459   N     0.43214   0.21834   0.36087   0.00000  Uiso   1.00
N460   N     0.60871   0.84373   0.41862   0.00000  Uiso   1.00
C461   C     0.33926   0.35448   0.66766   0.00000  Uiso   1.00
C462   C     0.35322   0.42051   0.67587   0.00000  Uiso   1.00
C463   C     0.28183   0.44207   0.69718   0.00000  Uiso   1.00
C464   C     0.30917   0.50403   0.70138   0.00000  Uiso   1.00
C465   C     0.31633   0.60064   0.71662   0.00000  Uiso   1.00
C466   C     0.36092   0.36744   0.61170   0.00000  Uiso   1.00
C467   C     0.29601   0.34438   0.57907   0.00000  Uiso   1.00
C468   C     0.32983   0.36167   0.52926   0.00000  Uiso   1.00
C469   C     0.34898   0.37587   0.44489   0.00000  Uiso   1.00
C470   C     0.42390   0.32461   0.69455   0.00000  Uiso   1.00
C471   C     0.41194   0.26552   0.73155   0.00000  Uiso   1.00
C472   C     0.49878   0.24674   0.75148   0.00000  Uiso   1.00
C473   C     0.61571   0.19443   0.79574   0.00000  Uiso   1.00
C474   C     0.51476   0.42617   0.63724   0.00000  Uiso   1.00
C475   C     0.44855   0.45945   0.65935   0.00000  Uiso   1.00
C476   C     0.47600   0.52139   0.66352   0.00000  Uiso   1.00
C477   C     0.40466   0.54304   0.68483   0.00000  Uiso   1.00
C478   C     0.45624   0.40638   0.59518   0.00000  Uiso   1.00
C479   C     0.49018   0.42370   0.54541   0.00000  Uiso   1.00
C480   C     0.42533   0.40068   0.51271   0.00000  Uiso   1.00
C481   C     0.51922   0.36355   0.67803   0.00000  Uiso   1.00
C482   C     0.60611   0.34485   0.69790   0.00000  Uiso   1.00
C483   C     0.59428   0.28575   0.73493   0.00000  Uiso   1.00
H484   H     0.26505   0.32416   0.68052   0.00000  Uiso   1.00
H485   H     0.20807   0.41192   0.70995   0.00000  Uiso   1.00
H486   H     0.22225   0.31425   0.59186   0.00000  Uiso   1.00
H487   H     0.33816   0.23540   0.74433   0.00000  Uiso   1.00
H488   H     0.18692   0.52640   0.73529   0.00000  Uiso   1.00
H489   H     0.21683   0.32043   0.48629   0.00000  Uiso   1.00
H490   H     0.46125   0.15417   0.80779   0.00000  Uiso   1.00
H491   H     0.58898   0.45649   0.62437   0.00000  Uiso   1.00
H492   H     0.54978   0.55151   0.65073   0.00000  Uiso   1.00
H493   H     0.56395   0.45384   0.53264   0.00000  Uiso   1.00
H494   H     0.67986   0.37500   0.68510   0.00000  Uiso   1.00
H495   H     0.46426   0.63970   0.68722   0.00000  Uiso   1.00
H496   H     0.49417   0.43373   0.43822   0.00000  Uiso   1.00
H497   H     0.73859   0.26747   0.75972   0.00000  Uiso   1.00
O498   O     0.29395   0.64318   0.72959   0.00000  Uiso   1.00
O499   O     0.33319   0.37295   0.40292   0.00000  Uiso   1.00
O500   O     0.65386   0.15482   0.82472   0.00000  Uiso   1.00
N501   N     0.25758   0.54002   0.72037   0.00000  Uiso   1.00
N502   N     0.28554   0.34746   0.48757   0.00000  Uiso   1.00
N503   N     0.51405   0.19202   0.78813   0.00000  Uiso   1.00
N504   N     0.40682   0.60099   0.69450   0.00000  Uiso   1.00
N505   N     0.43477   0.40843   0.46170   0.00000  Uiso   1.00
N506   N     0.66329   0.25298   0.76227   0.00000  Uiso   1.00
C507   C     0.16885   0.72532   0.93726   0.00000  Uiso   1.00
C508   C     0.09632   0.67454   0.91974   0.00000  Uiso   1.00
C509   C     0.00328   0.68052   0.90004   0.00000  Uiso   1.00
C510   C     0.94822   0.62864   0.88624   0.00000  Uiso   1.00
C511   C     0.82998   0.55827   0.85819   0.00000  Uiso   1.00
C512   C     0.18894   0.69230   0.99172   0.00000  Uiso   1.00
C513   C     0.17377   0.71324   0.03254   0.00000  Uiso   1.00
C514   C     0.19669   0.67631   0.07932   0.00000  Uiso   1.00
C515   C     0.22230   0.63355   0.16302   0.00000  Uiso   1.00
C516   C     0.26768   0.73867   0.90752   0.00000  Uiso   1.00
C517   C     0.31874   0.79860   0.87756   0.00000  Uiso   1.00
C518   C     0.40796   0.80072   0.85346   0.00000  Uiso   1.00
C519   C     0.55584   0.82995   0.80643   0.00000  Uiso   1.00
C520   C     0.23653   0.62253   0.94777   0.00000  Uiso   1.00
C521   C     0.13309   0.61871   0.92545   0.00000  Uiso   1.00
C522   C     0.07816   0.56680   0.91167   0.00000  Uiso   1.00
C523   C     0.98505   0.57271   0.89195   0.00000  Uiso   1.00
C524   C     0.22570   0.63648   0.99743   0.00000  Uiso   1.00
C525   C     0.24865   0.59951   0.04416   0.00000  Uiso   1.00
C526   C     0.23351   0.62038   0.08504   0.00000  Uiso   1.00
C527   C     0.30444   0.68284   0.91323   0.00000  Uiso   1.00
C528   C     0.39361   0.68487   0.88918   0.00000  Uiso   1.00
C529   C     0.44479   0.74478   0.85918   0.00000  Uiso   1.00
H530   H     0.14024   0.76879   0.93282   0.00000  Uiso   1.00
H531   H     0.97485   0.72374   0.89564   0.00000  Uiso   1.00
H532   H     0.14533   0.75645   0.02811   0.00000  Uiso   1.00
H533   H     0.29027   0.84179   0.87315   0.00000  Uiso   1.00
H534   H     0.80769   0.64916   0.85695   0.00000  Uiso   1.00
H535   H     0.16718   0.71815   0.13627   0.00000  Uiso   1.00
H536   H     0.47282   0.89811   0.80950   0.00000  Uiso   1.00
H537   H     0.26516   0.57906   0.95221   0.00000  Uiso   1.00
H538   H     0.10662   0.52360   0.91609   0.00000  Uiso   1.00
H539   H     0.27710   0.55631   0.04856   0.00000  Uiso   1.00
H540   H     0.42204   0.64166   0.89360   0.00000  Uiso   1.00
H541   H     0.91464   0.48672   0.87355   0.00000  Uiso   1.00
H542   H     0.27413   0.55571   0.15287   0.00000  Uiso   1.00
H543   H     0.57976   0.73567   0.82611   0.00000  Uiso   1.00
O544   O     0.75461   0.53487   0.84115   0.00000  Uiso   1.00
O545   O     0.22626   0.62539   0.20761   0.00000  Uiso   1.00
O546   O     0.62724   0.86150   0.77890   0.00000  Uiso   1.00
N547   N     0.85462   0.61855   0.86580   0.00000  Uiso   1.00
N548   N     0.19071   0.68304   0.12696   0.00000  Uiso   1.00
N549   N     0.47647   0.85130   0.82147   0.00000  Uiso   1.00
N550   N     0.91217   0.53114   0.87473   0.00000  Uiso   1.00
N551   N     0.24826   0.59563   0.13589   0.00000  Uiso   1.00
N552   N     0.53402   0.76389   0.83040   0.00000  Uiso   1.00
