data_job_01128
_audit_creation_date              2018-12-19
_audit_creation_method            'Materials Studio'
_symmetry_space_group_name_H-M    'P1'
_symmetry_Int_Tables_number       1
_symmetry_cell_setting            triclinic
loop_
_symmetry_equiv_pos_as_xyz
  x,y,z
_cell_length_a                    18.4128
_cell_length_b                    18.4128
_cell_length_c                    15.8979
_cell_angle_alpha                 90.0000
_cell_angle_beta                  90.0000
_cell_angle_gamma                 90.0000
loop_
_atom_site_label
_atom_site_type_symbol
_atom_site_fract_x
_atom_site_fract_y
_atom_site_fract_z
_atom_site_U_iso_or_equiv
_atom_site_adp_type
_atom_site_occupancy
C1     C     0.79030   0.86028   0.86522   0.00000  Uiso   1.00
C2     C     0.81963   0.90381   0.79102   0.00000  Uiso   1.00
C3     C     0.86751   0.96185   0.79618   0.00000  Uiso   1.00
C4     C     0.88783   0.99449   0.72106   0.00000  Uiso   1.00
C5     C     0.93739   0.06585   0.61764   0.00000  Uiso   1.00
C6     C     0.70777   0.86477   0.85925   0.00000  Uiso   1.00
C7     C     0.66159   0.88997   0.92177   0.00000  Uiso   1.00
C8     C     0.58775   0.88974   0.90408   0.00000  Uiso   1.00
C9     C     0.46364   0.90043   0.90660   0.00000  Uiso   1.00
C10    C     0.80990   0.78125   0.84768   0.00000  Uiso   1.00
C11    C     0.84959   0.73622   0.90048   0.00000  Uiso   1.00
C12    C     0.86172   0.66566   0.87305   0.00000  Uiso   1.00
C13    C     0.89618   0.54669   0.85761   0.00000  Uiso   1.00
C14    C     0.74126   0.81504   0.72264   0.00000  Uiso   1.00
C15    C     0.79299   0.87924   0.71358   0.00000  Uiso   1.00
C16    C     0.81325   0.91180   0.63843   0.00000  Uiso   1.00
C17    C     0.86115   0.96987   0.64347   0.00000  Uiso   1.00
C18    C     0.68113   0.84020   0.78180   0.00000  Uiso   1.00
C19    C     0.60734   0.83992   0.76402   0.00000  Uiso   1.00
C20    C     0.56106   0.86512   0.82649   0.00000  Uiso   1.00
C21    C     0.78326   0.75668   0.77023   0.00000  Uiso   1.00
C22    C     0.79533   0.68617   0.74272   0.00000  Uiso   1.00
C23    C     0.83503   0.64105   0.79547   0.00000  Uiso   1.00
H24    H     0.81104   0.87941   0.92552   0.00000  Uiso   1.00
H25    H     0.88810   0.98086   0.85613   0.00000  Uiso   1.00
H26    H     0.68222   0.90898   0.98170   0.00000  Uiso   1.00
H27    H     0.87019   0.75526   0.96041   0.00000  Uiso   1.00
H28    H     0.96178   0.08251   0.74505   0.00000  Uiso   1.00
H29    H     0.52767   0.93093   0.00983   0.00000  Uiso   1.00
H30    H     0.92403   0.60678   0.96494   0.00000  Uiso   1.00
H31    H     0.72052   0.79590   0.66234   0.00000  Uiso   1.00
H32    H     0.79262   0.89277   0.57850   0.00000  Uiso   1.00
H33    H     0.58674   0.82090   0.70408   0.00000  Uiso   1.00
H34    H     0.77471   0.66717   0.68279   0.00000  Uiso   1.00
H35    H     0.88428   0.01102   0.51972   0.00000  Uiso   1.00
H36    H     0.45017   0.85944   0.78451   0.00000  Uiso   1.00
H37    H     0.84653   0.53529   0.73961   0.00000  Uiso   1.00
O38    O     0.97207   0.11201   0.58199   0.00000  Uiso   1.00
O39    O     0.40254   0.91313   0.92938   0.00000  Uiso   1.00
O40    O     0.92256   0.48785   0.87047   0.00000  Uiso   1.00
N41    N     0.93365   0.05238   0.70352   0.00000  Uiso   1.00
N42    N     0.52779   0.91068   0.95107   0.00000  Uiso   1.00
N43    N     0.89834   0.60761   0.90911   0.00000  Uiso   1.00
N44    N     0.89196   0.01391   0.58227   0.00000  Uiso   1.00
N45    N     0.48609   0.87221   0.82983   0.00000  Uiso   1.00
N46    N     0.85664   0.56914   0.78786   0.00000  Uiso   1.00
C47    C     0.29030   0.36028   0.36522   0.00000  Uiso   1.00
C48    C     0.31963   0.40381   0.29102   0.00000  Uiso   1.00
C49    C     0.36751   0.46185   0.29618   0.00000  Uiso   1.00
C50    C     0.38783   0.49449   0.22106   0.00000  Uiso   1.00
C51    C     0.43739   0.56585   0.11764   0.00000  Uiso   1.00
C52    C     0.20777   0.36477   0.35925   0.00000  Uiso   1.00
C53    C     0.16159   0.38997   0.42177   0.00000  Uiso   1.00
C54    C     0.08775   0.38974   0.40408   0.00000  Uiso   1.00
C55    C     0.96364   0.40043   0.40660   0.00000  Uiso   1.00
C56    C     0.30990   0.28125   0.34768   0.00000  Uiso   1.00
C57    C     0.34959   0.23622   0.40048   0.00000  Uiso   1.00
C58    C     0.36172   0.16566   0.37305   0.00000  Uiso   1.00
C59    C     0.39618   0.04669   0.35761   0.00000  Uiso   1.00
C60    C     0.24126   0.31504   0.22264   0.00000  Uiso   1.00
C61    C     0.29299   0.37924   0.21358   0.00000  Uiso   1.00
C62    C     0.31325   0.41180   0.13843   0.00000  Uiso   1.00
C63    C     0.36115   0.46987   0.14347   0.00000  Uiso   1.00
C64    C     0.18113   0.34020   0.28180   0.00000  Uiso   1.00
C65    C     0.10734   0.33992   0.26402   0.00000  Uiso   1.00
C66    C     0.06106   0.36512   0.32649   0.00000  Uiso   1.00
C67    C     0.28326   0.25668   0.27023   0.00000  Uiso   1.00
C68    C     0.29533   0.18617   0.24272   0.00000  Uiso   1.00
C69    C     0.33503   0.14105   0.29547   0.00000  Uiso   1.00
H70    H     0.31104   0.37941   0.42552   0.00000  Uiso   1.00
H71    H     0.38810   0.48086   0.35613   0.00000  Uiso   1.00
H72    H     0.18222   0.40898   0.48170   0.00000  Uiso   1.00
H73    H     0.37019   0.25526   0.46041   0.00000  Uiso   1.00
H74    H     0.46178   0.58251   0.24505   0.00000  Uiso   1.00
H75    H     0.02767   0.43093   0.50983   0.00000  Uiso   1.00
H76    H     0.42403   0.10678   0.46494   0.00000  Uiso   1.00
H77    H     0.22052   0.29590   0.16234   0.00000  Uiso   1.00
H78    H     0.29262   0.39277   0.07850   0.00000  Uiso   1.00
H79    H     0.08674   0.32090   0.20408   0.00000  Uiso   1.00
H80    H     0.27471   0.16717   0.18279   0.00000  Uiso   1.00
H81    H     0.38428   0.51102   0.01972   0.00000  Uiso   1.00
H82    H     0.95017   0.35944   0.28451   0.00000  Uiso   1.00
H83    H     0.34653   0.03529   0.23961   0.00000  Uiso   1.00
O84    O     0.47207   0.61201   0.08199   0.00000  Uiso   1.00
O85    O     0.90254   0.41313   0.42938   0.00000  Uiso   1.00
O86    O     0.42256   0.98785   0.37047   0.00000  Uiso   1.00
N87    N     0.43365   0.55238   0.20352   0.00000  Uiso   1.00
N88    N     0.02779   0.41068   0.45107   0.00000  Uiso   1.00
N89    N     0.39834   0.10761   0.40911   0.00000  Uiso   1.00
N90    N     0.39196   0.51391   0.08227   0.00000  Uiso   1.00
N91    N     0.98609   0.37221   0.32983   0.00000  Uiso   1.00
N92    N     0.35664   0.06914   0.28786   0.00000  Uiso   1.00
C93    C     0.20970   0.13972   0.86522   0.00000  Uiso   1.00
C94    C     0.18037   0.09619   0.79102   0.00000  Uiso   1.00
C95    C     0.13249   0.03815   0.79618   0.00000  Uiso   1.00
C96    C     0.11217   0.00551   0.72106   0.00000  Uiso   1.00
C97    C     0.06261   0.93415   0.61764   0.00000  Uiso   1.00
C98    C     0.29223   0.13523   0.85925   0.00000  Uiso   1.00
C99    C     0.33841   0.11003   0.92177   0.00000  Uiso   1.00
C100   C     0.41225   0.11026   0.90408   0.00000  Uiso   1.00
C101   C     0.53636   0.09957   0.90660   0.00000  Uiso   1.00
C102   C     0.19010   0.21875   0.84768   0.00000  Uiso   1.00
C103   C     0.15041   0.26378   0.90048   0.00000  Uiso   1.00
C104   C     0.13828   0.33434   0.87305   0.00000  Uiso   1.00
C105   C     0.10382   0.45331   0.85761   0.00000  Uiso   1.00
C106   C     0.25874   0.18496   0.72264   0.00000  Uiso   1.00
C107   C     0.20701   0.12076   0.71358   0.00000  Uiso   1.00
C108   C     0.18675   0.08820   0.63843   0.00000  Uiso   1.00
C109   C     0.13885   0.03013   0.64347   0.00000  Uiso   1.00
C110   C     0.31887   0.15980   0.78180   0.00000  Uiso   1.00
C111   C     0.39266   0.16008   0.76402   0.00000  Uiso   1.00
C112   C     0.43894   0.13488   0.82649   0.00000  Uiso   1.00
C113   C     0.21674   0.24332   0.77023   0.00000  Uiso   1.00
C114   C     0.20467   0.31383   0.74272   0.00000  Uiso   1.00
C115   C     0.16497   0.35895   0.79547   0.00000  Uiso   1.00
H116   H     0.18896   0.12059   0.92552   0.00000  Uiso   1.00
H117   H     0.11190   0.01914   0.85613   0.00000  Uiso   1.00
H118   H     0.31778   0.09102   0.98170   0.00000  Uiso   1.00
H119   H     0.12981   0.24474   0.96041   0.00000  Uiso   1.00
H120   H     0.03822   0.91749   0.74505   0.00000  Uiso   1.00
H121   H     0.47233   0.06907   0.00983   0.00000  Uiso   1.00
H122   H     0.07597   0.39322   0.96494   0.00000  Uiso   1.00
H123   H     0.27948   0.20410   0.66234   0.00000  Uiso   1.00
H124   H     0.20738   0.10723   0.57850   0.00000  Uiso   1.00
H125   H     0.41326   0.17910   0.70408   0.00000  Uiso   1.00
H126   H     0.22529   0.33283   0.68279   0.00000  Uiso   1.00
H127   H     0.11572   0.98898   0.51972   0.00000  Uiso   1.00
H128   H     0.54983   0.14056   0.78451   0.00000  Uiso   1.00
H129   H     0.15347   0.46471   0.73961   0.00000  Uiso   1.00
O130   O     0.02793   0.88799   0.58199   0.00000  Uiso   1.00
O131   O     0.59746   0.08687   0.92938   0.00000  Uiso   1.00
O132   O     0.07744   0.51215   0.87047   0.00000  Uiso   1.00
N133   N     0.06635   0.94762   0.70352   0.00000  Uiso   1.00
N134   N     0.47221   0.08932   0.95107   0.00000  Uiso   1.00
N135   N     0.10166   0.39239   0.90911   0.00000  Uiso   1.00
N136   N     0.10804   0.98609   0.58227   0.00000  Uiso   1.00
N137   N     0.51391   0.12779   0.82983   0.00000  Uiso   1.00
N138   N     0.14336   0.43086   0.78786   0.00000  Uiso   1.00
C139   C     0.70970   0.63972   0.36522   0.00000  Uiso   1.00
C140   C     0.68037   0.59619   0.29102   0.00000  Uiso   1.00
C141   C     0.63249   0.53815   0.29618   0.00000  Uiso   1.00
C142   C     0.61217   0.50551   0.22106   0.00000  Uiso   1.00
C143   C     0.56261   0.43415   0.11764   0.00000  Uiso   1.00
C144   C     0.79223   0.63523   0.35925   0.00000  Uiso   1.00
C145   C     0.83841   0.61003   0.42177   0.00000  Uiso   1.00
C146   C     0.91225   0.61026   0.40408   0.00000  Uiso   1.00
C147   C     0.03636   0.59957   0.40660   0.00000  Uiso   1.00
C148   C     0.69010   0.71875   0.34768   0.00000  Uiso   1.00
C149   C     0.65041   0.76378   0.40048   0.00000  Uiso   1.00
C150   C     0.63828   0.83434   0.37305   0.00000  Uiso   1.00
C151   C     0.60382   0.95331   0.35761   0.00000  Uiso   1.00
C152   C     0.75874   0.68496   0.22264   0.00000  Uiso   1.00
C153   C     0.70701   0.62076   0.21358   0.00000  Uiso   1.00
C154   C     0.68675   0.58820   0.13843   0.00000  Uiso   1.00
C155   C     0.63885   0.53013   0.14347   0.00000  Uiso   1.00
C156   C     0.81887   0.65980   0.28180   0.00000  Uiso   1.00
C157   C     0.89266   0.66008   0.26402   0.00000  Uiso   1.00
C158   C     0.93894   0.63488   0.32649   0.00000  Uiso   1.00
C159   C     0.71674   0.74332   0.27023   0.00000  Uiso   1.00
C160   C     0.70467   0.81383   0.24272   0.00000  Uiso   1.00
C161   C     0.66497   0.85895   0.29547   0.00000  Uiso   1.00
H162   H     0.68896   0.62059   0.42552   0.00000  Uiso   1.00
H163   H     0.61190   0.51914   0.35613   0.00000  Uiso   1.00
H164   H     0.81778   0.59102   0.48170   0.00000  Uiso   1.00
H165   H     0.62981   0.74474   0.46041   0.00000  Uiso   1.00
H166   H     0.53822   0.41749   0.24505   0.00000  Uiso   1.00
H167   H     0.97233   0.56907   0.50983   0.00000  Uiso   1.00
H168   H     0.57597   0.89322   0.46494   0.00000  Uiso   1.00
H169   H     0.77948   0.70410   0.16234   0.00000  Uiso   1.00
H170   H     0.70738   0.60723   0.07850   0.00000  Uiso   1.00
H171   H     0.91326   0.67910   0.20408   0.00000  Uiso   1.00
H172   H     0.72529   0.83283   0.18279   0.00000  Uiso   1.00
H173   H     0.61572   0.48898   0.01972   0.00000  Uiso   1.00
H174   H     0.04983   0.64056   0.28451   0.00000  Uiso   1.00
H175   H     0.65347   0.96471   0.23961   0.00000  Uiso   1.00
O176   O     0.52793   0.38799   0.08199   0.00000  Uiso   1.00
O177   O     0.09746   0.58687   0.42938   0.00000  Uiso   1.00
O178   O     0.57744   0.01215   0.37047   0.00000  Uiso   1.00
N179   N     0.56635   0.44762   0.20352   0.00000  Uiso   1.00
N180   N     0.97221   0.58932   0.45107   0.00000  Uiso   1.00
N181   N     0.60166   0.89239   0.40911   0.00000  Uiso   1.00
N182   N     0.60804   0.48609   0.08227   0.00000  Uiso   1.00
N183   N     0.01391   0.62779   0.32983   0.00000  Uiso   1.00
N184   N     0.64336   0.93086   0.28786   0.00000  Uiso   1.00
C185   C     0.86028   0.20970   0.13478   0.00000  Uiso   1.00
C186   C     0.90381   0.18037   0.20898   0.00000  Uiso   1.00
C187   C     0.96185   0.13249   0.20382   0.00000  Uiso   1.00
C188   C     0.99449   0.11217   0.27894   0.00000  Uiso   1.00
C189   C     0.06585   0.06261   0.38236   0.00000  Uiso   1.00
C190   C     0.86477   0.29223   0.14075   0.00000  Uiso   1.00
C191   C     0.88997   0.33841   0.07823   0.00000  Uiso   1.00
C192   C     0.88974   0.41225   0.09592   0.00000  Uiso   1.00
C193   C     0.90043   0.53636   0.09340   0.00000  Uiso   1.00
C194   C     0.78125   0.19010   0.15232   0.00000  Uiso   1.00
C195   C     0.73622   0.15041   0.09952   0.00000  Uiso   1.00
C196   C     0.66566   0.13828   0.12695   0.00000  Uiso   1.00
C197   C     0.54669   0.10382   0.14239   0.00000  Uiso   1.00
C198   C     0.81504   0.25874   0.27736   0.00000  Uiso   1.00
C199   C     0.87924   0.20701   0.28642   0.00000  Uiso   1.00
C200   C     0.91180   0.18675   0.36157   0.00000  Uiso   1.00
C201   C     0.96987   0.13885   0.35653   0.00000  Uiso   1.00
C202   C     0.84020   0.31887   0.21820   0.00000  Uiso   1.00
C203   C     0.83992   0.39266   0.23598   0.00000  Uiso   1.00
C204   C     0.86512   0.43894   0.17351   0.00000  Uiso   1.00
C205   C     0.75668   0.21674   0.22977   0.00000  Uiso   1.00
C206   C     0.68617   0.20467   0.25728   0.00000  Uiso   1.00
C207   C     0.64105   0.16497   0.20453   0.00000  Uiso   1.00
H208   H     0.87941   0.18896   0.07448   0.00000  Uiso   1.00
H209   H     0.98086   0.11190   0.14387   0.00000  Uiso   1.00
H210   H     0.90898   0.31778   0.01830   0.00000  Uiso   1.00
H211   H     0.75526   0.12981   0.03959   0.00000  Uiso   1.00
H212   H     0.08251   0.03822   0.25495   0.00000  Uiso   1.00
H213   H     0.93093   0.47233   0.99017   0.00000  Uiso   1.00
H214   H     0.60678   0.07597   0.03506   0.00000  Uiso   1.00
H215   H     0.79590   0.27948   0.33766   0.00000  Uiso   1.00
H216   H     0.89277   0.20738   0.42150   0.00000  Uiso   1.00
H217   H     0.82090   0.41326   0.29592   0.00000  Uiso   1.00
H218   H     0.66717   0.22529   0.31721   0.00000  Uiso   1.00
H219   H     0.01102   0.11572   0.48028   0.00000  Uiso   1.00
H220   H     0.85944   0.54983   0.21549   0.00000  Uiso   1.00
H221   H     0.53529   0.15347   0.26039   0.00000  Uiso   1.00
O222   O     0.11201   0.02793   0.41801   0.00000  Uiso   1.00
O223   O     0.91313   0.59746   0.07062   0.00000  Uiso   1.00
O224   O     0.48785   0.07744   0.12953   0.00000  Uiso   1.00
N225   N     0.05238   0.06635   0.29648   0.00000  Uiso   1.00
N226   N     0.91068   0.47221   0.04893   0.00000  Uiso   1.00
N227   N     0.60761   0.10166   0.09089   0.00000  Uiso   1.00
N228   N     0.01391   0.10804   0.41773   0.00000  Uiso   1.00
N229   N     0.87221   0.51391   0.17017   0.00000  Uiso   1.00
N230   N     0.56914   0.14336   0.21214   0.00000  Uiso   1.00
C231   C     0.36028   0.70970   0.63478   0.00000  Uiso   1.00
C232   C     0.40381   0.68037   0.70898   0.00000  Uiso   1.00
C233   C     0.46185   0.63249   0.70382   0.00000  Uiso   1.00
C234   C     0.49449   0.61217   0.77894   0.00000  Uiso   1.00
C235   C     0.56585   0.56261   0.88236   0.00000  Uiso   1.00
C236   C     0.36477   0.79223   0.64075   0.00000  Uiso   1.00
C237   C     0.38997   0.83841   0.57823   0.00000  Uiso   1.00
C238   C     0.38974   0.91225   0.59592   0.00000  Uiso   1.00
C239   C     0.40043   0.03636   0.59340   0.00000  Uiso   1.00
C240   C     0.28125   0.69010   0.65232   0.00000  Uiso   1.00
C241   C     0.23622   0.65041   0.59952   0.00000  Uiso   1.00
C242   C     0.16566   0.63828   0.62695   0.00000  Uiso   1.00
C243   C     0.04669   0.60382   0.64239   0.00000  Uiso   1.00
C244   C     0.31504   0.75874   0.77736   0.00000  Uiso   1.00
C245   C     0.37924   0.70701   0.78642   0.00000  Uiso   1.00
C246   C     0.41180   0.68675   0.86157   0.00000  Uiso   1.00
C247   C     0.46987   0.63885   0.85653   0.00000  Uiso   1.00
C248   C     0.34020   0.81887   0.71820   0.00000  Uiso   1.00
C249   C     0.33992   0.89266   0.73598   0.00000  Uiso   1.00
C250   C     0.36512   0.93894   0.67351   0.00000  Uiso   1.00
C251   C     0.25668   0.71674   0.72977   0.00000  Uiso   1.00
C252   C     0.18617   0.70467   0.75728   0.00000  Uiso   1.00
C253   C     0.14105   0.66497   0.70453   0.00000  Uiso   1.00
H254   H     0.37941   0.68896   0.57448   0.00000  Uiso   1.00
H255   H     0.48086   0.61190   0.64387   0.00000  Uiso   1.00
H256   H     0.40898   0.81778   0.51830   0.00000  Uiso   1.00
H257   H     0.25526   0.62981   0.53959   0.00000  Uiso   1.00
H258   H     0.58251   0.53822   0.75495   0.00000  Uiso   1.00
H259   H     0.43093   0.97233   0.49017   0.00000  Uiso   1.00
H260   H     0.10678   0.57597   0.53506   0.00000  Uiso   1.00
H261   H     0.29590   0.77948   0.83766   0.00000  Uiso   1.00
H262   H     0.39277   0.70738   0.92150   0.00000  Uiso   1.00
H263   H     0.32090   0.91326   0.79592   0.00000  Uiso   1.00
H264   H     0.16717   0.72529   0.81721   0.00000  Uiso   1.00
H265   H     0.51102   0.61572   0.98028   0.00000  Uiso   1.00
H266   H     0.35944   0.04983   0.71549   0.00000  Uiso   1.00
H267   H     0.03529   0.65347   0.76039   0.00000  Uiso   1.00
O268   O     0.61201   0.52793   0.91801   0.00000  Uiso   1.00
O269   O     0.41313   0.09746   0.57062   0.00000  Uiso   1.00
O270   O     0.98785   0.57744   0.62953   0.00000  Uiso   1.00
N271   N     0.55238   0.56635   0.79648   0.00000  Uiso   1.00
N272   N     0.41068   0.97221   0.54893   0.00000  Uiso   1.00
N273   N     0.10761   0.60166   0.59089   0.00000  Uiso   1.00
N274   N     0.51391   0.60804   0.91773   0.00000  Uiso   1.00
N275   N     0.37221   0.01391   0.67017   0.00000  Uiso   1.00
N276   N     0.06914   0.64336   0.71214   0.00000  Uiso   1.00
C277   C     0.13972   0.79030   0.13478   0.00000  Uiso   1.00
C278   C     0.09619   0.81963   0.20898   0.00000  Uiso   1.00
C279   C     0.03815   0.86751   0.20382   0.00000  Uiso   1.00
C280   C     0.00551   0.88783   0.27894   0.00000  Uiso   1.00
C281   C     0.93415   0.93739   0.38236   0.00000  Uiso   1.00
C282   C     0.13523   0.70777   0.14075   0.00000  Uiso   1.00
C283   C     0.11003   0.66159   0.07823   0.00000  Uiso   1.00
C284   C     0.11026   0.58775   0.09592   0.00000  Uiso   1.00
C285   C     0.09957   0.46364   0.09340   0.00000  Uiso   1.00
C286   C     0.21875   0.80990   0.15232   0.00000  Uiso   1.00
C287   C     0.26378   0.84959   0.09952   0.00000  Uiso   1.00
C288   C     0.33434   0.86172   0.12695   0.00000  Uiso   1.00
C289   C     0.45331   0.89618   0.14239   0.00000  Uiso   1.00
C290   C     0.18496   0.74126   0.27736   0.00000  Uiso   1.00
C291   C     0.12076   0.79299   0.28642   0.00000  Uiso   1.00
C292   C     0.08820   0.81325   0.36157   0.00000  Uiso   1.00
C293   C     0.03013   0.86115   0.35653   0.00000  Uiso   1.00
C294   C     0.15980   0.68113   0.21820   0.00000  Uiso   1.00
C295   C     0.16008   0.60734   0.23598   0.00000  Uiso   1.00
C296   C     0.13488   0.56106   0.17351   0.00000  Uiso   1.00
C297   C     0.24332   0.78326   0.22977   0.00000  Uiso   1.00
C298   C     0.31383   0.79533   0.25728   0.00000  Uiso   1.00
C299   C     0.35895   0.83503   0.20453   0.00000  Uiso   1.00
H300   H     0.12059   0.81104   0.07448   0.00000  Uiso   1.00
H301   H     0.01914   0.88810   0.14387   0.00000  Uiso   1.00
H302   H     0.09102   0.68222   0.01830   0.00000  Uiso   1.00
H303   H     0.24474   0.87019   0.03959   0.00000  Uiso   1.00
H304   H     0.91749   0.96178   0.25495   0.00000  Uiso   1.00
H305   H     0.06907   0.52767   0.99017   0.00000  Uiso   1.00
H306   H     0.39322   0.92403   0.03506   0.00000  Uiso   1.00
H307   H     0.20410   0.72052   0.33766   0.00000  Uiso   1.00
H308   H     0.10723   0.79262   0.42150   0.00000  Uiso   1.00
H309   H     0.17910   0.58674   0.29592   0.00000  Uiso   1.00
H310   H     0.33283   0.77471   0.31721   0.00000  Uiso   1.00
H311   H     0.98898   0.88428   0.48028   0.00000  Uiso   1.00
H312   H     0.14056   0.45017   0.21549   0.00000  Uiso   1.00
H313   H     0.46471   0.84653   0.26039   0.00000  Uiso   1.00
O314   O     0.88799   0.97207   0.41801   0.00000  Uiso   1.00
O315   O     0.08687   0.40254   0.07062   0.00000  Uiso   1.00
O316   O     0.51215   0.92256   0.12953   0.00000  Uiso   1.00
N317   N     0.94762   0.93365   0.29648   0.00000  Uiso   1.00
N318   N     0.08932   0.52779   0.04893   0.00000  Uiso   1.00
N319   N     0.39239   0.89834   0.09089   0.00000  Uiso   1.00
N320   N     0.98609   0.89196   0.41773   0.00000  Uiso   1.00
N321   N     0.12779   0.48609   0.17017   0.00000  Uiso   1.00
N322   N     0.43086   0.85664   0.21214   0.00000  Uiso   1.00
C323   C     0.63972   0.29030   0.63478   0.00000  Uiso   1.00
C324   C     0.59619   0.31963   0.70898   0.00000  Uiso   1.00
C325   C     0.53815   0.36751   0.70382   0.00000  Uiso   1.00
C326   C     0.50551   0.38783   0.77894   0.00000  Uiso   1.00
C327   C     0.43415   0.43739   0.88236   0.00000  Uiso   1.00
C328   C     0.63523   0.20777   0.64075   0.00000  Uiso   1.00
C329   C     0.61003   0.16159   0.57823   0.00000  Uiso   1.00
C330   C     0.61026   0.08775   0.59592   0.00000  Uiso   1.00
C331   C     0.59957   0.96364   0.59340   0.00000  Uiso   1.00
C332   C     0.71875   0.30990   0.65232   0.00000  Uiso   1.00
C333   C     0.76378   0.34959   0.59952   0.00000  Uiso   1.00
C334   C     0.83434   0.36172   0.62695   0.00000  Uiso   1.00
C335   C     0.95331   0.39618   0.64239   0.00000  Uiso   1.00
C336   C     0.68496   0.24126   0.77736   0.00000  Uiso   1.00
C337   C     0.62076   0.29299   0.78642   0.00000  Uiso   1.00
C338   C     0.58820   0.31325   0.86157   0.00000  Uiso   1.00
C339   C     0.53013   0.36115   0.85653   0.00000  Uiso   1.00
C340   C     0.65980   0.18113   0.71820   0.00000  Uiso   1.00
C341   C     0.66008   0.10734   0.73598   0.00000  Uiso   1.00
C342   C     0.63488   0.06106   0.67351   0.00000  Uiso   1.00
C343   C     0.74332   0.28326   0.72977   0.00000  Uiso   1.00
C344   C     0.81383   0.29533   0.75728   0.00000  Uiso   1.00
C345   C     0.85895   0.33503   0.70453   0.00000  Uiso   1.00
H346   H     0.62059   0.31104   0.57448   0.00000  Uiso   1.00
H347   H     0.51914   0.38810   0.64387   0.00000  Uiso   1.00
H348   H     0.59102   0.18222   0.51830   0.00000  Uiso   1.00
H349   H     0.74474   0.37019   0.53959   0.00000  Uiso   1.00
H350   H     0.41749   0.46178   0.75495   0.00000  Uiso   1.00
H351   H     0.56907   0.02767   0.49017   0.00000  Uiso   1.00
H352   H     0.89322   0.42403   0.53506   0.00000  Uiso   1.00
H353   H     0.70410   0.22052   0.83766   0.00000  Uiso   1.00
H354   H     0.60723   0.29262   0.92150   0.00000  Uiso   1.00
H355   H     0.67910   0.08674   0.79592   0.00000  Uiso   1.00
H356   H     0.83283   0.27471   0.81721   0.00000  Uiso   1.00
H357   H     0.48898   0.38428   0.98028   0.00000  Uiso   1.00
H358   H     0.64056   0.95017   0.71549   0.00000  Uiso   1.00
H359   H     0.96471   0.34653   0.76039   0.00000  Uiso   1.00
O360   O     0.38799   0.47207   0.91801   0.00000  Uiso   1.00
O361   O     0.58687   0.90254   0.57062   0.00000  Uiso   1.00
O362   O     0.01215   0.42256   0.62953   0.00000  Uiso   1.00
N363   N     0.44762   0.43365   0.79648   0.00000  Uiso   1.00
N364   N     0.58932   0.02779   0.54893   0.00000  Uiso   1.00
N365   N     0.89239   0.39834   0.59089   0.00000  Uiso   1.00
N366   N     0.48609   0.39196   0.91773   0.00000  Uiso   1.00
N367   N     0.62779   0.98609   0.67017   0.00000  Uiso   1.00
N368   N     0.93086   0.35664   0.71214   0.00000  Uiso   1.00
