data_job_02620
_audit_creation_date              2018-12-19
_audit_creation_method            'Materials Studio'
_symmetry_space_group_name_H-M    'P1'
_symmetry_Int_Tables_number       1
_symmetry_cell_setting            triclinic
loop_
_symmetry_equiv_pos_as_xyz
  x,y,z
_cell_length_a                    19.1848
_cell_length_b                    19.1848
_cell_length_c                    11.6443
_cell_angle_alpha                 90.0000
_cell_angle_beta                  90.0000
_cell_angle_gamma                 90.0000
loop_
_atom_site_label
_atom_site_type_symbol
_atom_site_fract_x
_atom_site_fract_y
_atom_site_fract_z
_atom_site_U_iso_or_equiv
_atom_site_adp_type
_atom_site_occupancy
C1     C     0.78987   0.45077   0.33769   0.00000  Uiso   1.00
C2     C     0.72048   0.48711   0.31542   0.00000  Uiso   1.00
C3     C     0.68910   0.49555   0.20895   0.00000  Uiso   1.00
C4     C     0.62563   0.53030   0.20664   0.00000  Uiso   1.00
C5     C     0.52261   0.58290   0.15674   0.00000  Uiso   1.00
C6     C     0.83547   0.50384   0.39983   0.00000  Uiso   1.00
C7     C     0.90076   0.52633   0.36434   0.00000  Uiso   1.00
C8     C     0.93409   0.57516   0.43311   0.00000  Uiso   1.00
C9     C     0.00961   0.65369   0.51431   0.00000  Uiso   1.00
C10    C     0.77468   0.39338   0.42477   0.00000  Uiso   1.00
C11    C     0.78887   0.32300   0.41026   0.00000  Uiso   1.00
C12    C     0.77104   0.27883   0.50003   0.00000  Uiso   1.00
C13    C     0.75217   0.18586   0.61995   0.00000  Uiso   1.00
C14    C     0.73298   0.49749   0.52294   0.00000  Uiso   1.00
C15    C     0.68958   0.51249   0.41604   0.00000  Uiso   1.00
C16    C     0.62615   0.54724   0.41390   0.00000  Uiso   1.00
C17    C     0.59467   0.55572   0.30744   0.00000  Uiso   1.00
C18    C     0.80457   0.52922   0.50045   0.00000  Uiso   1.00
C19    C     0.83781   0.57802   0.56929   0.00000  Uiso   1.00
C20    C     0.90314   0.60058   0.53391   0.00000  Uiso   1.00
C21    C     0.74377   0.41876   0.52539   0.00000  Uiso   1.00
C22    C     0.72592   0.37469   0.61521   0.00000  Uiso   1.00
C23    C     0.74008   0.30425   0.60083   0.00000  Uiso   1.00
H24    H     0.81393   0.43102   0.25936   0.00000  Uiso   1.00
H25    H     0.71303   0.47591   0.13110   0.00000  Uiso   1.00
H26    H     0.92466   0.50668   0.28648   0.00000  Uiso   1.00
H27    H     0.81279   0.30338   0.33238   0.00000  Uiso   1.00
H28    H     0.58755   0.53689   0.03326   0.00000  Uiso   1.00
H29    H     0.03380   0.60176   0.36091   0.00000  Uiso   1.00
H30    H     0.79789   0.17306   0.45771   0.00000  Uiso   1.00
H31    H     0.70892   0.51725   0.60128   0.00000  Uiso   1.00
H32    H     0.60225   0.56687   0.49177   0.00000  Uiso   1.00
H33    H     0.81388   0.59764   0.64715   0.00000  Uiso   1.00
H34    H     0.70201   0.39435   0.69306   0.00000  Uiso   1.00
H35    H     0.49763   0.61072   0.32600   0.00000  Uiso   1.00
H36    H     0.94389   0.67559   0.65365   0.00000  Uiso   1.00
H37    H     0.70798   0.24689   0.75045   0.00000  Uiso   1.00
O38    O     0.47433   0.60491   0.10142   0.00000  Uiso   1.00
O39    O     0.05980   0.69000   0.53130   0.00000  Uiso   1.00
O40    O     0.75029   0.12757   0.65829   0.00000  Uiso   1.00
N41    N     0.58102   0.54745   0.11719   0.00000  Uiso   1.00
N42    N     0.99823   0.60810   0.42351   0.00000  Uiso   1.00
N43    N     0.77769   0.20731   0.51402   0.00000  Uiso   1.00
N44    N     0.53264   0.58717   0.27471   0.00000  Uiso   1.00
N45    N     0.94985   0.64783   0.58103   0.00000  Uiso   1.00
N46    N     0.72931   0.24704   0.67154   0.00000  Uiso   1.00
C47    C     0.21013   0.54923   0.33769   0.00000  Uiso   1.00
C48    C     0.27952   0.51289   0.31542   0.00000  Uiso   1.00
C49    C     0.31090   0.50445   0.20895   0.00000  Uiso   1.00
C50    C     0.37437   0.46970   0.20664   0.00000  Uiso   1.00
C51    C     0.47739   0.41710   0.15674   0.00000  Uiso   1.00
C52    C     0.16453   0.49616   0.39983   0.00000  Uiso   1.00
C53    C     0.09924   0.47367   0.36434   0.00000  Uiso   1.00
C54    C     0.06591   0.42484   0.43311   0.00000  Uiso   1.00
C55    C     0.99039   0.34631   0.51431   0.00000  Uiso   1.00
C56    C     0.22532   0.60662   0.42477   0.00000  Uiso   1.00
C57    C     0.21113   0.67700   0.41026   0.00000  Uiso   1.00
C58    C     0.22896   0.72117   0.50003   0.00000  Uiso   1.00
C59    C     0.24783   0.81414   0.61995   0.00000  Uiso   1.00
C60    C     0.26702   0.50251   0.52294   0.00000  Uiso   1.00
C61    C     0.31042   0.48751   0.41604   0.00000  Uiso   1.00
C62    C     0.37385   0.45276   0.41390   0.00000  Uiso   1.00
C63    C     0.40533   0.44428   0.30744   0.00000  Uiso   1.00
C64    C     0.19543   0.47078   0.50045   0.00000  Uiso   1.00
C65    C     0.16219   0.42198   0.56929   0.00000  Uiso   1.00
C66    C     0.09686   0.39942   0.53391   0.00000  Uiso   1.00
C67    C     0.25623   0.58124   0.52539   0.00000  Uiso   1.00
C68    C     0.27408   0.62531   0.61521   0.00000  Uiso   1.00
C69    C     0.25992   0.69575   0.60083   0.00000  Uiso   1.00
H70    H     0.18607   0.56898   0.25936   0.00000  Uiso   1.00
H71    H     0.28697   0.52409   0.13110   0.00000  Uiso   1.00
H72    H     0.07534   0.49332   0.28648   0.00000  Uiso   1.00
H73    H     0.18721   0.69662   0.33238   0.00000  Uiso   1.00
H74    H     0.41245   0.46311   0.03326   0.00000  Uiso   1.00
H75    H     0.96620   0.39824   0.36091   0.00000  Uiso   1.00
H76    H     0.20211   0.82694   0.45771   0.00000  Uiso   1.00
H77    H     0.29108   0.48275   0.60128   0.00000  Uiso   1.00
H78    H     0.39775   0.43313   0.49177   0.00000  Uiso   1.00
H79    H     0.18612   0.40236   0.64715   0.00000  Uiso   1.00
H80    H     0.29799   0.60565   0.69306   0.00000  Uiso   1.00
H81    H     0.50237   0.38928   0.32600   0.00000  Uiso   1.00
H82    H     0.05611   0.32441   0.65365   0.00000  Uiso   1.00
H83    H     0.29202   0.75311   0.75045   0.00000  Uiso   1.00
O84    O     0.52567   0.39509   0.10142   0.00000  Uiso   1.00
O85    O     0.94020   0.31000   0.53130   0.00000  Uiso   1.00
O86    O     0.24971   0.87243   0.65829   0.00000  Uiso   1.00
N87    N     0.41898   0.45255   0.11719   0.00000  Uiso   1.00
N88    N     0.00177   0.39190   0.42351   0.00000  Uiso   1.00
N89    N     0.22231   0.79269   0.51402   0.00000  Uiso   1.00
N90    N     0.46736   0.41283   0.27471   0.00000  Uiso   1.00
N91    N     0.05015   0.35217   0.58103   0.00000  Uiso   1.00
N92    N     0.27069   0.75296   0.67154   0.00000  Uiso   1.00
C93    C     0.45077   0.21013   0.66231   0.00000  Uiso   1.00
C94    C     0.48711   0.27952   0.68458   0.00000  Uiso   1.00
C95    C     0.49555   0.31090   0.79105   0.00000  Uiso   1.00
C96    C     0.53030   0.37437   0.79336   0.00000  Uiso   1.00
C97    C     0.58290   0.47739   0.84326   0.00000  Uiso   1.00
C98    C     0.50384   0.16453   0.60017   0.00000  Uiso   1.00
C99    C     0.52633   0.09924   0.63566   0.00000  Uiso   1.00
C100   C     0.57516   0.06591   0.56689   0.00000  Uiso   1.00
C101   C     0.65369   0.99039   0.48569   0.00000  Uiso   1.00
C102   C     0.39338   0.22532   0.57523   0.00000  Uiso   1.00
C103   C     0.32300   0.21113   0.58974   0.00000  Uiso   1.00
C104   C     0.27883   0.22896   0.49997   0.00000  Uiso   1.00
C105   C     0.18586   0.24783   0.38005   0.00000  Uiso   1.00
C106   C     0.49749   0.26702   0.47706   0.00000  Uiso   1.00
C107   C     0.51249   0.31042   0.58396   0.00000  Uiso   1.00
C108   C     0.54724   0.37385   0.58610   0.00000  Uiso   1.00
C109   C     0.55572   0.40533   0.69256   0.00000  Uiso   1.00
C110   C     0.52922   0.19543   0.49955   0.00000  Uiso   1.00
C111   C     0.57802   0.16219   0.43071   0.00000  Uiso   1.00
C112   C     0.60058   0.09686   0.46609   0.00000  Uiso   1.00
C113   C     0.41876   0.25623   0.47461   0.00000  Uiso   1.00
C114   C     0.37469   0.27408   0.38479   0.00000  Uiso   1.00
C115   C     0.30425   0.25992   0.39917   0.00000  Uiso   1.00
H116   H     0.43102   0.18607   0.74064   0.00000  Uiso   1.00
H117   H     0.47591   0.28697   0.86890   0.00000  Uiso   1.00
H118   H     0.50668   0.07534   0.71352   0.00000  Uiso   1.00
H119   H     0.30338   0.18721   0.66762   0.00000  Uiso   1.00
H120   H     0.53689   0.41245   0.96674   0.00000  Uiso   1.00
H121   H     0.60176   0.96620   0.63909   0.00000  Uiso   1.00
H122   H     0.17306   0.20211   0.54229   0.00000  Uiso   1.00
H123   H     0.51725   0.29108   0.39872   0.00000  Uiso   1.00
H124   H     0.56687   0.39775   0.50823   0.00000  Uiso   1.00
H125   H     0.59764   0.18612   0.35285   0.00000  Uiso   1.00
H126   H     0.39435   0.29799   0.30694   0.00000  Uiso   1.00
H127   H     0.61072   0.50237   0.67400   0.00000  Uiso   1.00
H128   H     0.67559   0.05611   0.34635   0.00000  Uiso   1.00
H129   H     0.24689   0.29202   0.24955   0.00000  Uiso   1.00
O130   O     0.60491   0.52567   0.89858   0.00000  Uiso   1.00
O131   O     0.69000   0.94020   0.46870   0.00000  Uiso   1.00
O132   O     0.12757   0.24971   0.34171   0.00000  Uiso   1.00
N133   N     0.54745   0.41898   0.88281   0.00000  Uiso   1.00
N134   N     0.60810   0.00177   0.57649   0.00000  Uiso   1.00
N135   N     0.20731   0.22231   0.48598   0.00000  Uiso   1.00
N136   N     0.58717   0.46736   0.72529   0.00000  Uiso   1.00
N137   N     0.64783   0.05015   0.41897   0.00000  Uiso   1.00
N138   N     0.24704   0.27069   0.32846   0.00000  Uiso   1.00
C139   C     0.54923   0.78987   0.66231   0.00000  Uiso   1.00
C140   C     0.51289   0.72048   0.68458   0.00000  Uiso   1.00
C141   C     0.50445   0.68910   0.79105   0.00000  Uiso   1.00
C142   C     0.46970   0.62563   0.79336   0.00000  Uiso   1.00
C143   C     0.41710   0.52261   0.84326   0.00000  Uiso   1.00
C144   C     0.49616   0.83547   0.60017   0.00000  Uiso   1.00
C145   C     0.47367   0.90076   0.63566   0.00000  Uiso   1.00
C146   C     0.42484   0.93409   0.56689   0.00000  Uiso   1.00
C147   C     0.34631   0.00961   0.48569   0.00000  Uiso   1.00
C148   C     0.60662   0.77468   0.57523   0.00000  Uiso   1.00
C149   C     0.67700   0.78887   0.58974   0.00000  Uiso   1.00
C150   C     0.72117   0.77104   0.49997   0.00000  Uiso   1.00
C151   C     0.81414   0.75217   0.38005   0.00000  Uiso   1.00
C152   C     0.50251   0.73298   0.47706   0.00000  Uiso   1.00
C153   C     0.48751   0.68958   0.58396   0.00000  Uiso   1.00
C154   C     0.45276   0.62615   0.58610   0.00000  Uiso   1.00
C155   C     0.44428   0.59467   0.69256   0.00000  Uiso   1.00
C156   C     0.47078   0.80457   0.49955   0.00000  Uiso   1.00
C157   C     0.42198   0.83781   0.43071   0.00000  Uiso   1.00
C158   C     0.39942   0.90314   0.46609   0.00000  Uiso   1.00
C159   C     0.58124   0.74377   0.47461   0.00000  Uiso   1.00
C160   C     0.62531   0.72592   0.38479   0.00000  Uiso   1.00
C161   C     0.69575   0.74008   0.39917   0.00000  Uiso   1.00
H162   H     0.56898   0.81393   0.74064   0.00000  Uiso   1.00
H163   H     0.52409   0.71303   0.86890   0.00000  Uiso   1.00
H164   H     0.49332   0.92466   0.71352   0.00000  Uiso   1.00
H165   H     0.69662   0.81279   0.66762   0.00000  Uiso   1.00
H166   H     0.46311   0.58755   0.96674   0.00000  Uiso   1.00
H167   H     0.39824   0.03380   0.63909   0.00000  Uiso   1.00
H168   H     0.82694   0.79789   0.54229   0.00000  Uiso   1.00
H169   H     0.48275   0.70892   0.39872   0.00000  Uiso   1.00
H170   H     0.43313   0.60225   0.50823   0.00000  Uiso   1.00
H171   H     0.40236   0.81388   0.35285   0.00000  Uiso   1.00
H172   H     0.60565   0.70201   0.30694   0.00000  Uiso   1.00
H173   H     0.38928   0.49763   0.67400   0.00000  Uiso   1.00
H174   H     0.32441   0.94389   0.34635   0.00000  Uiso   1.00
H175   H     0.75311   0.70798   0.24955   0.00000  Uiso   1.00
O176   O     0.39509   0.47433   0.89858   0.00000  Uiso   1.00
O177   O     0.31000   0.05980   0.46870   0.00000  Uiso   1.00
O178   O     0.87243   0.75029   0.34171   0.00000  Uiso   1.00
N179   N     0.45255   0.58102   0.88281   0.00000  Uiso   1.00
N180   N     0.39190   0.99823   0.57649   0.00000  Uiso   1.00
N181   N     0.79269   0.77769   0.48598   0.00000  Uiso   1.00
N182   N     0.41283   0.53264   0.72529   0.00000  Uiso   1.00
N183   N     0.35217   0.94985   0.41897   0.00000  Uiso   1.00
N184   N     0.75296   0.72931   0.32846   0.00000  Uiso   1.00
C185   C     0.71013   0.95077   0.16231   0.00000  Uiso   1.00
C186   C     0.77952   0.98711   0.18458   0.00000  Uiso   1.00
C187   C     0.81090   0.99555   0.29105   0.00000  Uiso   1.00
C188   C     0.87437   0.03030   0.29336   0.00000  Uiso   1.00
C189   C     0.97739   0.08290   0.34326   0.00000  Uiso   1.00
C190   C     0.66453   0.00384   0.10017   0.00000  Uiso   1.00
C191   C     0.59924   0.02633   0.13566   0.00000  Uiso   1.00
C192   C     0.56591   0.07516   0.06689   0.00000  Uiso   1.00
C193   C     0.49039   0.15369   0.98569   0.00000  Uiso   1.00
C194   C     0.72532   0.89338   0.07523   0.00000  Uiso   1.00
C195   C     0.71113   0.82300   0.08974   0.00000  Uiso   1.00
C196   C     0.72896   0.77883   0.99997   0.00000  Uiso   1.00
C197   C     0.74783   0.68586   0.88005   0.00000  Uiso   1.00
C198   C     0.76702   0.99749   0.97706   0.00000  Uiso   1.00
C199   C     0.81042   0.01249   0.08396   0.00000  Uiso   1.00
C200   C     0.87385   0.04724   0.08610   0.00000  Uiso   1.00
C201   C     0.90533   0.05572   0.19256   0.00000  Uiso   1.00
C202   C     0.69543   0.02922   0.99955   0.00000  Uiso   1.00
C203   C     0.66219   0.07802   0.93071   0.00000  Uiso   1.00
C204   C     0.59686   0.10058   0.96609   0.00000  Uiso   1.00
C205   C     0.75623   0.91876   0.97461   0.00000  Uiso   1.00
C206   C     0.77408   0.87469   0.88479   0.00000  Uiso   1.00
C207   C     0.75992   0.80425   0.89917   0.00000  Uiso   1.00
H208   H     0.68607   0.93102   0.24064   0.00000  Uiso   1.00
H209   H     0.78697   0.97591   0.36890   0.00000  Uiso   1.00
H210   H     0.57534   0.00668   0.21352   0.00000  Uiso   1.00
H211   H     0.68721   0.80338   0.16762   0.00000  Uiso   1.00
H212   H     0.91245   0.03689   0.46674   0.00000  Uiso   1.00
H213   H     0.46620   0.10176   0.13909   0.00000  Uiso   1.00
H214   H     0.70211   0.67306   0.04229   0.00000  Uiso   1.00
H215   H     0.79108   0.01725   0.89872   0.00000  Uiso   1.00
H216   H     0.89775   0.06687   0.00823   0.00000  Uiso   1.00
H217   H     0.68612   0.09764   0.85285   0.00000  Uiso   1.00
H218   H     0.79799   0.89435   0.80694   0.00000  Uiso   1.00
H219   H     0.00237   0.11072   0.17400   0.00000  Uiso   1.00
H220   H     0.55611   0.17559   0.84635   0.00000  Uiso   1.00
H221   H     0.79202   0.74689   0.74955   0.00000  Uiso   1.00
O222   O     0.02567   0.10491   0.39858   0.00000  Uiso   1.00
O223   O     0.44020   0.19000   0.96870   0.00000  Uiso   1.00
O224   O     0.74971   0.62757   0.84171   0.00000  Uiso   1.00
N225   N     0.91898   0.04745   0.38281   0.00000  Uiso   1.00
N226   N     0.50177   0.10810   0.07649   0.00000  Uiso   1.00
N227   N     0.72231   0.70731   0.98598   0.00000  Uiso   1.00
N228   N     0.96736   0.08717   0.22529   0.00000  Uiso   1.00
N229   N     0.55015   0.14783   0.91897   0.00000  Uiso   1.00
N230   N     0.77069   0.74704   0.82846   0.00000  Uiso   1.00
C231   C     0.28987   0.04923   0.16231   0.00000  Uiso   1.00
C232   C     0.22048   0.01289   0.18458   0.00000  Uiso   1.00
C233   C     0.18910   0.00445   0.29105   0.00000  Uiso   1.00
C234   C     0.12563   0.96970   0.29336   0.00000  Uiso   1.00
C235   C     0.02261   0.91710   0.34326   0.00000  Uiso   1.00
C236   C     0.33547   0.99616   0.10017   0.00000  Uiso   1.00
C237   C     0.40076   0.97367   0.13566   0.00000  Uiso   1.00
C238   C     0.43409   0.92484   0.06689   0.00000  Uiso   1.00
C239   C     0.50961   0.84631   0.98569   0.00000  Uiso   1.00
C240   C     0.27468   0.10662   0.07523   0.00000  Uiso   1.00
C241   C     0.28887   0.17700   0.08974   0.00000  Uiso   1.00
C242   C     0.27104   0.22117   0.99997   0.00000  Uiso   1.00
C243   C     0.25217   0.31414   0.88005   0.00000  Uiso   1.00
C244   C     0.23298   0.00251   0.97706   0.00000  Uiso   1.00
C245   C     0.18958   0.98751   0.08396   0.00000  Uiso   1.00
C246   C     0.12615   0.95276   0.08610   0.00000  Uiso   1.00
C247   C     0.09467   0.94428   0.19256   0.00000  Uiso   1.00
C248   C     0.30457   0.97078   0.99955   0.00000  Uiso   1.00
C249   C     0.33781   0.92198   0.93071   0.00000  Uiso   1.00
C250   C     0.40314   0.89942   0.96609   0.00000  Uiso   1.00
C251   C     0.24377   0.08124   0.97461   0.00000  Uiso   1.00
C252   C     0.22592   0.12531   0.88479   0.00000  Uiso   1.00
C253   C     0.24008   0.19575   0.89917   0.00000  Uiso   1.00
H254   H     0.31393   0.06898   0.24064   0.00000  Uiso   1.00
H255   H     0.21303   0.02409   0.36890   0.00000  Uiso   1.00
H256   H     0.42466   0.99332   0.21352   0.00000  Uiso   1.00
H257   H     0.31279   0.19662   0.16762   0.00000  Uiso   1.00
H258   H     0.08755   0.96311   0.46674   0.00000  Uiso   1.00
H259   H     0.53380   0.89824   0.13909   0.00000  Uiso   1.00
H260   H     0.29789   0.32694   0.04229   0.00000  Uiso   1.00
H261   H     0.20892   0.98275   0.89872   0.00000  Uiso   1.00
H262   H     0.10225   0.93313   0.00823   0.00000  Uiso   1.00
H263   H     0.31388   0.90236   0.85285   0.00000  Uiso   1.00
H264   H     0.20201   0.10565   0.80694   0.00000  Uiso   1.00
H265   H     0.99763   0.88928   0.17400   0.00000  Uiso   1.00
H266   H     0.44389   0.82441   0.84635   0.00000  Uiso   1.00
H267   H     0.20798   0.25311   0.74955   0.00000  Uiso   1.00
O268   O     0.97433   0.89509   0.39858   0.00000  Uiso   1.00
O269   O     0.55980   0.81000   0.96870   0.00000  Uiso   1.00
O270   O     0.25029   0.37243   0.84171   0.00000  Uiso   1.00
N271   N     0.08102   0.95255   0.38281   0.00000  Uiso   1.00
N272   N     0.49823   0.89190   0.07649   0.00000  Uiso   1.00
N273   N     0.27769   0.29269   0.98598   0.00000  Uiso   1.00
N274   N     0.03264   0.91283   0.22529   0.00000  Uiso   1.00
N275   N     0.44985   0.85217   0.91897   0.00000  Uiso   1.00
N276   N     0.22931   0.25296   0.82846   0.00000  Uiso   1.00
C277   C     0.04923   0.71013   0.83769   0.00000  Uiso   1.00
C278   C     0.01289   0.77952   0.81542   0.00000  Uiso   1.00
C279   C     0.00445   0.81090   0.70895   0.00000  Uiso   1.00
C280   C     0.96970   0.87437   0.70664   0.00000  Uiso   1.00
C281   C     0.91710   0.97739   0.65674   0.00000  Uiso   1.00
C282   C     0.99616   0.66453   0.89983   0.00000  Uiso   1.00
C283   C     0.97367   0.59924   0.86434   0.00000  Uiso   1.00
C284   C     0.92484   0.56591   0.93311   0.00000  Uiso   1.00
C285   C     0.84631   0.49039   0.01431   0.00000  Uiso   1.00
C286   C     0.10662   0.72532   0.92477   0.00000  Uiso   1.00
C287   C     0.17700   0.71113   0.91026   0.00000  Uiso   1.00
C288   C     0.22117   0.72896   0.00003   0.00000  Uiso   1.00
C289   C     0.31414   0.74783   0.11995   0.00000  Uiso   1.00
C290   C     0.00251   0.76702   0.02294   0.00000  Uiso   1.00
C291   C     0.98751   0.81042   0.91604   0.00000  Uiso   1.00
C292   C     0.95276   0.87385   0.91390   0.00000  Uiso   1.00
C293   C     0.94428   0.90533   0.80744   0.00000  Uiso   1.00
C294   C     0.97078   0.69543   0.00045   0.00000  Uiso   1.00
C295   C     0.92198   0.66219   0.06929   0.00000  Uiso   1.00
C296   C     0.89942   0.59686   0.03391   0.00000  Uiso   1.00
C297   C     0.08124   0.75623   0.02539   0.00000  Uiso   1.00
C298   C     0.12531   0.77408   0.11521   0.00000  Uiso   1.00
C299   C     0.19575   0.75992   0.10083   0.00000  Uiso   1.00
H300   H     0.06898   0.68607   0.75936   0.00000  Uiso   1.00
H301   H     0.02409   0.78697   0.63110   0.00000  Uiso   1.00
H302   H     0.99332   0.57534   0.78648   0.00000  Uiso   1.00
H303   H     0.19662   0.68721   0.83238   0.00000  Uiso   1.00
H304   H     0.96311   0.91245   0.53326   0.00000  Uiso   1.00
H305   H     0.89824   0.46620   0.86091   0.00000  Uiso   1.00
H306   H     0.32694   0.70211   0.95771   0.00000  Uiso   1.00
H307   H     0.98275   0.79108   0.10128   0.00000  Uiso   1.00
H308   H     0.93313   0.89775   0.99177   0.00000  Uiso   1.00
H309   H     0.90236   0.68612   0.14715   0.00000  Uiso   1.00
H310   H     0.10565   0.79799   0.19306   0.00000  Uiso   1.00
H311   H     0.88928   0.00237   0.82600   0.00000  Uiso   1.00
H312   H     0.82441   0.55611   0.15365   0.00000  Uiso   1.00
H313   H     0.25311   0.79202   0.25045   0.00000  Uiso   1.00
O314   O     0.89509   0.02567   0.60142   0.00000  Uiso   1.00
O315   O     0.81000   0.44020   0.03130   0.00000  Uiso   1.00
O316   O     0.37243   0.74971   0.15829   0.00000  Uiso   1.00
N317   N     0.95255   0.91898   0.61719   0.00000  Uiso   1.00
N318   N     0.89190   0.50177   0.92351   0.00000  Uiso   1.00
N319   N     0.29269   0.72231   0.01402   0.00000  Uiso   1.00
N320   N     0.91283   0.96736   0.77471   0.00000  Uiso   1.00
N321   N     0.85217   0.55015   0.08103   0.00000  Uiso   1.00
N322   N     0.25296   0.77069   0.17154   0.00000  Uiso   1.00
C323   C     0.95077   0.28987   0.83769   0.00000  Uiso   1.00
C324   C     0.98711   0.22048   0.81542   0.00000  Uiso   1.00
C325   C     0.99555   0.18910   0.70895   0.00000  Uiso   1.00
C326   C     0.03030   0.12563   0.70664   0.00000  Uiso   1.00
C327   C     0.08290   0.02261   0.65674   0.00000  Uiso   1.00
C328   C     0.00384   0.33547   0.89983   0.00000  Uiso   1.00
C329   C     0.02633   0.40076   0.86434   0.00000  Uiso   1.00
C330   C     0.07516   0.43409   0.93311   0.00000  Uiso   1.00
C331   C     0.15369   0.50961   0.01431   0.00000  Uiso   1.00
C332   C     0.89338   0.27468   0.92477   0.00000  Uiso   1.00
C333   C     0.82300   0.28887   0.91026   0.00000  Uiso   1.00
C334   C     0.77883   0.27104   0.00003   0.00000  Uiso   1.00
C335   C     0.68586   0.25217   0.11995   0.00000  Uiso   1.00
C336   C     0.99749   0.23298   0.02294   0.00000  Uiso   1.00
C337   C     0.01249   0.18958   0.91604   0.00000  Uiso   1.00
C338   C     0.04724   0.12615   0.91390   0.00000  Uiso   1.00
C339   C     0.05572   0.09467   0.80744   0.00000  Uiso   1.00
C340   C     0.02922   0.30457   0.00045   0.00000  Uiso   1.00
C341   C     0.07802   0.33781   0.06929   0.00000  Uiso   1.00
C342   C     0.10058   0.40314   0.03391   0.00000  Uiso   1.00
C343   C     0.91876   0.24377   0.02539   0.00000  Uiso   1.00
C344   C     0.87469   0.22592   0.11521   0.00000  Uiso   1.00
C345   C     0.80425   0.24008   0.10083   0.00000  Uiso   1.00
H346   H     0.93102   0.31393   0.75936   0.00000  Uiso   1.00
H347   H     0.97591   0.21303   0.63110   0.00000  Uiso   1.00
H348   H     0.00668   0.42466   0.78648   0.00000  Uiso   1.00
H349   H     0.80338   0.31279   0.83238   0.00000  Uiso   1.00
H350   H     0.03689   0.08755   0.53326   0.00000  Uiso   1.00
H351   H     0.10176   0.53380   0.86091   0.00000  Uiso   1.00
H352   H     0.67306   0.29789   0.95771   0.00000  Uiso   1.00
H353   H     0.01725   0.20892   0.10128   0.00000  Uiso   1.00
H354   H     0.06687   0.10225   0.99177   0.00000  Uiso   1.00
H355   H     0.09764   0.31388   0.14715   0.00000  Uiso   1.00
H356   H     0.89435   0.20201   0.19306   0.00000  Uiso   1.00
H357   H     0.11072   0.99763   0.82600   0.00000  Uiso   1.00
H358   H     0.17559   0.44389   0.15365   0.00000  Uiso   1.00
H359   H     0.74689   0.20798   0.25045   0.00000  Uiso   1.00
O360   O     0.10491   0.97433   0.60142   0.00000  Uiso   1.00
O361   O     0.19000   0.55980   0.03130   0.00000  Uiso   1.00
O362   O     0.62757   0.25029   0.15829   0.00000  Uiso   1.00
N363   N     0.04745   0.08102   0.61719   0.00000  Uiso   1.00
N364   N     0.10810   0.49823   0.92351   0.00000  Uiso   1.00
N365   N     0.70731   0.27769   0.01402   0.00000  Uiso   1.00
N366   N     0.08717   0.03264   0.77471   0.00000  Uiso   1.00
N367   N     0.14783   0.44985   0.08103   0.00000  Uiso   1.00
N368   N     0.74704   0.22931   0.17154   0.00000  Uiso   1.00
