data_job_00429
_audit_creation_date              2018-12-19
_audit_creation_method            'Materials Studio'
_symmetry_space_group_name_H-M    'P1'
_symmetry_Int_Tables_number       1
_symmetry_cell_setting            triclinic
loop_
_symmetry_equiv_pos_as_xyz
  x,y,z
_cell_length_a                    27.8523
_cell_length_b                    10.7100
_cell_length_c                    21.7133
_cell_angle_alpha                 90.0000
_cell_angle_beta                  154.5395
_cell_angle_gamma                 90.0000
loop_
_atom_site_label
_atom_site_type_symbol
_atom_site_fract_x
_atom_site_fract_y
_atom_site_fract_z
_atom_site_U_iso_or_equiv
_atom_site_adp_type
_atom_site_occupancy
C1     C     0.28854   0.14592   0.83032   0.00000  Uiso   1.00
C2     C     0.17869   0.21432   0.71425   0.00000  Uiso   1.00
C3     C     0.08925   0.21953   0.57009   0.00000  Uiso   1.00
C4     C     0.99623   0.28694   0.48111   0.00000  Uiso   1.00
C5     C     0.82618   0.38407   0.29278   0.00000  Uiso   1.00
C6     C     0.38037   0.24346   0.94398   0.00000  Uiso   1.00
C7     C     0.46050   0.27316   0.99300   0.00000  Uiso   1.00
C8     C     0.53726   0.36509   0.09742   0.00000  Uiso   1.00
C9     C     0.68037   0.50740   0.26583   0.00000  Uiso   1.00
C10    C     0.30235   0.05568   0.90010   0.00000  Uiso   1.00
C11    C     0.31693   0.92748   0.91225   0.00000  Uiso   1.00
C12    C     0.32803   0.86132   0.97976   0.00000  Uiso   1.00
C13    C     0.35002   0.71207   0.08003   0.00000  Uiso   1.00
C14    C     0.28238   0.25637   0.92863   0.00000  Uiso   1.00
C15    C     0.17535   0.27432   0.76765   0.00000  Uiso   1.00
C16    C     0.08243   0.34173   0.67887   0.00000  Uiso   1.00
C17    C     0.99287   0.34703   0.53460   0.00000  Uiso   1.00
C18    C     0.37702   0.30346   0.99738   0.00000  Uiso   1.00
C19    C     0.45368   0.39536   0.10177   0.00000  Uiso   1.00
C20    C     0.53391   0.42519   0.15092   0.00000  Uiso   1.00
C21    C     0.29901   0.11567   0.95350   0.00000  Uiso   1.00
C22    C     0.31010   0.04969   0.02101   0.00000  Uiso   1.00
C23    C     0.32468   0.92142   0.03326   0.00000  Uiso   1.00
H24    H     0.29115   0.09922   0.78875   0.00000  Uiso   1.00
H25    H     0.09188   0.17309   0.52881   0.00000  Uiso   1.00
H26    H     0.46308   0.22671   0.95166   0.00000  Uiso   1.00
H27    H     0.31952   0.88109   0.87092   0.00000  Uiso   1.00
H28    H     0.86948   0.28150   0.26418   0.00000  Uiso   1.00
H29    H     0.65220   0.39451   0.15581   0.00000  Uiso   1.00
H30    H     0.34948   0.66571   0.98556   0.00000  Uiso   1.00
H31    H     0.27978   0.30308   0.97021   0.00000  Uiso   1.00
H32    H     0.07986   0.38815   0.72022   0.00000  Uiso   1.00
H33    H     0.45107   0.44176   0.14307   0.00000  Uiso   1.00
H34    H     0.30751   0.09615   0.06233   0.00000  Uiso   1.00
H35    H     0.85973   0.45605   0.41954   0.00000  Uiso   1.00
H36    H     0.64246   0.56906   0.31118   0.00000  Uiso   1.00
H37    H     0.33973   0.84026   0.14091   0.00000  Uiso   1.00
O38    O     0.73332   0.42109   0.17415   0.00000  Uiso   1.00
O39    O     0.76023   0.56934   0.34395   0.00000  Uiso   1.00
O40    O     0.36306   0.61317   0.12056   0.00000  Uiso   1.00
N41    N     0.89461   0.31088   0.33505   0.00000  Uiso   1.00
N42    N     0.62640   0.41656   0.16865   0.00000  Uiso   1.00
N43    N     0.34341   0.73520   0.00951   0.00000  Uiso   1.00
N44    N     0.88937   0.40481   0.41864   0.00000  Uiso   1.00
N45    N     0.62115   0.51048   0.25225   0.00000  Uiso   1.00
N46    N     0.33817   0.82912   0.09311   0.00000  Uiso   1.00
C47    C     0.71146   0.14592   0.66968   0.00000  Uiso   1.00
C48    C     0.82131   0.21432   0.78575   0.00000  Uiso   1.00
C49    C     0.91075   0.21953   0.92991   0.00000  Uiso   1.00
C50    C     0.00377   0.28694   0.01889   0.00000  Uiso   1.00
C51    C     0.17382   0.38407   0.20722   0.00000  Uiso   1.00
C52    C     0.61963   0.24346   0.55602   0.00000  Uiso   1.00
C53    C     0.53950   0.27316   0.50700   0.00000  Uiso   1.00
C54    C     0.46274   0.36509   0.40258   0.00000  Uiso   1.00
C55    C     0.31963   0.50740   0.23417   0.00000  Uiso   1.00
C56    C     0.69765   0.05568   0.59990   0.00000  Uiso   1.00
C57    C     0.68307   0.92748   0.58775   0.00000  Uiso   1.00
C58    C     0.67197   0.86132   0.52024   0.00000  Uiso   1.00
C59    C     0.64998   0.71207   0.41997   0.00000  Uiso   1.00
C60    C     0.71762   0.25637   0.57137   0.00000  Uiso   1.00
C61    C     0.82465   0.27432   0.73235   0.00000  Uiso   1.00
C62    C     0.91757   0.34173   0.82113   0.00000  Uiso   1.00
C63    C     0.00713   0.34703   0.96540   0.00000  Uiso   1.00
C64    C     0.62298   0.30346   0.50262   0.00000  Uiso   1.00
C65    C     0.54632   0.39536   0.39823   0.00000  Uiso   1.00
C66    C     0.46609   0.42519   0.34908   0.00000  Uiso   1.00
C67    C     0.70099   0.11567   0.54650   0.00000  Uiso   1.00
C68    C     0.68990   0.04969   0.47899   0.00000  Uiso   1.00
C69    C     0.67532   0.92142   0.46674   0.00000  Uiso   1.00
H70    H     0.70885   0.09922   0.71125   0.00000  Uiso   1.00
H71    H     0.90812   0.17309   0.97119   0.00000  Uiso   1.00
H72    H     0.53692   0.22671   0.54834   0.00000  Uiso   1.00
H73    H     0.68048   0.88109   0.62908   0.00000  Uiso   1.00
H74    H     0.13052   0.28150   0.23582   0.00000  Uiso   1.00
H75    H     0.34780   0.39451   0.34419   0.00000  Uiso   1.00
H76    H     0.65052   0.66571   0.51444   0.00000  Uiso   1.00
H77    H     0.72022   0.30308   0.52979   0.00000  Uiso   1.00
H78    H     0.92014   0.38815   0.77978   0.00000  Uiso   1.00
H79    H     0.54893   0.44176   0.35693   0.00000  Uiso   1.00
H80    H     0.69249   0.09615   0.43767   0.00000  Uiso   1.00
H81    H     0.14027   0.45605   0.08046   0.00000  Uiso   1.00
H82    H     0.35754   0.56906   0.18882   0.00000  Uiso   1.00
H83    H     0.66027   0.84026   0.35909   0.00000  Uiso   1.00
O84    O     0.26668   0.42109   0.32585   0.00000  Uiso   1.00
O85    O     0.23977   0.56934   0.15605   0.00000  Uiso   1.00
O86    O     0.63694   0.61317   0.37944   0.00000  Uiso   1.00
N87    N     0.10539   0.31088   0.16495   0.00000  Uiso   1.00
N88    N     0.37360   0.41656   0.33135   0.00000  Uiso   1.00
N89    N     0.65659   0.73520   0.49049   0.00000  Uiso   1.00
N90    N     0.11063   0.40481   0.08136   0.00000  Uiso   1.00
N91    N     0.37885   0.51048   0.24775   0.00000  Uiso   1.00
N92    N     0.66183   0.82912   0.40689   0.00000  Uiso   1.00
C93    C     0.71146   0.85408   0.16968   0.00000  Uiso   1.00
C94    C     0.82131   0.78568   0.28575   0.00000  Uiso   1.00
C95    C     0.91075   0.78047   0.42991   0.00000  Uiso   1.00
C96    C     0.00377   0.71306   0.51889   0.00000  Uiso   1.00
C97    C     0.17382   0.61593   0.70722   0.00000  Uiso   1.00
C98    C     0.61963   0.75654   0.05602   0.00000  Uiso   1.00
C99    C     0.53950   0.72684   0.00700   0.00000  Uiso   1.00
C100   C     0.46274   0.63491   0.90258   0.00000  Uiso   1.00
C101   C     0.31963   0.49260   0.73417   0.00000  Uiso   1.00
C102   C     0.69765   0.94432   0.09990   0.00000  Uiso   1.00
C103   C     0.68307   0.07252   0.08775   0.00000  Uiso   1.00
C104   C     0.67197   0.13868   0.02024   0.00000  Uiso   1.00
C105   C     0.64998   0.28793   0.91997   0.00000  Uiso   1.00
C106   C     0.71762   0.74363   0.07137   0.00000  Uiso   1.00
C107   C     0.82465   0.72568   0.23235   0.00000  Uiso   1.00
C108   C     0.91757   0.65827   0.32113   0.00000  Uiso   1.00
C109   C     0.00713   0.65297   0.46540   0.00000  Uiso   1.00
C110   C     0.62298   0.69654   0.00262   0.00000  Uiso   1.00
C111   C     0.54632   0.60464   0.89823   0.00000  Uiso   1.00
C112   C     0.46609   0.57481   0.84908   0.00000  Uiso   1.00
C113   C     0.70099   0.88433   0.04650   0.00000  Uiso   1.00
C114   C     0.68990   0.95031   0.97899   0.00000  Uiso   1.00
C115   C     0.67532   0.07858   0.96674   0.00000  Uiso   1.00
H116   H     0.70885   0.90078   0.21125   0.00000  Uiso   1.00
H117   H     0.90812   0.82691   0.47119   0.00000  Uiso   1.00
H118   H     0.53692   0.77329   0.04834   0.00000  Uiso   1.00
H119   H     0.68048   0.11891   0.12908   0.00000  Uiso   1.00
H120   H     0.13052   0.71850   0.73582   0.00000  Uiso   1.00
H121   H     0.34780   0.60549   0.84419   0.00000  Uiso   1.00
H122   H     0.65052   0.33429   0.01444   0.00000  Uiso   1.00
H123   H     0.72022   0.69692   0.02979   0.00000  Uiso   1.00
H124   H     0.92014   0.61185   0.27978   0.00000  Uiso   1.00
H125   H     0.54893   0.55824   0.85693   0.00000  Uiso   1.00
H126   H     0.69249   0.90385   0.93767   0.00000  Uiso   1.00
H127   H     0.14027   0.54395   0.58046   0.00000  Uiso   1.00
H128   H     0.35754   0.43094   0.68882   0.00000  Uiso   1.00
H129   H     0.66027   0.15974   0.85909   0.00000  Uiso   1.00
O130   O     0.26668   0.57891   0.82585   0.00000  Uiso   1.00
O131   O     0.23977   0.43066   0.65605   0.00000  Uiso   1.00
O132   O     0.63694   0.38683   0.87944   0.00000  Uiso   1.00
N133   N     0.10539   0.68912   0.66495   0.00000  Uiso   1.00
N134   N     0.37360   0.58344   0.83135   0.00000  Uiso   1.00
N135   N     0.65659   0.26480   0.99049   0.00000  Uiso   1.00
N136   N     0.11063   0.59519   0.58136   0.00000  Uiso   1.00
N137   N     0.37885   0.48952   0.74775   0.00000  Uiso   1.00
N138   N     0.66183   0.17088   0.90689   0.00000  Uiso   1.00
C139   C     0.28854   0.85408   0.33032   0.00000  Uiso   1.00
C140   C     0.17869   0.78568   0.21425   0.00000  Uiso   1.00
C141   C     0.08925   0.78047   0.07009   0.00000  Uiso   1.00
C142   C     0.99623   0.71306   0.98111   0.00000  Uiso   1.00
C143   C     0.82618   0.61593   0.79278   0.00000  Uiso   1.00
C144   C     0.38037   0.75654   0.44398   0.00000  Uiso   1.00
C145   C     0.46050   0.72684   0.49300   0.00000  Uiso   1.00
C146   C     0.53726   0.63491   0.59742   0.00000  Uiso   1.00
C147   C     0.68037   0.49260   0.76583   0.00000  Uiso   1.00
C148   C     0.30235   0.94432   0.40010   0.00000  Uiso   1.00
C149   C     0.31693   0.07252   0.41225   0.00000  Uiso   1.00
C150   C     0.32803   0.13868   0.47976   0.00000  Uiso   1.00
C151   C     0.35002   0.28793   0.58003   0.00000  Uiso   1.00
C152   C     0.28238   0.74363   0.42863   0.00000  Uiso   1.00
C153   C     0.17535   0.72568   0.26765   0.00000  Uiso   1.00
C154   C     0.08243   0.65827   0.17887   0.00000  Uiso   1.00
C155   C     0.99287   0.65297   0.03460   0.00000  Uiso   1.00
C156   C     0.37702   0.69654   0.49738   0.00000  Uiso   1.00
C157   C     0.45368   0.60464   0.60177   0.00000  Uiso   1.00
C158   C     0.53391   0.57481   0.65092   0.00000  Uiso   1.00
C159   C     0.29901   0.88433   0.45350   0.00000  Uiso   1.00
C160   C     0.31010   0.95031   0.52101   0.00000  Uiso   1.00
C161   C     0.32468   0.07858   0.53326   0.00000  Uiso   1.00
H162   H     0.29115   0.90078   0.28875   0.00000  Uiso   1.00
H163   H     0.09188   0.82691   0.02881   0.00000  Uiso   1.00
H164   H     0.46308   0.77329   0.45166   0.00000  Uiso   1.00
H165   H     0.31952   0.11891   0.37092   0.00000  Uiso   1.00
H166   H     0.86948   0.71850   0.76418   0.00000  Uiso   1.00
H167   H     0.65220   0.60549   0.65581   0.00000  Uiso   1.00
H168   H     0.34948   0.33429   0.48556   0.00000  Uiso   1.00
H169   H     0.27978   0.69692   0.47021   0.00000  Uiso   1.00
H170   H     0.07986   0.61185   0.22022   0.00000  Uiso   1.00
H171   H     0.45107   0.55824   0.64307   0.00000  Uiso   1.00
H172   H     0.30751   0.90385   0.56233   0.00000  Uiso   1.00
H173   H     0.85973   0.54395   0.91954   0.00000  Uiso   1.00
H174   H     0.64246   0.43094   0.81118   0.00000  Uiso   1.00
H175   H     0.33973   0.15974   0.64091   0.00000  Uiso   1.00
O176   O     0.73332   0.57891   0.67415   0.00000  Uiso   1.00
O177   O     0.76023   0.43066   0.84395   0.00000  Uiso   1.00
O178   O     0.36306   0.38683   0.62056   0.00000  Uiso   1.00
N179   N     0.89461   0.68912   0.83505   0.00000  Uiso   1.00
N180   N     0.62640   0.58344   0.66865   0.00000  Uiso   1.00
N181   N     0.34341   0.26480   0.50951   0.00000  Uiso   1.00
N182   N     0.88937   0.59519   0.91864   0.00000  Uiso   1.00
N183   N     0.62115   0.48952   0.75225   0.00000  Uiso   1.00
N184   N     0.33817   0.17088   0.59311   0.00000  Uiso   1.00
