data_job_01223
_audit_creation_date              2018-12-19
_audit_creation_method            'Materials Studio'
_symmetry_space_group_name_H-M    'P1'
_symmetry_Int_Tables_number       1
_symmetry_cell_setting            triclinic
loop_
_symmetry_equiv_pos_as_xyz
  x,y,z
_cell_length_a                    25.2177
_cell_length_b                    25.2177
_cell_length_c                    8.2358
_cell_angle_alpha                 90.0000
_cell_angle_beta                  90.0000
_cell_angle_gamma                 90.0000
loop_
_atom_site_label
_atom_site_type_symbol
_atom_site_fract_x
_atom_site_fract_y
_atom_site_fract_z
_atom_site_U_iso_or_equiv
_atom_site_adp_type
_atom_site_occupancy
C1     C     0.75054   0.48573   0.37693   0.00000  Uiso   1.00
C2     C     0.75601   0.44505   0.24095   0.00000  Uiso   1.00
C3     C     0.74751   0.39090   0.25563   0.00000  Uiso   1.00
C4     C     0.75458   0.36039   0.11697   0.00000  Uiso   1.00
C5     C     0.76082   0.29375   0.92835   0.00000  Uiso   1.00
C6     C     0.80378   0.51422   0.38676   0.00000  Uiso   1.00
C7     C     0.83544   0.51821   0.52406   0.00000  Uiso   1.00
C8     C     0.88273   0.54594   0.50814   0.00000  Uiso   1.00
C9     C     0.96311   0.58671   0.54593   0.00000  Uiso   1.00
C10    C     0.71079   0.52679   0.31644   0.00000  Uiso   1.00
C11    C     0.66427   0.54138   0.39462   0.00000  Uiso   1.00
C12    C     0.63327   0.57970   0.31951   0.00000  Uiso   1.00
C13    C     0.56927   0.64000   0.24811   0.00000  Uiso   1.00
C14    C     0.77821   0.52787   0.10457   0.00000  Uiso   1.00
C15    C     0.77104   0.46794   0.09301   0.00000  Uiso   1.00
C16    C     0.77813   0.43751   0.95429   0.00000  Uiso   1.00
C17    C     0.76964   0.38332   0.96877   0.00000  Uiso   1.00
C18    C     0.81881   0.53710   0.23883   0.00000  Uiso   1.00
C19    C     0.86606   0.56483   0.22272   0.00000  Uiso   1.00
C20    C     0.89778   0.56887   0.35994   0.00000  Uiso   1.00
C21    C     0.72582   0.54968   0.16850   0.00000  Uiso   1.00
C22    C     0.69488   0.58799   0.09327   0.00000  Uiso   1.00
C23    C     0.64833   0.60263   0.17131   0.00000  Uiso   1.00
H24    H     0.73884   0.46791   0.49211   0.00000  Uiso   1.00
H25    H     0.73589   0.37320   0.37015   0.00000  Uiso   1.00
H26    H     0.82380   0.50050   0.63852   0.00000  Uiso   1.00
H27    H     0.65265   0.52366   0.50910   0.00000  Uiso   1.00
H28    H     0.73926   0.27828   0.16970   0.00000  Uiso   1.00
H29    H     0.92462   0.54672   0.73560   0.00000  Uiso   1.00
H30    H     0.56373   0.59556   0.46269   0.00000  Uiso   1.00
H31    H     0.78991   0.54569   0.98939   0.00000  Uiso   1.00
H32    H     0.78976   0.45524   0.83983   0.00000  Uiso   1.00
H33    H     0.87767   0.58254   0.10822   0.00000  Uiso   1.00
H34    H     0.70653   0.60570   0.97879   0.00000  Uiso   1.00
H35    H     0.78298   0.34486   0.73927   0.00000  Uiso   1.00
H36    H     0.96835   0.61331   0.30519   0.00000  Uiso   1.00
H37    H     0.60745   0.66214   0.03227   0.00000  Uiso   1.00
O38    O     0.76012   0.25066   0.86518   0.00000  Uiso   1.00
O39    O     0.00330   0.60286   0.60765   0.00000  Uiso   1.00
O40    O     0.52981   0.66692   0.24958   0.00000  Uiso   1.00
N41    N     0.74956   0.30636   0.08891   0.00000  Uiso   1.00
N42    N     0.92287   0.55734   0.61800   0.00000  Uiso   1.00
N43    N     0.58547   0.60300   0.36287   0.00000  Uiso   1.00
N44    N     0.77309   0.34219   0.85731   0.00000  Uiso   1.00
N45    N     0.94639   0.59317   0.38639   0.00000  Uiso   1.00
N46    N     0.60900   0.63883   0.13126   0.00000  Uiso   1.00
C47    C     0.25054   0.98573   0.87693   0.00000  Uiso   1.00
C48    C     0.25601   0.94505   0.74095   0.00000  Uiso   1.00
C49    C     0.24751   0.89090   0.75563   0.00000  Uiso   1.00
C50    C     0.25458   0.86039   0.61697   0.00000  Uiso   1.00
C51    C     0.26082   0.79375   0.42835   0.00000  Uiso   1.00
C52    C     0.30378   0.01422   0.88676   0.00000  Uiso   1.00
C53    C     0.33544   0.01821   0.02406   0.00000  Uiso   1.00
C54    C     0.38273   0.04594   0.00814   0.00000  Uiso   1.00
C55    C     0.46311   0.08671   0.04593   0.00000  Uiso   1.00
C56    C     0.21079   0.02679   0.81644   0.00000  Uiso   1.00
C57    C     0.16427   0.04138   0.89462   0.00000  Uiso   1.00
C58    C     0.13327   0.07970   0.81951   0.00000  Uiso   1.00
C59    C     0.06927   0.14000   0.74811   0.00000  Uiso   1.00
C60    C     0.27821   0.02787   0.60457   0.00000  Uiso   1.00
C61    C     0.27104   0.96794   0.59301   0.00000  Uiso   1.00
C62    C     0.27813   0.93751   0.45429   0.00000  Uiso   1.00
C63    C     0.26964   0.88332   0.46877   0.00000  Uiso   1.00
C64    C     0.31881   0.03710   0.73883   0.00000  Uiso   1.00
C65    C     0.36606   0.06483   0.72272   0.00000  Uiso   1.00
C66    C     0.39778   0.06887   0.85994   0.00000  Uiso   1.00
C67    C     0.22582   0.04968   0.66850   0.00000  Uiso   1.00
C68    C     0.19488   0.08799   0.59327   0.00000  Uiso   1.00
C69    C     0.14833   0.10263   0.67131   0.00000  Uiso   1.00
H70    H     0.23884   0.96791   0.99211   0.00000  Uiso   1.00
H71    H     0.23589   0.87320   0.87015   0.00000  Uiso   1.00
H72    H     0.32380   0.00050   0.13852   0.00000  Uiso   1.00
H73    H     0.15265   0.02366   0.00910   0.00000  Uiso   1.00
H74    H     0.23926   0.77828   0.66970   0.00000  Uiso   1.00
H75    H     0.42462   0.04672   0.23560   0.00000  Uiso   1.00
H76    H     0.06373   0.09556   0.96269   0.00000  Uiso   1.00
H77    H     0.28991   0.04569   0.48939   0.00000  Uiso   1.00
H78    H     0.28976   0.95524   0.33983   0.00000  Uiso   1.00
H79    H     0.37767   0.08254   0.60822   0.00000  Uiso   1.00
H80    H     0.20653   0.10570   0.47879   0.00000  Uiso   1.00
H81    H     0.28298   0.84486   0.23927   0.00000  Uiso   1.00
H82    H     0.46835   0.11331   0.80519   0.00000  Uiso   1.00
H83    H     0.10745   0.16214   0.53227   0.00000  Uiso   1.00
O84    O     0.26012   0.75066   0.36518   0.00000  Uiso   1.00
O85    O     0.50330   0.10286   0.10765   0.00000  Uiso   1.00
O86    O     0.02981   0.16692   0.74958   0.00000  Uiso   1.00
N87    N     0.24956   0.80636   0.58891   0.00000  Uiso   1.00
N88    N     0.42287   0.05734   0.11800   0.00000  Uiso   1.00
N89    N     0.08547   0.10300   0.86287   0.00000  Uiso   1.00
N90    N     0.27309   0.84219   0.35731   0.00000  Uiso   1.00
N91    N     0.44639   0.09317   0.88639   0.00000  Uiso   1.00
N92    N     0.10900   0.13883   0.63126   0.00000  Uiso   1.00
C93    C     0.24946   0.51427   0.37693   0.00000  Uiso   1.00
C94    C     0.24399   0.55495   0.24095   0.00000  Uiso   1.00
C95    C     0.25249   0.60910   0.25563   0.00000  Uiso   1.00
C96    C     0.24542   0.63961   0.11697   0.00000  Uiso   1.00
C97    C     0.23918   0.70625   0.92835   0.00000  Uiso   1.00
C98    C     0.19622   0.48578   0.38676   0.00000  Uiso   1.00
C99    C     0.16456   0.48179   0.52406   0.00000  Uiso   1.00
C100   C     0.11727   0.45406   0.50814   0.00000  Uiso   1.00
C101   C     0.03689   0.41329   0.54593   0.00000  Uiso   1.00
C102   C     0.28921   0.47321   0.31644   0.00000  Uiso   1.00
C103   C     0.33573   0.45862   0.39462   0.00000  Uiso   1.00
C104   C     0.36673   0.42030   0.31951   0.00000  Uiso   1.00
C105   C     0.43073   0.36000   0.24811   0.00000  Uiso   1.00
C106   C     0.22179   0.47213   0.10457   0.00000  Uiso   1.00
C107   C     0.22896   0.53206   0.09301   0.00000  Uiso   1.00
C108   C     0.22187   0.56249   0.95429   0.00000  Uiso   1.00
C109   C     0.23036   0.61668   0.96877   0.00000  Uiso   1.00
C110   C     0.18119   0.46290   0.23883   0.00000  Uiso   1.00
C111   C     0.13394   0.43517   0.22272   0.00000  Uiso   1.00
C112   C     0.10222   0.43113   0.35994   0.00000  Uiso   1.00
C113   C     0.27418   0.45032   0.16850   0.00000  Uiso   1.00
C114   C     0.30512   0.41201   0.09327   0.00000  Uiso   1.00
C115   C     0.35167   0.39737   0.17131   0.00000  Uiso   1.00
H116   H     0.26116   0.53209   0.49211   0.00000  Uiso   1.00
H117   H     0.26411   0.62680   0.37015   0.00000  Uiso   1.00
H118   H     0.17620   0.49950   0.63852   0.00000  Uiso   1.00
H119   H     0.34735   0.47634   0.50910   0.00000  Uiso   1.00
H120   H     0.26074   0.72172   0.16970   0.00000  Uiso   1.00
H121   H     0.07538   0.45328   0.73560   0.00000  Uiso   1.00
H122   H     0.43627   0.40444   0.46269   0.00000  Uiso   1.00
H123   H     0.21009   0.45431   0.98939   0.00000  Uiso   1.00
H124   H     0.21024   0.54476   0.83983   0.00000  Uiso   1.00
H125   H     0.12233   0.41746   0.10822   0.00000  Uiso   1.00
H126   H     0.29347   0.39430   0.97879   0.00000  Uiso   1.00
H127   H     0.21702   0.65514   0.73927   0.00000  Uiso   1.00
H128   H     0.03165   0.38669   0.30519   0.00000  Uiso   1.00
H129   H     0.39255   0.33786   0.03227   0.00000  Uiso   1.00
O130   O     0.23988   0.74934   0.86518   0.00000  Uiso   1.00
O131   O     0.99670   0.39714   0.60765   0.00000  Uiso   1.00
O132   O     0.47019   0.33308   0.24958   0.00000  Uiso   1.00
N133   N     0.25044   0.69364   0.08891   0.00000  Uiso   1.00
N134   N     0.07713   0.44266   0.61800   0.00000  Uiso   1.00
N135   N     0.41453   0.39700   0.36287   0.00000  Uiso   1.00
N136   N     0.22691   0.65781   0.85731   0.00000  Uiso   1.00
N137   N     0.05361   0.40683   0.38639   0.00000  Uiso   1.00
N138   N     0.39100   0.36117   0.13126   0.00000  Uiso   1.00
C139   C     0.74946   0.01427   0.87693   0.00000  Uiso   1.00
C140   C     0.74399   0.05495   0.74095   0.00000  Uiso   1.00
C141   C     0.75249   0.10910   0.75563   0.00000  Uiso   1.00
C142   C     0.74542   0.13961   0.61697   0.00000  Uiso   1.00
C143   C     0.73918   0.20625   0.42835   0.00000  Uiso   1.00
C144   C     0.69622   0.98578   0.88676   0.00000  Uiso   1.00
C145   C     0.66456   0.98179   0.02406   0.00000  Uiso   1.00
C146   C     0.61727   0.95406   0.00814   0.00000  Uiso   1.00
C147   C     0.53689   0.91329   0.04593   0.00000  Uiso   1.00
C148   C     0.78921   0.97321   0.81644   0.00000  Uiso   1.00
C149   C     0.83573   0.95862   0.89462   0.00000  Uiso   1.00
C150   C     0.86673   0.92030   0.81951   0.00000  Uiso   1.00
C151   C     0.93073   0.86000   0.74811   0.00000  Uiso   1.00
C152   C     0.72179   0.97213   0.60457   0.00000  Uiso   1.00
C153   C     0.72896   0.03206   0.59301   0.00000  Uiso   1.00
C154   C     0.72187   0.06249   0.45429   0.00000  Uiso   1.00
C155   C     0.73036   0.11668   0.46877   0.00000  Uiso   1.00
C156   C     0.68119   0.96290   0.73883   0.00000  Uiso   1.00
C157   C     0.63394   0.93517   0.72272   0.00000  Uiso   1.00
C158   C     0.60222   0.93113   0.85994   0.00000  Uiso   1.00
C159   C     0.77418   0.95032   0.66850   0.00000  Uiso   1.00
C160   C     0.80512   0.91201   0.59327   0.00000  Uiso   1.00
C161   C     0.85167   0.89737   0.67131   0.00000  Uiso   1.00
H162   H     0.76116   0.03209   0.99211   0.00000  Uiso   1.00
H163   H     0.76411   0.12680   0.87015   0.00000  Uiso   1.00
H164   H     0.67620   0.99950   0.13852   0.00000  Uiso   1.00
H165   H     0.84735   0.97634   0.00910   0.00000  Uiso   1.00
H166   H     0.76074   0.22172   0.66970   0.00000  Uiso   1.00
H167   H     0.57538   0.95328   0.23560   0.00000  Uiso   1.00
H168   H     0.93627   0.90444   0.96269   0.00000  Uiso   1.00
H169   H     0.71009   0.95431   0.48939   0.00000  Uiso   1.00
H170   H     0.71024   0.04476   0.33983   0.00000  Uiso   1.00
H171   H     0.62233   0.91746   0.60822   0.00000  Uiso   1.00
H172   H     0.79347   0.89430   0.47879   0.00000  Uiso   1.00
H173   H     0.71702   0.15514   0.23927   0.00000  Uiso   1.00
H174   H     0.53165   0.88669   0.80519   0.00000  Uiso   1.00
H175   H     0.89255   0.83786   0.53227   0.00000  Uiso   1.00
O176   O     0.73988   0.24934   0.36518   0.00000  Uiso   1.00
O177   O     0.49670   0.89714   0.10765   0.00000  Uiso   1.00
O178   O     0.97019   0.83308   0.74958   0.00000  Uiso   1.00
N179   N     0.75044   0.19364   0.58891   0.00000  Uiso   1.00
N180   N     0.57713   0.94266   0.11800   0.00000  Uiso   1.00
N181   N     0.91453   0.89700   0.86287   0.00000  Uiso   1.00
N182   N     0.72691   0.15781   0.35731   0.00000  Uiso   1.00
N183   N     0.55361   0.90683   0.88639   0.00000  Uiso   1.00
N184   N     0.89100   0.86117   0.63126   0.00000  Uiso   1.00
C185   C     0.48573   0.24946   0.62307   0.00000  Uiso   1.00
C186   C     0.44505   0.24399   0.75905   0.00000  Uiso   1.00
C187   C     0.39090   0.25249   0.74437   0.00000  Uiso   1.00
C188   C     0.36039   0.24542   0.88303   0.00000  Uiso   1.00
C189   C     0.29375   0.23918   0.07165   0.00000  Uiso   1.00
C190   C     0.51422   0.19622   0.61324   0.00000  Uiso   1.00
C191   C     0.51821   0.16456   0.47594   0.00000  Uiso   1.00
C192   C     0.54594   0.11727   0.49186   0.00000  Uiso   1.00
C193   C     0.58671   0.03689   0.45407   0.00000  Uiso   1.00
C194   C     0.52679   0.28921   0.68356   0.00000  Uiso   1.00
C195   C     0.54138   0.33573   0.60538   0.00000  Uiso   1.00
C196   C     0.57970   0.36673   0.68049   0.00000  Uiso   1.00
C197   C     0.64000   0.43073   0.75189   0.00000  Uiso   1.00
C198   C     0.52787   0.22179   0.89543   0.00000  Uiso   1.00
C199   C     0.46794   0.22896   0.90699   0.00000  Uiso   1.00
C200   C     0.43751   0.22187   0.04571   0.00000  Uiso   1.00
C201   C     0.38332   0.23036   0.03123   0.00000  Uiso   1.00
C202   C     0.53710   0.18119   0.76117   0.00000  Uiso   1.00
C203   C     0.56483   0.13394   0.77728   0.00000  Uiso   1.00
C204   C     0.56887   0.10222   0.64006   0.00000  Uiso   1.00
C205   C     0.54968   0.27418   0.83150   0.00000  Uiso   1.00
C206   C     0.58799   0.30512   0.90673   0.00000  Uiso   1.00
C207   C     0.60263   0.35167   0.82869   0.00000  Uiso   1.00
H208   H     0.46791   0.26116   0.50789   0.00000  Uiso   1.00
H209   H     0.37320   0.26411   0.62985   0.00000  Uiso   1.00
H210   H     0.50050   0.17620   0.36148   0.00000  Uiso   1.00
H211   H     0.52366   0.34735   0.49090   0.00000  Uiso   1.00
H212   H     0.27828   0.26074   0.83030   0.00000  Uiso   1.00
H213   H     0.54672   0.07538   0.26440   0.00000  Uiso   1.00
H214   H     0.59556   0.43627   0.53731   0.00000  Uiso   1.00
H215   H     0.54569   0.21009   0.01061   0.00000  Uiso   1.00
H216   H     0.45524   0.21024   0.16017   0.00000  Uiso   1.00
H217   H     0.58254   0.12233   0.89178   0.00000  Uiso   1.00
H218   H     0.60570   0.29347   0.02121   0.00000  Uiso   1.00
H219   H     0.34486   0.21702   0.26073   0.00000  Uiso   1.00
H220   H     0.61331   0.03165   0.69481   0.00000  Uiso   1.00
H221   H     0.66214   0.39255   0.96773   0.00000  Uiso   1.00
O222   O     0.25066   0.23988   0.13482   0.00000  Uiso   1.00
O223   O     0.60286   0.99670   0.39235   0.00000  Uiso   1.00
O224   O     0.66692   0.47019   0.75042   0.00000  Uiso   1.00
N225   N     0.30636   0.25044   0.91109   0.00000  Uiso   1.00
N226   N     0.55734   0.07713   0.38200   0.00000  Uiso   1.00
N227   N     0.60300   0.41453   0.63713   0.00000  Uiso   1.00
N228   N     0.34219   0.22691   0.14269   0.00000  Uiso   1.00
N229   N     0.59317   0.05361   0.61361   0.00000  Uiso   1.00
N230   N     0.63883   0.39100   0.86874   0.00000  Uiso   1.00
C231   C     0.98573   0.74946   0.12307   0.00000  Uiso   1.00
C232   C     0.94505   0.74399   0.25905   0.00000  Uiso   1.00
C233   C     0.89090   0.75249   0.24437   0.00000  Uiso   1.00
C234   C     0.86039   0.74542   0.38303   0.00000  Uiso   1.00
C235   C     0.79375   0.73918   0.57165   0.00000  Uiso   1.00
C236   C     0.01422   0.69622   0.11324   0.00000  Uiso   1.00
C237   C     0.01821   0.66456   0.97594   0.00000  Uiso   1.00
C238   C     0.04594   0.61727   0.99186   0.00000  Uiso   1.00
C239   C     0.08671   0.53689   0.95407   0.00000  Uiso   1.00
C240   C     0.02679   0.78921   0.18356   0.00000  Uiso   1.00
C241   C     0.04138   0.83573   0.10538   0.00000  Uiso   1.00
C242   C     0.07970   0.86673   0.18049   0.00000  Uiso   1.00
C243   C     0.14000   0.93073   0.25189   0.00000  Uiso   1.00
C244   C     0.02787   0.72179   0.39543   0.00000  Uiso   1.00
C245   C     0.96794   0.72896   0.40699   0.00000  Uiso   1.00
C246   C     0.93751   0.72187   0.54571   0.00000  Uiso   1.00
C247   C     0.88332   0.73036   0.53123   0.00000  Uiso   1.00
C248   C     0.03710   0.68119   0.26117   0.00000  Uiso   1.00
C249   C     0.06483   0.63394   0.27728   0.00000  Uiso   1.00
C250   C     0.06887   0.60222   0.14006   0.00000  Uiso   1.00
C251   C     0.04968   0.77418   0.33150   0.00000  Uiso   1.00
C252   C     0.08799   0.80512   0.40673   0.00000  Uiso   1.00
C253   C     0.10263   0.85167   0.32869   0.00000  Uiso   1.00
H254   H     0.96791   0.76116   0.00789   0.00000  Uiso   1.00
H255   H     0.87320   0.76411   0.12985   0.00000  Uiso   1.00
H256   H     0.00050   0.67620   0.86148   0.00000  Uiso   1.00
H257   H     0.02366   0.84735   0.99090   0.00000  Uiso   1.00
H258   H     0.77828   0.76074   0.33030   0.00000  Uiso   1.00
H259   H     0.04672   0.57538   0.76440   0.00000  Uiso   1.00
H260   H     0.09556   0.93627   0.03731   0.00000  Uiso   1.00
H261   H     0.04569   0.71009   0.51061   0.00000  Uiso   1.00
H262   H     0.95524   0.71024   0.66017   0.00000  Uiso   1.00
H263   H     0.08254   0.62233   0.39178   0.00000  Uiso   1.00
H264   H     0.10570   0.79347   0.52121   0.00000  Uiso   1.00
H265   H     0.84486   0.71702   0.76073   0.00000  Uiso   1.00
H266   H     0.11331   0.53165   0.19481   0.00000  Uiso   1.00
H267   H     0.16214   0.89255   0.46773   0.00000  Uiso   1.00
O268   O     0.75066   0.73988   0.63482   0.00000  Uiso   1.00
O269   O     0.10286   0.49670   0.89235   0.00000  Uiso   1.00
O270   O     0.16692   0.97019   0.25042   0.00000  Uiso   1.00
N271   N     0.80636   0.75044   0.41109   0.00000  Uiso   1.00
N272   N     0.05734   0.57713   0.88200   0.00000  Uiso   1.00
N273   N     0.10300   0.91453   0.13713   0.00000  Uiso   1.00
N274   N     0.84219   0.72691   0.64269   0.00000  Uiso   1.00
N275   N     0.09317   0.55361   0.11361   0.00000  Uiso   1.00
N276   N     0.13883   0.89100   0.36874   0.00000  Uiso   1.00
C277   C     0.51427   0.75054   0.62307   0.00000  Uiso   1.00
C278   C     0.55495   0.75601   0.75905   0.00000  Uiso   1.00
C279   C     0.60910   0.74751   0.74437   0.00000  Uiso   1.00
C280   C     0.63961   0.75458   0.88303   0.00000  Uiso   1.00
C281   C     0.70625   0.76082   0.07165   0.00000  Uiso   1.00
C282   C     0.48578   0.80378   0.61324   0.00000  Uiso   1.00
C283   C     0.48179   0.83544   0.47594   0.00000  Uiso   1.00
C284   C     0.45406   0.88273   0.49186   0.00000  Uiso   1.00
C285   C     0.41329   0.96311   0.45407   0.00000  Uiso   1.00
C286   C     0.47321   0.71079   0.68356   0.00000  Uiso   1.00
C287   C     0.45862   0.66427   0.60538   0.00000  Uiso   1.00
C288   C     0.42030   0.63327   0.68049   0.00000  Uiso   1.00
C289   C     0.36000   0.56927   0.75189   0.00000  Uiso   1.00
C290   C     0.47213   0.77821   0.89543   0.00000  Uiso   1.00
C291   C     0.53206   0.77104   0.90699   0.00000  Uiso   1.00
C292   C     0.56249   0.77813   0.04571   0.00000  Uiso   1.00
C293   C     0.61668   0.76964   0.03123   0.00000  Uiso   1.00
C294   C     0.46290   0.81881   0.76117   0.00000  Uiso   1.00
C295   C     0.43517   0.86606   0.77728   0.00000  Uiso   1.00
C296   C     0.43113   0.89778   0.64006   0.00000  Uiso   1.00
C297   C     0.45032   0.72582   0.83150   0.00000  Uiso   1.00
C298   C     0.41201   0.69488   0.90673   0.00000  Uiso   1.00
C299   C     0.39737   0.64833   0.82869   0.00000  Uiso   1.00
H300   H     0.53209   0.73884   0.50789   0.00000  Uiso   1.00
H301   H     0.62680   0.73589   0.62985   0.00000  Uiso   1.00
H302   H     0.49950   0.82380   0.36148   0.00000  Uiso   1.00
H303   H     0.47634   0.65265   0.49090   0.00000  Uiso   1.00
H304   H     0.72172   0.73926   0.83030   0.00000  Uiso   1.00
H305   H     0.45328   0.92462   0.26440   0.00000  Uiso   1.00
H306   H     0.40444   0.56373   0.53731   0.00000  Uiso   1.00
H307   H     0.45431   0.78991   0.01061   0.00000  Uiso   1.00
H308   H     0.54476   0.78976   0.16017   0.00000  Uiso   1.00
H309   H     0.41746   0.87767   0.89178   0.00000  Uiso   1.00
H310   H     0.39430   0.70653   0.02121   0.00000  Uiso   1.00
H311   H     0.65514   0.78298   0.26073   0.00000  Uiso   1.00
H312   H     0.38669   0.96835   0.69481   0.00000  Uiso   1.00
H313   H     0.33786   0.60745   0.96773   0.00000  Uiso   1.00
O314   O     0.74934   0.76012   0.13482   0.00000  Uiso   1.00
O315   O     0.39714   0.00330   0.39235   0.00000  Uiso   1.00
O316   O     0.33308   0.52981   0.75042   0.00000  Uiso   1.00
N317   N     0.69364   0.74956   0.91109   0.00000  Uiso   1.00
N318   N     0.44266   0.92287   0.38200   0.00000  Uiso   1.00
N319   N     0.39700   0.58547   0.63713   0.00000  Uiso   1.00
N320   N     0.65781   0.77309   0.14269   0.00000  Uiso   1.00
N321   N     0.40683   0.94639   0.61361   0.00000  Uiso   1.00
N322   N     0.36117   0.60900   0.86874   0.00000  Uiso   1.00
C323   C     0.01427   0.25054   0.12307   0.00000  Uiso   1.00
C324   C     0.05495   0.25601   0.25905   0.00000  Uiso   1.00
C325   C     0.10910   0.24751   0.24437   0.00000  Uiso   1.00
C326   C     0.13961   0.25458   0.38303   0.00000  Uiso   1.00
C327   C     0.20625   0.26082   0.57165   0.00000  Uiso   1.00
C328   C     0.98578   0.30378   0.11324   0.00000  Uiso   1.00
C329   C     0.98179   0.33544   0.97594   0.00000  Uiso   1.00
C330   C     0.95406   0.38273   0.99186   0.00000  Uiso   1.00
C331   C     0.91329   0.46311   0.95407   0.00000  Uiso   1.00
C332   C     0.97321   0.21079   0.18356   0.00000  Uiso   1.00
C333   C     0.95862   0.16427   0.10538   0.00000  Uiso   1.00
C334   C     0.92030   0.13327   0.18049   0.00000  Uiso   1.00
C335   C     0.86000   0.06927   0.25189   0.00000  Uiso   1.00
C336   C     0.97213   0.27821   0.39543   0.00000  Uiso   1.00
C337   C     0.03206   0.27104   0.40699   0.00000  Uiso   1.00
C338   C     0.06249   0.27813   0.54571   0.00000  Uiso   1.00
C339   C     0.11668   0.26964   0.53123   0.00000  Uiso   1.00
C340   C     0.96290   0.31881   0.26117   0.00000  Uiso   1.00
C341   C     0.93517   0.36606   0.27728   0.00000  Uiso   1.00
C342   C     0.93113   0.39778   0.14006   0.00000  Uiso   1.00
C343   C     0.95032   0.22582   0.33150   0.00000  Uiso   1.00
C344   C     0.91201   0.19488   0.40673   0.00000  Uiso   1.00
C345   C     0.89737   0.14833   0.32869   0.00000  Uiso   1.00
H346   H     0.03209   0.23884   0.00789   0.00000  Uiso   1.00
H347   H     0.12680   0.23589   0.12985   0.00000  Uiso   1.00
H348   H     0.99950   0.32380   0.86148   0.00000  Uiso   1.00
H349   H     0.97634   0.15265   0.99090   0.00000  Uiso   1.00
H350   H     0.22172   0.23926   0.33030   0.00000  Uiso   1.00
H351   H     0.95328   0.42462   0.76440   0.00000  Uiso   1.00
H352   H     0.90444   0.06373   0.03731   0.00000  Uiso   1.00
H353   H     0.95431   0.28991   0.51061   0.00000  Uiso   1.00
H354   H     0.04476   0.28976   0.66017   0.00000  Uiso   1.00
H355   H     0.91746   0.37767   0.39178   0.00000  Uiso   1.00
H356   H     0.89430   0.20653   0.52121   0.00000  Uiso   1.00
H357   H     0.15514   0.28298   0.76073   0.00000  Uiso   1.00
H358   H     0.88669   0.46835   0.19481   0.00000  Uiso   1.00
H359   H     0.83786   0.10745   0.46773   0.00000  Uiso   1.00
O360   O     0.24934   0.26012   0.63482   0.00000  Uiso   1.00
O361   O     0.89714   0.50330   0.89235   0.00000  Uiso   1.00
O362   O     0.83308   0.02981   0.25042   0.00000  Uiso   1.00
N363   N     0.19364   0.24956   0.41109   0.00000  Uiso   1.00
N364   N     0.94266   0.42287   0.88200   0.00000  Uiso   1.00
N365   N     0.89700   0.08547   0.13713   0.00000  Uiso   1.00
N366   N     0.15781   0.27309   0.64269   0.00000  Uiso   1.00
N367   N     0.90683   0.44639   0.11361   0.00000  Uiso   1.00
N368   N     0.86117   0.10900   0.36874   0.00000  Uiso   1.00
