data_job_05150
_audit_creation_date              2018-12-19
_audit_creation_method            'Materials Studio'
_symmetry_space_group_name_H-M    'P1'
_symmetry_Int_Tables_number       1
_symmetry_cell_setting            triclinic
loop_
_symmetry_equiv_pos_as_xyz
  x,y,z
_cell_length_a                    28.5946
_cell_length_b                    7.1143
_cell_length_c                    24.0185
_cell_angle_alpha                 90.0000
_cell_angle_beta                  48.9280
_cell_angle_gamma                 90.0000
loop_
_atom_site_label
_atom_site_type_symbol
_atom_site_fract_x
_atom_site_fract_y
_atom_site_fract_z
_atom_site_U_iso_or_equiv
_atom_site_adp_type
_atom_site_occupancy
C1     C     0.30174   0.73618   0.76382   0.00000  Uiso   1.00
C2     C     0.34295   0.79557   0.68307   0.00000  Uiso   1.00
C3     C     0.35871   0.68440   0.62542   0.00000  Uiso   1.00
C4     C     0.39695   0.76459   0.55552   0.00000  Uiso   1.00
C5     C     0.45767   0.82868   0.43192   0.00000  Uiso   1.00
C6     C     0.34025   0.76608   0.78621   0.00000  Uiso   1.00
C7     C     0.35373   0.63010   0.81529   0.00000  Uiso   1.00
C8     C     0.38970   0.68549   0.83222   0.00000  Uiso   1.00
C9     C     0.44619   0.70382   0.86880   0.00000  Uiso   1.00
C10    C     0.24935   0.87996   0.80735   0.00000  Uiso   1.00
C11    C     0.18641   0.83974   0.85422   0.00000  Uiso   1.00
C12    C     0.14585   0.99100   0.88897   0.00000  Uiso   1.00
C13    C     0.06122   0.18615   0.95837   0.00000  Uiso   1.00
C14    C     0.34162   0.07631   0.74219   0.00000  Uiso   1.00
C15    C     0.36461   0.98032   0.67133   0.00000  Uiso   1.00
C16    C     0.40284   0.06071   0.60150   0.00000  Uiso   1.00
C17    C     0.41866   0.94967   0.54375   0.00000  Uiso   1.00
C18    C     0.36191   0.95081   0.77446   0.00000  Uiso   1.00
C19    C     0.39786   0.00642   0.79136   0.00000  Uiso   1.00
C20    C     0.41140   0.87056   0.82045   0.00000  Uiso   1.00
C21    C     0.27102   0.06471   0.79560   0.00000  Uiso   1.00
C22    C     0.23055   0.21606   0.83029   0.00000  Uiso   1.00
C23    C     0.16756   0.17608   0.87720   0.00000  Uiso   1.00
H24    H     0.28487   0.59234   0.77296   0.00000  Uiso   1.00
H25    H     0.34194   0.54142   0.63453   0.00000  Uiso   1.00
H26    H     0.33696   0.48715   0.82438   0.00000  Uiso   1.00
H27    H     0.16967   0.69676   0.86330   0.00000  Uiso   1.00
H28    H     0.41478   0.56642   0.47587   0.00000  Uiso   1.00
H29    H     0.40426   0.45200   0.87619   0.00000  Uiso   1.00
H30    H     0.05149   0.89399   0.95827   0.00000  Uiso   1.00
H31    H     0.35849   0.22014   0.73305   0.00000  Uiso   1.00
H32    H     0.41960   0.20368   0.59242   0.00000  Uiso   1.00
H33    H     0.41462   0.14940   0.78227   0.00000  Uiso   1.00
H34    H     0.24733   0.35900   0.82119   0.00000  Uiso   1.00
H35    H     0.47782   0.10392   0.44169   0.00000  Uiso   1.00
H36    H     0.46729   0.98950   0.84202   0.00000  Uiso   1.00
H37    H     0.11453   0.43150   0.92409   0.00000  Uiso   1.00
O38    O     0.48519   0.81299   0.36699   0.00000  Uiso   1.00
O39    O     0.47137   0.66288   0.89221   0.00000  Uiso   1.00
O40    O     0.00855   0.24277   0.99989   0.00000  Uiso   1.00
N41    N     0.42122   0.69519   0.48713   0.00000  Uiso   1.00
N42    N     0.41139   0.58821   0.86139   0.00000  Uiso   1.00
N43    N     0.08158   0.00143   0.93814   0.00000  Uiso   1.00
N44    N     0.45514   0.98442   0.46874   0.00000  Uiso   1.00
N45    N     0.44531   0.87744   0.84300   0.00000  Uiso   1.00
N46    N     0.11550   0.29066   0.91975   0.00000  Uiso   1.00
C47    C     0.69826   0.73618   0.73618   0.00000  Uiso   1.00
C48    C     0.65705   0.79557   0.81693   0.00000  Uiso   1.00
C49    C     0.64129   0.68440   0.87458   0.00000  Uiso   1.00
C50    C     0.60305   0.76459   0.94448   0.00000  Uiso   1.00
C51    C     0.54233   0.82868   0.06808   0.00000  Uiso   1.00
C52    C     0.65975   0.76608   0.71379   0.00000  Uiso   1.00
C53    C     0.64627   0.63010   0.68471   0.00000  Uiso   1.00
C54    C     0.61030   0.68549   0.66778   0.00000  Uiso   1.00
C55    C     0.55381   0.70382   0.63120   0.00000  Uiso   1.00
C56    C     0.75065   0.87996   0.69265   0.00000  Uiso   1.00
C57    C     0.81359   0.83974   0.64578   0.00000  Uiso   1.00
C58    C     0.85415   0.99100   0.61103   0.00000  Uiso   1.00
C59    C     0.93878   0.18615   0.54163   0.00000  Uiso   1.00
C60    C     0.65838   0.07631   0.75781   0.00000  Uiso   1.00
C61    C     0.63539   0.98032   0.82867   0.00000  Uiso   1.00
C62    C     0.59716   0.06071   0.89850   0.00000  Uiso   1.00
C63    C     0.58134   0.94967   0.95625   0.00000  Uiso   1.00
C64    C     0.63809   0.95081   0.72554   0.00000  Uiso   1.00
C65    C     0.60214   0.00642   0.70864   0.00000  Uiso   1.00
C66    C     0.58860   0.87056   0.67955   0.00000  Uiso   1.00
C67    C     0.72898   0.06471   0.70440   0.00000  Uiso   1.00
C68    C     0.76945   0.21606   0.66971   0.00000  Uiso   1.00
C69    C     0.83244   0.17608   0.62280   0.00000  Uiso   1.00
H70    H     0.71513   0.59234   0.72704   0.00000  Uiso   1.00
H71    H     0.65806   0.54142   0.86547   0.00000  Uiso   1.00
H72    H     0.66304   0.48715   0.67562   0.00000  Uiso   1.00
H73    H     0.83033   0.69676   0.63670   0.00000  Uiso   1.00
H74    H     0.58522   0.56642   0.02413   0.00000  Uiso   1.00
H75    H     0.59574   0.45200   0.62381   0.00000  Uiso   1.00
H76    H     0.94851   0.89399   0.54173   0.00000  Uiso   1.00
H77    H     0.64151   0.22014   0.76695   0.00000  Uiso   1.00
H78    H     0.58040   0.20368   0.90758   0.00000  Uiso   1.00
H79    H     0.58538   0.14940   0.71773   0.00000  Uiso   1.00
H80    H     0.75267   0.35900   0.67881   0.00000  Uiso   1.00
H81    H     0.52218   0.10392   0.05831   0.00000  Uiso   1.00
H82    H     0.53271   0.98950   0.65798   0.00000  Uiso   1.00
H83    H     0.88547   0.43150   0.57591   0.00000  Uiso   1.00
O84    O     0.51481   0.81299   0.13301   0.00000  Uiso   1.00
O85    O     0.52863   0.66288   0.60779   0.00000  Uiso   1.00
O86    O     0.99145   0.24277   0.50011   0.00000  Uiso   1.00
N87    N     0.57878   0.69519   0.01287   0.00000  Uiso   1.00
N88    N     0.58861   0.58821   0.63861   0.00000  Uiso   1.00
N89    N     0.91842   0.00143   0.56186   0.00000  Uiso   1.00
N90    N     0.54486   0.98442   0.03126   0.00000  Uiso   1.00
N91    N     0.55469   0.87744   0.65700   0.00000  Uiso   1.00
N92    N     0.88450   0.29066   0.58025   0.00000  Uiso   1.00
C93    C     0.69826   0.26382   0.23618   0.00000  Uiso   1.00
C94    C     0.65705   0.20443   0.31693   0.00000  Uiso   1.00
C95    C     0.64129   0.31560   0.37458   0.00000  Uiso   1.00
C96    C     0.60305   0.23541   0.44448   0.00000  Uiso   1.00
C97    C     0.54233   0.17132   0.56808   0.00000  Uiso   1.00
C98    C     0.65975   0.23392   0.21379   0.00000  Uiso   1.00
C99    C     0.64627   0.36990   0.18471   0.00000  Uiso   1.00
C100   C     0.61030   0.31451   0.16778   0.00000  Uiso   1.00
C101   C     0.55381   0.29618   0.13120   0.00000  Uiso   1.00
C102   C     0.75065   0.12004   0.19265   0.00000  Uiso   1.00
C103   C     0.81359   0.16026   0.14578   0.00000  Uiso   1.00
C104   C     0.85415   0.00900   0.11103   0.00000  Uiso   1.00
C105   C     0.93878   0.81385   0.04163   0.00000  Uiso   1.00
C106   C     0.65838   0.92369   0.25781   0.00000  Uiso   1.00
C107   C     0.63539   0.01968   0.32867   0.00000  Uiso   1.00
C108   C     0.59716   0.93929   0.39850   0.00000  Uiso   1.00
C109   C     0.58134   0.05033   0.45625   0.00000  Uiso   1.00
C110   C     0.63809   0.04919   0.22554   0.00000  Uiso   1.00
C111   C     0.60214   0.99358   0.20864   0.00000  Uiso   1.00
C112   C     0.58860   0.12944   0.17955   0.00000  Uiso   1.00
C113   C     0.72898   0.93529   0.20440   0.00000  Uiso   1.00
C114   C     0.76945   0.78394   0.16971   0.00000  Uiso   1.00
C115   C     0.83244   0.82392   0.12280   0.00000  Uiso   1.00
H116   H     0.71513   0.40766   0.22704   0.00000  Uiso   1.00
H117   H     0.65806   0.45858   0.36547   0.00000  Uiso   1.00
H118   H     0.66304   0.51285   0.17562   0.00000  Uiso   1.00
H119   H     0.83033   0.30324   0.13670   0.00000  Uiso   1.00
H120   H     0.58522   0.43358   0.52413   0.00000  Uiso   1.00
H121   H     0.59574   0.54800   0.12381   0.00000  Uiso   1.00
H122   H     0.94851   0.10601   0.04173   0.00000  Uiso   1.00
H123   H     0.64151   0.77986   0.26695   0.00000  Uiso   1.00
H124   H     0.58040   0.79632   0.40758   0.00000  Uiso   1.00
H125   H     0.58538   0.85060   0.21773   0.00000  Uiso   1.00
H126   H     0.75267   0.64100   0.17881   0.00000  Uiso   1.00
H127   H     0.52218   0.89608   0.55831   0.00000  Uiso   1.00
H128   H     0.53271   0.01050   0.15798   0.00000  Uiso   1.00
H129   H     0.88547   0.56850   0.07591   0.00000  Uiso   1.00
O130   O     0.51481   0.18701   0.63301   0.00000  Uiso   1.00
O131   O     0.52863   0.33712   0.10779   0.00000  Uiso   1.00
O132   O     0.99145   0.75723   0.00011   0.00000  Uiso   1.00
N133   N     0.57878   0.30481   0.51287   0.00000  Uiso   1.00
N134   N     0.58861   0.41179   0.13861   0.00000  Uiso   1.00
N135   N     0.91842   0.99857   0.06186   0.00000  Uiso   1.00
N136   N     0.54486   0.01558   0.53126   0.00000  Uiso   1.00
N137   N     0.55469   0.12256   0.15700   0.00000  Uiso   1.00
N138   N     0.88450   0.70934   0.08025   0.00000  Uiso   1.00
C139   C     0.30174   0.26382   0.26382   0.00000  Uiso   1.00
C140   C     0.34295   0.20443   0.18307   0.00000  Uiso   1.00
C141   C     0.35871   0.31560   0.12542   0.00000  Uiso   1.00
C142   C     0.39695   0.23541   0.05552   0.00000  Uiso   1.00
C143   C     0.45767   0.17132   0.93192   0.00000  Uiso   1.00
C144   C     0.34025   0.23392   0.28621   0.00000  Uiso   1.00
C145   C     0.35373   0.36990   0.31529   0.00000  Uiso   1.00
C146   C     0.38970   0.31451   0.33222   0.00000  Uiso   1.00
C147   C     0.44619   0.29618   0.36880   0.00000  Uiso   1.00
C148   C     0.24935   0.12004   0.30735   0.00000  Uiso   1.00
C149   C     0.18641   0.16026   0.35422   0.00000  Uiso   1.00
C150   C     0.14585   0.00900   0.38897   0.00000  Uiso   1.00
C151   C     0.06122   0.81385   0.45837   0.00000  Uiso   1.00
C152   C     0.34162   0.92369   0.24219   0.00000  Uiso   1.00
C153   C     0.36461   0.01968   0.17133   0.00000  Uiso   1.00
C154   C     0.40284   0.93929   0.10150   0.00000  Uiso   1.00
C155   C     0.41866   0.05033   0.04375   0.00000  Uiso   1.00
C156   C     0.36191   0.04919   0.27446   0.00000  Uiso   1.00
C157   C     0.39786   0.99358   0.29136   0.00000  Uiso   1.00
C158   C     0.41140   0.12944   0.32045   0.00000  Uiso   1.00
C159   C     0.27102   0.93529   0.29560   0.00000  Uiso   1.00
C160   C     0.23055   0.78394   0.33029   0.00000  Uiso   1.00
C161   C     0.16756   0.82392   0.37720   0.00000  Uiso   1.00
H162   H     0.28487   0.40766   0.27296   0.00000  Uiso   1.00
H163   H     0.34194   0.45858   0.13453   0.00000  Uiso   1.00
H164   H     0.33696   0.51285   0.32438   0.00000  Uiso   1.00
H165   H     0.16967   0.30324   0.36330   0.00000  Uiso   1.00
H166   H     0.41478   0.43358   0.97587   0.00000  Uiso   1.00
H167   H     0.40426   0.54800   0.37619   0.00000  Uiso   1.00
H168   H     0.05149   0.10601   0.45827   0.00000  Uiso   1.00
H169   H     0.35849   0.77986   0.23305   0.00000  Uiso   1.00
H170   H     0.41960   0.79632   0.09242   0.00000  Uiso   1.00
H171   H     0.41462   0.85060   0.28227   0.00000  Uiso   1.00
H172   H     0.24733   0.64100   0.32119   0.00000  Uiso   1.00
H173   H     0.47782   0.89608   0.94169   0.00000  Uiso   1.00
H174   H     0.46729   0.01050   0.34202   0.00000  Uiso   1.00
H175   H     0.11453   0.56850   0.42409   0.00000  Uiso   1.00
O176   O     0.48519   0.18701   0.86699   0.00000  Uiso   1.00
O177   O     0.47137   0.33712   0.39221   0.00000  Uiso   1.00
O178   O     0.00855   0.75723   0.49989   0.00000  Uiso   1.00
N179   N     0.42122   0.30481   0.98713   0.00000  Uiso   1.00
N180   N     0.41139   0.41179   0.36139   0.00000  Uiso   1.00
N181   N     0.08158   0.99857   0.43814   0.00000  Uiso   1.00
N182   N     0.45514   0.01558   0.96874   0.00000  Uiso   1.00
N183   N     0.44531   0.12256   0.34300   0.00000  Uiso   1.00
N184   N     0.11550   0.70934   0.41975   0.00000  Uiso   1.00
