data_job_04374
_audit_creation_date              2018-12-19
_audit_creation_method            'Materials Studio'
_symmetry_space_group_name_H-M    'P1'
_symmetry_Int_Tables_number       1
_symmetry_cell_setting            triclinic
loop_
_symmetry_equiv_pos_as_xyz
  x,y,z
_cell_length_a                    7.5133
_cell_length_b                    13.0013
_cell_length_c                    24.9551
_cell_angle_alpha                 90.0000
_cell_angle_beta                  90.0000
_cell_angle_gamma                 90.0000
loop_
_atom_site_label
_atom_site_type_symbol
_atom_site_fract_x
_atom_site_fract_y
_atom_site_fract_z
_atom_site_U_iso_or_equiv
_atom_site_adp_type
_atom_site_occupancy
C1     C     0.17158   0.12254   0.43236   0.00000  Uiso   1.00
C2     C     0.09320   0.15008   0.48686   0.00000  Uiso   1.00
C3     C     0.18984   0.17324   0.53270   0.00000  Uiso   1.00
C4     C     0.09336   0.19642   0.57859   0.00000  Uiso   1.00
C5     C     0.09319   0.01815   0.41754   0.00000  Uiso   1.00
C6     C     0.18984   0.93038   0.40507   0.00000  Uiso   1.00
C7     C     0.09336   0.84250   0.39259   0.00000  Uiso   1.00
C8     C     0.09320   0.19936   0.39267   0.00000  Uiso   1.00
C9     C     0.18984   0.26393   0.35929   0.00000  Uiso   1.00
C10    C     0.09336   0.32859   0.32586   0.00000  Uiso   1.00
H11    H     0.31670   0.12253   0.43236   0.00000  Uiso   1.00
H12    H     0.33408   0.17322   0.53268   0.00000  Uiso   1.00
H13    H     0.33408   0.93041   0.40507   0.00000  Uiso   1.00
H14    H     0.33408   0.26390   0.35930   0.00000  Uiso   1.00
H15    H     0.27115   0.22938   0.64392   0.00000  Uiso   1.00
H16    H     0.27115   0.71741   0.37482   0.00000  Uiso   1.00
H17    H     0.27115   0.42065   0.27830   0.00000  Uiso   1.00
N18    N     0.14590   0.22244   0.63015   0.00000  Uiso   1.00
N19    N     0.14590   0.74378   0.37857   0.00000  Uiso   1.00
N20    N     0.14590   0.40123   0.28831   0.00000  Uiso   1.00
C21    C     0.67158   0.62295   0.57708   0.00000  Uiso   1.00
C22    C     0.59320   0.59248   0.52300   0.00000  Uiso   1.00
C23    C     0.68984   0.56687   0.47752   0.00000  Uiso   1.00
C24    C     0.59336   0.54122   0.43199   0.00000  Uiso   1.00
C25    C     0.59319   0.72809   0.59037   0.00000  Uiso   1.00
C26    C     0.68984   0.81650   0.60154   0.00000  Uiso   1.00
C27    C     0.59336   0.90502   0.61273   0.00000  Uiso   1.00
C28    C     0.59320   0.54830   0.61787   0.00000  Uiso   1.00
C29    C     0.68984   0.48555   0.65219   0.00000  Uiso   1.00
C30    C     0.59336   0.42272   0.68655   0.00000  Uiso   1.00
H31    H     0.81670   0.62296   0.57708   0.00000  Uiso   1.00
H32    H     0.83408   0.56688   0.47753   0.00000  Uiso   1.00
H33    H     0.83408   0.81647   0.60155   0.00000  Uiso   1.00
H34    H     0.83408   0.48557   0.65218   0.00000  Uiso   1.00
H35    H     0.77115   0.50475   0.36716   0.00000  Uiso   1.00
H36    H     0.77115   0.03101   0.62867   0.00000  Uiso   1.00
H37    H     0.77115   0.33326   0.73544   0.00000  Uiso   1.00
N38    N     0.64590   0.51243   0.38083   0.00000  Uiso   1.00
N39    N     0.64590   0.00445   0.62531   0.00000  Uiso   1.00
N40    N     0.64590   0.35213   0.72514   0.00000  Uiso   1.00
C41    C     0.82842   0.87746   0.93236   0.00000  Uiso   1.00
C42    C     0.90680   0.84992   0.98686   0.00000  Uiso   1.00
C43    C     0.81016   0.82676   0.03270   0.00000  Uiso   1.00
C44    C     0.90664   0.80358   0.07859   0.00000  Uiso   1.00
C45    C     0.90681   0.98185   0.91754   0.00000  Uiso   1.00
C46    C     0.81016   0.06962   0.90507   0.00000  Uiso   1.00
C47    C     0.90664   0.15750   0.89259   0.00000  Uiso   1.00
C48    C     0.90680   0.80064   0.89267   0.00000  Uiso   1.00
C49    C     0.81016   0.73607   0.85929   0.00000  Uiso   1.00
C50    C     0.90664   0.67141   0.82586   0.00000  Uiso   1.00
H51    H     0.68330   0.87747   0.93236   0.00000  Uiso   1.00
H52    H     0.66592   0.82678   0.03268   0.00000  Uiso   1.00
H53    H     0.66592   0.06959   0.90507   0.00000  Uiso   1.00
H54    H     0.66592   0.73610   0.85930   0.00000  Uiso   1.00
H55    H     0.72885   0.77062   0.14392   0.00000  Uiso   1.00
H56    H     0.72885   0.28259   0.87482   0.00000  Uiso   1.00
H57    H     0.72885   0.57935   0.77830   0.00000  Uiso   1.00
N58    N     0.85410   0.77756   0.13015   0.00000  Uiso   1.00
N59    N     0.85410   0.25622   0.87857   0.00000  Uiso   1.00
N60    N     0.85410   0.59877   0.78831   0.00000  Uiso   1.00
C61    C     0.32842   0.37705   0.07708   0.00000  Uiso   1.00
C62    C     0.40680   0.40752   0.02300   0.00000  Uiso   1.00
C63    C     0.31016   0.43313   0.97752   0.00000  Uiso   1.00
C64    C     0.40664   0.45878   0.93199   0.00000  Uiso   1.00
C65    C     0.40681   0.27191   0.09037   0.00000  Uiso   1.00
C66    C     0.31016   0.18350   0.10154   0.00000  Uiso   1.00
C67    C     0.40664   0.09498   0.11273   0.00000  Uiso   1.00
C68    C     0.40680   0.45170   0.11787   0.00000  Uiso   1.00
C69    C     0.31016   0.51445   0.15219   0.00000  Uiso   1.00
C70    C     0.40664   0.57728   0.18655   0.00000  Uiso   1.00
H71    H     0.18330   0.37704   0.07708   0.00000  Uiso   1.00
H72    H     0.16592   0.43312   0.97753   0.00000  Uiso   1.00
H73    H     0.16592   0.18353   0.10155   0.00000  Uiso   1.00
H74    H     0.16592   0.51443   0.15218   0.00000  Uiso   1.00
H75    H     0.22885   0.49525   0.86716   0.00000  Uiso   1.00
H76    H     0.22885   0.96899   0.12867   0.00000  Uiso   1.00
H77    H     0.22885   0.66674   0.23544   0.00000  Uiso   1.00
N78    N     0.35410   0.48757   0.88083   0.00000  Uiso   1.00
N79    N     0.35410   0.99555   0.12531   0.00000  Uiso   1.00
N80    N     0.35410   0.64787   0.22514   0.00000  Uiso   1.00
C81    C     0.17158   0.87746   0.93236   0.00000  Uiso   1.00
C82    C     0.09320   0.84992   0.98686   0.00000  Uiso   1.00
C83    C     0.18984   0.82676   0.03270   0.00000  Uiso   1.00
C84    C     0.09336   0.80358   0.07859   0.00000  Uiso   1.00
C85    C     0.09319   0.98185   0.91754   0.00000  Uiso   1.00
C86    C     0.18984   0.06962   0.90507   0.00000  Uiso   1.00
C87    C     0.09336   0.15750   0.89259   0.00000  Uiso   1.00
C88    C     0.09320   0.80064   0.89267   0.00000  Uiso   1.00
C89    C     0.18984   0.73607   0.85929   0.00000  Uiso   1.00
C90    C     0.09336   0.67141   0.82586   0.00000  Uiso   1.00
H91    H     0.31670   0.87747   0.93236   0.00000  Uiso   1.00
H92    H     0.33408   0.82678   0.03268   0.00000  Uiso   1.00
H93    H     0.33408   0.06959   0.90507   0.00000  Uiso   1.00
H94    H     0.33408   0.73610   0.85930   0.00000  Uiso   1.00
H95    H     0.27115   0.77062   0.14392   0.00000  Uiso   1.00
H96    H     0.27115   0.28259   0.87482   0.00000  Uiso   1.00
H97    H     0.27115   0.57935   0.77830   0.00000  Uiso   1.00
N98    N     0.14590   0.77756   0.13015   0.00000  Uiso   1.00
N99    N     0.14590   0.25622   0.87857   0.00000  Uiso   1.00
N100   N     0.14590   0.59877   0.78831   0.00000  Uiso   1.00
C101   C     0.67158   0.37705   0.07708   0.00000  Uiso   1.00
C102   C     0.59320   0.40752   0.02300   0.00000  Uiso   1.00
C103   C     0.68984   0.43313   0.97752   0.00000  Uiso   1.00
C104   C     0.59336   0.45878   0.93199   0.00000  Uiso   1.00
C105   C     0.59319   0.27191   0.09037   0.00000  Uiso   1.00
C106   C     0.68984   0.18350   0.10154   0.00000  Uiso   1.00
C107   C     0.59336   0.09498   0.11273   0.00000  Uiso   1.00
C108   C     0.59320   0.45170   0.11787   0.00000  Uiso   1.00
C109   C     0.68984   0.51445   0.15219   0.00000  Uiso   1.00
C110   C     0.59336   0.57728   0.18655   0.00000  Uiso   1.00
H111   H     0.81670   0.37704   0.07708   0.00000  Uiso   1.00
H112   H     0.83408   0.43312   0.97753   0.00000  Uiso   1.00
H113   H     0.83408   0.18353   0.10155   0.00000  Uiso   1.00
H114   H     0.83408   0.51443   0.15218   0.00000  Uiso   1.00
H115   H     0.77115   0.49525   0.86716   0.00000  Uiso   1.00
H116   H     0.77115   0.96899   0.12867   0.00000  Uiso   1.00
H117   H     0.77115   0.66674   0.23544   0.00000  Uiso   1.00
N118   N     0.64590   0.48757   0.88083   0.00000  Uiso   1.00
N119   N     0.64590   0.99555   0.12531   0.00000  Uiso   1.00
N120   N     0.64590   0.64787   0.22514   0.00000  Uiso   1.00
C121   C     0.82842   0.12254   0.43236   0.00000  Uiso   1.00
C122   C     0.90680   0.15008   0.48686   0.00000  Uiso   1.00
C123   C     0.81016   0.17324   0.53270   0.00000  Uiso   1.00
C124   C     0.90664   0.19642   0.57859   0.00000  Uiso   1.00
C125   C     0.90681   0.01815   0.41754   0.00000  Uiso   1.00
C126   C     0.81016   0.93038   0.40507   0.00000  Uiso   1.00
C127   C     0.90664   0.84250   0.39259   0.00000  Uiso   1.00
C128   C     0.90680   0.19936   0.39267   0.00000  Uiso   1.00
C129   C     0.81016   0.26393   0.35929   0.00000  Uiso   1.00
C130   C     0.90664   0.32859   0.32586   0.00000  Uiso   1.00
H131   H     0.68330   0.12253   0.43236   0.00000  Uiso   1.00
H132   H     0.66592   0.17322   0.53268   0.00000  Uiso   1.00
H133   H     0.66592   0.93041   0.40507   0.00000  Uiso   1.00
H134   H     0.66592   0.26390   0.35930   0.00000  Uiso   1.00
H135   H     0.72885   0.22938   0.64392   0.00000  Uiso   1.00
H136   H     0.72885   0.71741   0.37482   0.00000  Uiso   1.00
H137   H     0.72885   0.42065   0.27830   0.00000  Uiso   1.00
N138   N     0.85410   0.22244   0.63015   0.00000  Uiso   1.00
N139   N     0.85410   0.74378   0.37857   0.00000  Uiso   1.00
N140   N     0.85410   0.40123   0.28831   0.00000  Uiso   1.00
C141   C     0.32842   0.62295   0.57708   0.00000  Uiso   1.00
C142   C     0.40680   0.59248   0.52300   0.00000  Uiso   1.00
C143   C     0.31016   0.56687   0.47752   0.00000  Uiso   1.00
C144   C     0.40664   0.54122   0.43199   0.00000  Uiso   1.00
C145   C     0.40681   0.72809   0.59037   0.00000  Uiso   1.00
C146   C     0.31016   0.81650   0.60154   0.00000  Uiso   1.00
C147   C     0.40664   0.90502   0.61273   0.00000  Uiso   1.00
C148   C     0.40680   0.54830   0.61787   0.00000  Uiso   1.00
C149   C     0.31016   0.48555   0.65219   0.00000  Uiso   1.00
C150   C     0.40664   0.42272   0.68655   0.00000  Uiso   1.00
H151   H     0.18330   0.62296   0.57708   0.00000  Uiso   1.00
H152   H     0.16592   0.56688   0.47753   0.00000  Uiso   1.00
H153   H     0.16592   0.81647   0.60155   0.00000  Uiso   1.00
H154   H     0.16592   0.48557   0.65218   0.00000  Uiso   1.00
H155   H     0.22885   0.50475   0.36716   0.00000  Uiso   1.00
H156   H     0.22885   0.03101   0.62867   0.00000  Uiso   1.00
H157   H     0.22885   0.33326   0.73544   0.00000  Uiso   1.00
N158   N     0.35410   0.51243   0.38083   0.00000  Uiso   1.00
N159   N     0.35410   0.00445   0.62531   0.00000  Uiso   1.00
N160   N     0.35410   0.35213   0.72514   0.00000  Uiso   1.00
C161   C     0.00000   0.23914   0.66323   0.00000  Uiso   1.00
C162   C     0.00000   0.68043   0.36957   0.00000  Uiso   1.00
C163   C     0.00000   0.44785   0.26423   0.00000  Uiso   1.00
O164   O     0.00000   0.26269   0.70992   0.00000  Uiso   1.00
O165   O     0.00000   0.59102   0.35687   0.00000  Uiso   1.00
O166   O     0.00000   0.51365   0.23023   0.00000  Uiso   1.00
C167   C    -0.00000   0.76086   0.16323   0.00000  Uiso   1.00
C168   C    -0.00000   0.31957   0.86957   0.00000  Uiso   1.00
C169   C    -0.00000   0.55215   0.76423   0.00000  Uiso   1.00
O170   O    -0.00000   0.73731   0.20992   0.00000  Uiso   1.00
O171   O    -0.00000   0.40898   0.85687   0.00000  Uiso   1.00
O172   O    -0.00000   0.48635   0.73023   0.00000  Uiso   1.00
C173   C     0.50000   0.49395   0.34800   0.00000  Uiso   1.00
C174   C     0.50000   0.06827   0.63338   0.00000  Uiso   1.00
C175   C     0.50000   0.30682   0.74990   0.00000  Uiso   1.00
O176   O     0.50000   0.46790   0.30167   0.00000  Uiso   1.00
O177   O     0.50000   0.15832   0.64476   0.00000  Uiso   1.00
O178   O     0.50000   0.24288   0.78484   0.00000  Uiso   1.00
C179   C     0.50000   0.50605   0.84800   0.00000  Uiso   1.00
C180   C     0.50000   0.93173   0.13338   0.00000  Uiso   1.00
C181   C     0.50000   0.69318   0.24990   0.00000  Uiso   1.00
O182   O     0.50000   0.53210   0.80167   0.00000  Uiso   1.00
O183   O     0.50000   0.84168   0.14476   0.00000  Uiso   1.00
O184   O     0.50000   0.75712   0.28484   0.00000  Uiso   1.00
