data_job_05904
_audit_creation_date              2018-12-19
_audit_creation_method            'Materials Studio'
_symmetry_space_group_name_H-M    'P1'
_symmetry_Int_Tables_number       1
_symmetry_cell_setting            triclinic
loop_
_symmetry_equiv_pos_as_xyz
  x,y,z
_cell_length_a                    26.4842
_cell_length_b                    12.4260
_cell_length_c                    14.6758
_cell_angle_alpha                 90.0000
_cell_angle_beta                  90.0000
_cell_angle_gamma                 90.0000
loop_
_atom_site_label
_atom_site_type_symbol
_atom_site_fract_x
_atom_site_fract_y
_atom_site_fract_z
_atom_site_U_iso_or_equiv
_atom_site_adp_type
_atom_site_occupancy
C1     C     0.18002   0.97330   0.67475   0.00000  Uiso   1.00
C2     C     0.21453   0.93749   0.75221   0.00000  Uiso   1.00
C3     C     0.26389   0.90166   0.74281   0.00000  Uiso   1.00
C4     C     0.28913   0.87257   0.82198   0.00000  Uiso   1.00
C5     C     0.34625   0.81593   0.92925   0.00000  Uiso   1.00
C6     C     0.13287   0.90334   0.68149   0.00000  Uiso   1.00
C7     C     0.11355   0.83880   0.61263   0.00000  Uiso   1.00
C8     C     0.07004   0.78097   0.63228   0.00000  Uiso   1.00
C9     C     0.00035   0.67136   0.62973   0.00000  Uiso   1.00
C10    C     0.16324   0.08732   0.69837   0.00000  Uiso   1.00
C11    C     0.16945   0.17747   0.64369   0.00000  Uiso   1.00
C12    C     0.15150   0.27454   0.67755   0.00000  Uiso   1.00
C13    C     0.12897   0.45060   0.70122   0.00000  Uiso   1.00
C14    C     0.13708   0.98536   0.83208   0.00000  Uiso   1.00
C15    C     0.19121   0.94404   0.83766   0.00000  Uiso   1.00
C16    C     0.21638   0.91501   0.91688   0.00000  Uiso   1.00
C17    C     0.26576   0.87914   0.90759   0.00000  Uiso   1.00
C18    C     0.10954   0.90989   0.76694   0.00000  Uiso   1.00
C19    C     0.06604   0.85215   0.78670   0.00000  Uiso   1.00
C20    C     0.04667   0.78753   0.71789   0.00000  Uiso   1.00
C21    C     0.13991   0.09387   0.78383   0.00000  Uiso   1.00
C22    C     0.12194   0.19082   0.81777   0.00000  Uiso   1.00
C23    C     0.12813   0.28111   0.76316   0.00000  Uiso   1.00
H24    H     0.19818   0.96819   0.60822   0.00000  Uiso   1.00
H25    H     0.28193   0.89659   0.67666   0.00000  Uiso   1.00
H26    H     0.13161   0.83375   0.54650   0.00000  Uiso   1.00
H27    H     0.18751   0.17237   0.57757   0.00000  Uiso   1.00
H28    H     0.36448   0.82006   0.79022   0.00000  Uiso   1.00
H29    H     0.04752   0.68759   0.51576   0.00000  Uiso   1.00
H30    H     0.16538   0.40164   0.58127   0.00000  Uiso   1.00
H31    H     0.11892   0.99046   0.89862   0.00000  Uiso   1.00
H32    H     0.19831   0.92009   0.98300   0.00000  Uiso   1.00
H33    H     0.04800   0.85724   0.85284   0.00000  Uiso   1.00
H34    H     0.10389   0.19586   0.88390   0.00000  Uiso   1.00
H35    H     0.29662   0.83912   0.03886   0.00000  Uiso   1.00
H36    H     0.97965   0.70665   0.76439   0.00000  Uiso   1.00
H37    H     0.09752   0.42070   0.82991   0.00000  Uiso   1.00
O38    O     0.38420   0.78286   0.96480   0.00000  Uiso   1.00
O39    O     0.96836   0.60908   0.60472   0.00000  Uiso   1.00
O40    O     0.12300   0.54589   0.69067   0.00000  Uiso   1.00
N41    N     0.33762   0.83422   0.83716   0.00000  Uiso   1.00
N42    N     0.04128   0.71036   0.58056   0.00000  Uiso   1.00
N43    N     0.15146   0.37793   0.64180   0.00000  Uiso   1.00
N44    N     0.30110   0.84448   0.97095   0.00000  Uiso   1.00
N45    N     0.00476   0.72062   0.71435   0.00000  Uiso   1.00
N46    N     0.11494   0.38819   0.77559   0.00000  Uiso   1.00
C47    C     0.68002   0.47330   0.67475   0.00000  Uiso   1.00
C48    C     0.71453   0.43749   0.75221   0.00000  Uiso   1.00
C49    C     0.76389   0.40166   0.74281   0.00000  Uiso   1.00
C50    C     0.78913   0.37257   0.82198   0.00000  Uiso   1.00
C51    C     0.84625   0.31593   0.92925   0.00000  Uiso   1.00
C52    C     0.63287   0.40334   0.68149   0.00000  Uiso   1.00
C53    C     0.61355   0.33880   0.61263   0.00000  Uiso   1.00
C54    C     0.57004   0.28097   0.63228   0.00000  Uiso   1.00
C55    C     0.50035   0.17136   0.62973   0.00000  Uiso   1.00
C56    C     0.66324   0.58732   0.69837   0.00000  Uiso   1.00
C57    C     0.66945   0.67747   0.64369   0.00000  Uiso   1.00
C58    C     0.65150   0.77454   0.67755   0.00000  Uiso   1.00
C59    C     0.62897   0.95060   0.70122   0.00000  Uiso   1.00
C60    C     0.63708   0.48536   0.83208   0.00000  Uiso   1.00
C61    C     0.69121   0.44404   0.83766   0.00000  Uiso   1.00
C62    C     0.71638   0.41501   0.91688   0.00000  Uiso   1.00
C63    C     0.76576   0.37914   0.90759   0.00000  Uiso   1.00
C64    C     0.60954   0.40989   0.76694   0.00000  Uiso   1.00
C65    C     0.56604   0.35215   0.78670   0.00000  Uiso   1.00
C66    C     0.54667   0.28753   0.71789   0.00000  Uiso   1.00
C67    C     0.63991   0.59387   0.78383   0.00000  Uiso   1.00
C68    C     0.62194   0.69082   0.81777   0.00000  Uiso   1.00
C69    C     0.62813   0.78111   0.76316   0.00000  Uiso   1.00
H70    H     0.69818   0.46819   0.60822   0.00000  Uiso   1.00
H71    H     0.78193   0.39659   0.67666   0.00000  Uiso   1.00
H72    H     0.63161   0.33375   0.54650   0.00000  Uiso   1.00
H73    H     0.68751   0.67237   0.57757   0.00000  Uiso   1.00
H74    H     0.86448   0.32006   0.79022   0.00000  Uiso   1.00
H75    H     0.54752   0.18759   0.51576   0.00000  Uiso   1.00
H76    H     0.66538   0.90164   0.58127   0.00000  Uiso   1.00
H77    H     0.61892   0.49046   0.89862   0.00000  Uiso   1.00
H78    H     0.69831   0.42009   0.98300   0.00000  Uiso   1.00
H79    H     0.54800   0.35724   0.85284   0.00000  Uiso   1.00
H80    H     0.60389   0.69586   0.88390   0.00000  Uiso   1.00
H81    H     0.79662   0.33912   0.03886   0.00000  Uiso   1.00
H82    H     0.47965   0.20665   0.76439   0.00000  Uiso   1.00
H83    H     0.59752   0.92070   0.82991   0.00000  Uiso   1.00
O84    O     0.88420   0.28286   0.96480   0.00000  Uiso   1.00
O85    O     0.46836   0.10908   0.60472   0.00000  Uiso   1.00
O86    O     0.62300   0.04589   0.69067   0.00000  Uiso   1.00
N87    N     0.83762   0.33422   0.83716   0.00000  Uiso   1.00
N88    N     0.54128   0.21036   0.58056   0.00000  Uiso   1.00
N89    N     0.65146   0.87793   0.64180   0.00000  Uiso   1.00
N90    N     0.80110   0.34448   0.97095   0.00000  Uiso   1.00
N91    N     0.50476   0.22062   0.71435   0.00000  Uiso   1.00
N92    N     0.61494   0.88819   0.77559   0.00000  Uiso   1.00
C93    C     0.81998   0.02670   0.67475   0.00000  Uiso   1.00
C94    C     0.78547   0.06251   0.75221   0.00000  Uiso   1.00
C95    C     0.73611   0.09834   0.74281   0.00000  Uiso   1.00
C96    C     0.71087   0.12743   0.82198   0.00000  Uiso   1.00
C97    C     0.65375   0.18407   0.92925   0.00000  Uiso   1.00
C98    C     0.86713   0.09666   0.68149   0.00000  Uiso   1.00
C99    C     0.88645   0.16120   0.61263   0.00000  Uiso   1.00
C100   C     0.92996   0.21903   0.63228   0.00000  Uiso   1.00
C101   C     0.99965   0.32864   0.62973   0.00000  Uiso   1.00
C102   C     0.83676   0.91268   0.69837   0.00000  Uiso   1.00
C103   C     0.83055   0.82253   0.64369   0.00000  Uiso   1.00
C104   C     0.84850   0.72546   0.67755   0.00000  Uiso   1.00
C105   C     0.87103   0.54940   0.70122   0.00000  Uiso   1.00
C106   C     0.86292   0.01464   0.83208   0.00000  Uiso   1.00
C107   C     0.80879   0.05596   0.83766   0.00000  Uiso   1.00
C108   C     0.78362   0.08499   0.91688   0.00000  Uiso   1.00
C109   C     0.73424   0.12086   0.90759   0.00000  Uiso   1.00
C110   C     0.89046   0.09011   0.76694   0.00000  Uiso   1.00
C111   C     0.93396   0.14785   0.78670   0.00000  Uiso   1.00
C112   C     0.95333   0.21247   0.71789   0.00000  Uiso   1.00
C113   C     0.86009   0.90613   0.78383   0.00000  Uiso   1.00
C114   C     0.87806   0.80918   0.81777   0.00000  Uiso   1.00
C115   C     0.87187   0.71889   0.76316   0.00000  Uiso   1.00
H116   H     0.80182   0.03181   0.60822   0.00000  Uiso   1.00
H117   H     0.71807   0.10341   0.67666   0.00000  Uiso   1.00
H118   H     0.86839   0.16625   0.54650   0.00000  Uiso   1.00
H119   H     0.81249   0.82763   0.57757   0.00000  Uiso   1.00
H120   H     0.63552   0.17994   0.79022   0.00000  Uiso   1.00
H121   H     0.95248   0.31241   0.51576   0.00000  Uiso   1.00
H122   H     0.83462   0.59836   0.58127   0.00000  Uiso   1.00
H123   H     0.88108   0.00954   0.89862   0.00000  Uiso   1.00
H124   H     0.80169   0.07991   0.98300   0.00000  Uiso   1.00
H125   H     0.95200   0.14276   0.85284   0.00000  Uiso   1.00
H126   H     0.89611   0.80414   0.88390   0.00000  Uiso   1.00
H127   H     0.70338   0.16088   0.03886   0.00000  Uiso   1.00
H128   H     0.02035   0.29335   0.76439   0.00000  Uiso   1.00
H129   H     0.90248   0.57930   0.82991   0.00000  Uiso   1.00
O130   O     0.61580   0.21714   0.96480   0.00000  Uiso   1.00
O131   O     0.03164   0.39092   0.60472   0.00000  Uiso   1.00
O132   O     0.87700   0.45411   0.69067   0.00000  Uiso   1.00
N133   N     0.66238   0.16578   0.83716   0.00000  Uiso   1.00
N134   N     0.95872   0.28964   0.58056   0.00000  Uiso   1.00
N135   N     0.84854   0.62207   0.64180   0.00000  Uiso   1.00
N136   N     0.69890   0.15552   0.97095   0.00000  Uiso   1.00
N137   N     0.99524   0.27938   0.71435   0.00000  Uiso   1.00
N138   N     0.88506   0.61181   0.77559   0.00000  Uiso   1.00
C139   C     0.31998   0.52670   0.67475   0.00000  Uiso   1.00
C140   C     0.28547   0.56251   0.75221   0.00000  Uiso   1.00
C141   C     0.23611   0.59834   0.74281   0.00000  Uiso   1.00
C142   C     0.21087   0.62743   0.82198   0.00000  Uiso   1.00
C143   C     0.15375   0.68407   0.92925   0.00000  Uiso   1.00
C144   C     0.36713   0.59666   0.68149   0.00000  Uiso   1.00
C145   C     0.38645   0.66120   0.61263   0.00000  Uiso   1.00
C146   C     0.42996   0.71903   0.63228   0.00000  Uiso   1.00
C147   C     0.49965   0.82864   0.62973   0.00000  Uiso   1.00
C148   C     0.33676   0.41268   0.69837   0.00000  Uiso   1.00
C149   C     0.33055   0.32253   0.64369   0.00000  Uiso   1.00
C150   C     0.34850   0.22546   0.67755   0.00000  Uiso   1.00
C151   C     0.37103   0.04940   0.70122   0.00000  Uiso   1.00
C152   C     0.36292   0.51464   0.83208   0.00000  Uiso   1.00
C153   C     0.30879   0.55596   0.83766   0.00000  Uiso   1.00
C154   C     0.28362   0.58499   0.91688   0.00000  Uiso   1.00
C155   C     0.23424   0.62086   0.90759   0.00000  Uiso   1.00
C156   C     0.39046   0.59011   0.76694   0.00000  Uiso   1.00
C157   C     0.43396   0.64785   0.78670   0.00000  Uiso   1.00
C158   C     0.45333   0.71247   0.71789   0.00000  Uiso   1.00
C159   C     0.36009   0.40613   0.78383   0.00000  Uiso   1.00
C160   C     0.37806   0.30918   0.81777   0.00000  Uiso   1.00
C161   C     0.37187   0.21889   0.76316   0.00000  Uiso   1.00
H162   H     0.30182   0.53181   0.60822   0.00000  Uiso   1.00
H163   H     0.21807   0.60341   0.67666   0.00000  Uiso   1.00
H164   H     0.36839   0.66625   0.54650   0.00000  Uiso   1.00
H165   H     0.31249   0.32763   0.57757   0.00000  Uiso   1.00
H166   H     0.13552   0.67994   0.79022   0.00000  Uiso   1.00
H167   H     0.45248   0.81241   0.51576   0.00000  Uiso   1.00
H168   H     0.33462   0.09836   0.58127   0.00000  Uiso   1.00
H169   H     0.38108   0.50954   0.89862   0.00000  Uiso   1.00
H170   H     0.30169   0.57991   0.98300   0.00000  Uiso   1.00
H171   H     0.45200   0.64276   0.85284   0.00000  Uiso   1.00
H172   H     0.39611   0.30414   0.88390   0.00000  Uiso   1.00
H173   H     0.20338   0.66088   0.03886   0.00000  Uiso   1.00
H174   H     0.52035   0.79335   0.76439   0.00000  Uiso   1.00
H175   H     0.40248   0.07930   0.82991   0.00000  Uiso   1.00
O176   O     0.11580   0.71714   0.96480   0.00000  Uiso   1.00
O177   O     0.53164   0.89092   0.60472   0.00000  Uiso   1.00
O178   O     0.37700   0.95411   0.69067   0.00000  Uiso   1.00
N179   N     0.16238   0.66578   0.83716   0.00000  Uiso   1.00
N180   N     0.45872   0.78964   0.58056   0.00000  Uiso   1.00
N181   N     0.34854   0.12207   0.64180   0.00000  Uiso   1.00
N182   N     0.19890   0.65552   0.97095   0.00000  Uiso   1.00
N183   N     0.49524   0.77938   0.71435   0.00000  Uiso   1.00
N184   N     0.38506   0.11181   0.77559   0.00000  Uiso   1.00
C185   C     0.81998   0.97330   0.32525   0.00000  Uiso   1.00
C186   C     0.78547   0.93749   0.24779   0.00000  Uiso   1.00
C187   C     0.73611   0.90166   0.25719   0.00000  Uiso   1.00
C188   C     0.71087   0.87257   0.17802   0.00000  Uiso   1.00
C189   C     0.65375   0.81593   0.07075   0.00000  Uiso   1.00
C190   C     0.86713   0.90334   0.31851   0.00000  Uiso   1.00
C191   C     0.88645   0.83880   0.38737   0.00000  Uiso   1.00
C192   C     0.92996   0.78097   0.36772   0.00000  Uiso   1.00
C193   C     0.99965   0.67136   0.37027   0.00000  Uiso   1.00
C194   C     0.83676   0.08732   0.30163   0.00000  Uiso   1.00
C195   C     0.83055   0.17747   0.35631   0.00000  Uiso   1.00
C196   C     0.84850   0.27454   0.32245   0.00000  Uiso   1.00
C197   C     0.87103   0.45060   0.29878   0.00000  Uiso   1.00
C198   C     0.86292   0.98536   0.16792   0.00000  Uiso   1.00
C199   C     0.80879   0.94404   0.16234   0.00000  Uiso   1.00
C200   C     0.78362   0.91501   0.08312   0.00000  Uiso   1.00
C201   C     0.73424   0.87914   0.09241   0.00000  Uiso   1.00
C202   C     0.89046   0.90989   0.23306   0.00000  Uiso   1.00
C203   C     0.93396   0.85215   0.21330   0.00000  Uiso   1.00
C204   C     0.95333   0.78753   0.28211   0.00000  Uiso   1.00
C205   C     0.86009   0.09387   0.21617   0.00000  Uiso   1.00
C206   C     0.87806   0.19082   0.18223   0.00000  Uiso   1.00
C207   C     0.87187   0.28111   0.23684   0.00000  Uiso   1.00
H208   H     0.80182   0.96819   0.39178   0.00000  Uiso   1.00
H209   H     0.71807   0.89659   0.32334   0.00000  Uiso   1.00
H210   H     0.86839   0.83375   0.45350   0.00000  Uiso   1.00
H211   H     0.81249   0.17237   0.42243   0.00000  Uiso   1.00
H212   H     0.63552   0.82006   0.20978   0.00000  Uiso   1.00
H213   H     0.95248   0.68759   0.48424   0.00000  Uiso   1.00
H214   H     0.83462   0.40164   0.41873   0.00000  Uiso   1.00
H215   H     0.88108   0.99046   0.10138   0.00000  Uiso   1.00
H216   H     0.80169   0.92009   0.01700   0.00000  Uiso   1.00
H217   H     0.95200   0.85724   0.14716   0.00000  Uiso   1.00
H218   H     0.89611   0.19586   0.11610   0.00000  Uiso   1.00
H219   H     0.70338   0.83912   0.96114   0.00000  Uiso   1.00
H220   H     0.02035   0.70665   0.23561   0.00000  Uiso   1.00
H221   H     0.90248   0.42070   0.17009   0.00000  Uiso   1.00
O222   O     0.61580   0.78286   0.03520   0.00000  Uiso   1.00
O223   O     0.03164   0.60908   0.39528   0.00000  Uiso   1.00
O224   O     0.87700   0.54589   0.30933   0.00000  Uiso   1.00
N225   N     0.66238   0.83422   0.16284   0.00000  Uiso   1.00
N226   N     0.95872   0.71036   0.41944   0.00000  Uiso   1.00
N227   N     0.84854   0.37793   0.35820   0.00000  Uiso   1.00
N228   N     0.69890   0.84448   0.02905   0.00000  Uiso   1.00
N229   N     0.99524   0.72062   0.28565   0.00000  Uiso   1.00
N230   N     0.88506   0.38819   0.22441   0.00000  Uiso   1.00
C231   C     0.31998   0.47330   0.32525   0.00000  Uiso   1.00
C232   C     0.28547   0.43749   0.24779   0.00000  Uiso   1.00
C233   C     0.23611   0.40166   0.25719   0.00000  Uiso   1.00
C234   C     0.21087   0.37257   0.17802   0.00000  Uiso   1.00
C235   C     0.15375   0.31593   0.07075   0.00000  Uiso   1.00
C236   C     0.36713   0.40334   0.31851   0.00000  Uiso   1.00
C237   C     0.38645   0.33880   0.38737   0.00000  Uiso   1.00
C238   C     0.42996   0.28097   0.36772   0.00000  Uiso   1.00
C239   C     0.49965   0.17136   0.37027   0.00000  Uiso   1.00
C240   C     0.33676   0.58732   0.30163   0.00000  Uiso   1.00
C241   C     0.33055   0.67747   0.35631   0.00000  Uiso   1.00
C242   C     0.34850   0.77454   0.32245   0.00000  Uiso   1.00
C243   C     0.37103   0.95060   0.29878   0.00000  Uiso   1.00
C244   C     0.36292   0.48536   0.16792   0.00000  Uiso   1.00
C245   C     0.30879   0.44404   0.16234   0.00000  Uiso   1.00
C246   C     0.28362   0.41501   0.08312   0.00000  Uiso   1.00
C247   C     0.23424   0.37914   0.09241   0.00000  Uiso   1.00
C248   C     0.39046   0.40989   0.23306   0.00000  Uiso   1.00
C249   C     0.43396   0.35215   0.21330   0.00000  Uiso   1.00
C250   C     0.45333   0.28753   0.28211   0.00000  Uiso   1.00
C251   C     0.36009   0.59387   0.21617   0.00000  Uiso   1.00
C252   C     0.37806   0.69082   0.18223   0.00000  Uiso   1.00
C253   C     0.37187   0.78111   0.23684   0.00000  Uiso   1.00
H254   H     0.30182   0.46819   0.39178   0.00000  Uiso   1.00
H255   H     0.21807   0.39659   0.32334   0.00000  Uiso   1.00
H256   H     0.36839   0.33375   0.45350   0.00000  Uiso   1.00
H257   H     0.31249   0.67237   0.42243   0.00000  Uiso   1.00
H258   H     0.13552   0.32006   0.20978   0.00000  Uiso   1.00
H259   H     0.45248   0.18759   0.48424   0.00000  Uiso   1.00
H260   H     0.33462   0.90164   0.41873   0.00000  Uiso   1.00
H261   H     0.38108   0.49046   0.10138   0.00000  Uiso   1.00
H262   H     0.30169   0.42009   0.01700   0.00000  Uiso   1.00
H263   H     0.45200   0.35724   0.14716   0.00000  Uiso   1.00
H264   H     0.39611   0.69586   0.11610   0.00000  Uiso   1.00
H265   H     0.20338   0.33912   0.96114   0.00000  Uiso   1.00
H266   H     0.52035   0.20665   0.23561   0.00000  Uiso   1.00
H267   H     0.40248   0.92070   0.17009   0.00000  Uiso   1.00
O268   O     0.11580   0.28286   0.03520   0.00000  Uiso   1.00
O269   O     0.53164   0.10908   0.39528   0.00000  Uiso   1.00
O270   O     0.37700   0.04589   0.30933   0.00000  Uiso   1.00
N271   N     0.16238   0.33422   0.16284   0.00000  Uiso   1.00
N272   N     0.45872   0.21036   0.41944   0.00000  Uiso   1.00
N273   N     0.34854   0.87793   0.35820   0.00000  Uiso   1.00
N274   N     0.19890   0.34448   0.02905   0.00000  Uiso   1.00
N275   N     0.49524   0.22062   0.28565   0.00000  Uiso   1.00
N276   N     0.38506   0.88819   0.22441   0.00000  Uiso   1.00
C277   C     0.18002   0.02670   0.32525   0.00000  Uiso   1.00
C278   C     0.21453   0.06251   0.24779   0.00000  Uiso   1.00
C279   C     0.26389   0.09834   0.25719   0.00000  Uiso   1.00
C280   C     0.28913   0.12743   0.17802   0.00000  Uiso   1.00
C281   C     0.34625   0.18407   0.07075   0.00000  Uiso   1.00
C282   C     0.13287   0.09666   0.31851   0.00000  Uiso   1.00
C283   C     0.11355   0.16120   0.38737   0.00000  Uiso   1.00
C284   C     0.07004   0.21903   0.36772   0.00000  Uiso   1.00
C285   C     0.00035   0.32864   0.37027   0.00000  Uiso   1.00
C286   C     0.16324   0.91268   0.30163   0.00000  Uiso   1.00
C287   C     0.16945   0.82253   0.35631   0.00000  Uiso   1.00
C288   C     0.15150   0.72546   0.32245   0.00000  Uiso   1.00
C289   C     0.12897   0.54940   0.29878   0.00000  Uiso   1.00
C290   C     0.13708   0.01464   0.16792   0.00000  Uiso   1.00
C291   C     0.19121   0.05596   0.16234   0.00000  Uiso   1.00
C292   C     0.21638   0.08499   0.08312   0.00000  Uiso   1.00
C293   C     0.26576   0.12086   0.09241   0.00000  Uiso   1.00
C294   C     0.10954   0.09011   0.23306   0.00000  Uiso   1.00
C295   C     0.06604   0.14785   0.21330   0.00000  Uiso   1.00
C296   C     0.04667   0.21247   0.28211   0.00000  Uiso   1.00
C297   C     0.13991   0.90613   0.21617   0.00000  Uiso   1.00
C298   C     0.12194   0.80918   0.18223   0.00000  Uiso   1.00
C299   C     0.12813   0.71889   0.23684   0.00000  Uiso   1.00
H300   H     0.19818   0.03181   0.39178   0.00000  Uiso   1.00
H301   H     0.28193   0.10341   0.32334   0.00000  Uiso   1.00
H302   H     0.13161   0.16625   0.45350   0.00000  Uiso   1.00
H303   H     0.18751   0.82763   0.42243   0.00000  Uiso   1.00
H304   H     0.36448   0.17994   0.20978   0.00000  Uiso   1.00
H305   H     0.04752   0.31241   0.48424   0.00000  Uiso   1.00
H306   H     0.16538   0.59836   0.41873   0.00000  Uiso   1.00
H307   H     0.11892   0.00954   0.10138   0.00000  Uiso   1.00
H308   H     0.19831   0.07991   0.01700   0.00000  Uiso   1.00
H309   H     0.04800   0.14276   0.14716   0.00000  Uiso   1.00
H310   H     0.10389   0.80414   0.11610   0.00000  Uiso   1.00
H311   H     0.29662   0.16088   0.96114   0.00000  Uiso   1.00
H312   H     0.97965   0.29335   0.23561   0.00000  Uiso   1.00
H313   H     0.09752   0.57930   0.17009   0.00000  Uiso   1.00
O314   O     0.38420   0.21714   0.03520   0.00000  Uiso   1.00
O315   O     0.96836   0.39092   0.39528   0.00000  Uiso   1.00
O316   O     0.12300   0.45411   0.30933   0.00000  Uiso   1.00
N317   N     0.33762   0.16578   0.16284   0.00000  Uiso   1.00
N318   N     0.04128   0.28964   0.41944   0.00000  Uiso   1.00
N319   N     0.15146   0.62207   0.35820   0.00000  Uiso   1.00
N320   N     0.30110   0.15552   0.02905   0.00000  Uiso   1.00
N321   N     0.00476   0.27938   0.28565   0.00000  Uiso   1.00
N322   N     0.11494   0.61181   0.22441   0.00000  Uiso   1.00
C323   C     0.68002   0.52670   0.32525   0.00000  Uiso   1.00
C324   C     0.71453   0.56251   0.24779   0.00000  Uiso   1.00
C325   C     0.76389   0.59834   0.25719   0.00000  Uiso   1.00
C326   C     0.78913   0.62743   0.17802   0.00000  Uiso   1.00
C327   C     0.84625   0.68407   0.07075   0.00000  Uiso   1.00
C328   C     0.63287   0.59666   0.31851   0.00000  Uiso   1.00
C329   C     0.61355   0.66120   0.38737   0.00000  Uiso   1.00
C330   C     0.57004   0.71903   0.36772   0.00000  Uiso   1.00
C331   C     0.50035   0.82864   0.37027   0.00000  Uiso   1.00
C332   C     0.66324   0.41268   0.30163   0.00000  Uiso   1.00
C333   C     0.66945   0.32253   0.35631   0.00000  Uiso   1.00
C334   C     0.65150   0.22546   0.32245   0.00000  Uiso   1.00
C335   C     0.62897   0.04940   0.29878   0.00000  Uiso   1.00
C336   C     0.63708   0.51464   0.16792   0.00000  Uiso   1.00
C337   C     0.69121   0.55596   0.16234   0.00000  Uiso   1.00
C338   C     0.71638   0.58499   0.08312   0.00000  Uiso   1.00
C339   C     0.76576   0.62086   0.09241   0.00000  Uiso   1.00
C340   C     0.60954   0.59011   0.23306   0.00000  Uiso   1.00
C341   C     0.56604   0.64785   0.21330   0.00000  Uiso   1.00
C342   C     0.54667   0.71247   0.28211   0.00000  Uiso   1.00
C343   C     0.63991   0.40613   0.21617   0.00000  Uiso   1.00
C344   C     0.62194   0.30918   0.18223   0.00000  Uiso   1.00
C345   C     0.62813   0.21889   0.23684   0.00000  Uiso   1.00
H346   H     0.69818   0.53181   0.39178   0.00000  Uiso   1.00
H347   H     0.78193   0.60341   0.32334   0.00000  Uiso   1.00
H348   H     0.63161   0.66625   0.45350   0.00000  Uiso   1.00
H349   H     0.68751   0.32763   0.42243   0.00000  Uiso   1.00
H350   H     0.86448   0.67994   0.20978   0.00000  Uiso   1.00
H351   H     0.54752   0.81241   0.48424   0.00000  Uiso   1.00
H352   H     0.66538   0.09836   0.41873   0.00000  Uiso   1.00
H353   H     0.61892   0.50954   0.10138   0.00000  Uiso   1.00
H354   H     0.69831   0.57991   0.01700   0.00000  Uiso   1.00
H355   H     0.54800   0.64276   0.14716   0.00000  Uiso   1.00
H356   H     0.60389   0.30414   0.11610   0.00000  Uiso   1.00
H357   H     0.79662   0.66088   0.96114   0.00000  Uiso   1.00
H358   H     0.47965   0.79335   0.23561   0.00000  Uiso   1.00
H359   H     0.59752   0.07930   0.17009   0.00000  Uiso   1.00
O360   O     0.88420   0.71714   0.03520   0.00000  Uiso   1.00
O361   O     0.46836   0.89092   0.39528   0.00000  Uiso   1.00
O362   O     0.62300   0.95411   0.30933   0.00000  Uiso   1.00
N363   N     0.83762   0.66578   0.16284   0.00000  Uiso   1.00
N364   N     0.54128   0.78964   0.41944   0.00000  Uiso   1.00
N365   N     0.65146   0.12207   0.35820   0.00000  Uiso   1.00
N366   N     0.80110   0.65552   0.02905   0.00000  Uiso   1.00
N367   N     0.50476   0.77938   0.28565   0.00000  Uiso   1.00
N368   N     0.61494   0.11181   0.22441   0.00000  Uiso   1.00
