data_job_05222
_audit_creation_date              2018-12-19
_audit_creation_method            'Materials Studio'
_symmetry_space_group_name_H-M    'P1'
_symmetry_Int_Tables_number       1
_symmetry_cell_setting            triclinic
loop_
_symmetry_equiv_pos_as_xyz
  x,y,z
_cell_length_a                    15.6990
_cell_length_b                    11.8161
_cell_length_c                    27.1910
_cell_angle_alpha                 90.0000
_cell_angle_beta                  149.9064
_cell_angle_gamma                 90.0000
loop_
_atom_site_label
_atom_site_type_symbol
_atom_site_fract_x
_atom_site_fract_y
_atom_site_fract_z
_atom_site_U_iso_or_equiv
_atom_site_adp_type
_atom_site_occupancy
C1     C     0.73713   0.34245   0.01981   0.00000  Uiso   1.00
C2     C     0.65976   0.29668   0.02858   0.00000  Uiso   1.00
C3     C     0.69591   0.33473   0.09377   0.00000  Uiso   1.00
C4     C     0.61183   0.28184   0.09032   0.00000  Uiso   1.00
C5     C     0.50941   0.22409   0.11405   0.00000  Uiso   1.00
C6     C     0.81730   0.24110   0.03403   0.00000  Uiso   1.00
C7     C     0.98589   0.23244   0.10380   0.00000  Uiso   1.00
C8     C     0.03441   0.13277   0.10492   0.00000  Uiso   1.00
C9     C     0.17653   0.98878   0.13706   0.00000  Uiso   1.00
C10    C     0.58797   0.37880   0.91320   0.00000  Uiso   1.00
C11    C     0.56376   0.48591   0.88137   0.00000  Uiso   1.00
C12    C     0.41921   0.50216   0.78076   0.00000  Uiso   1.00
C13    C     0.20527   0.57196   0.62529   0.00000  Uiso   1.00
C14    C     0.52352   0.18085   0.89776   0.00000  Uiso   1.00
C15    C     0.54374   0.20890   0.96228   0.00000  Uiso   1.00
C16    C     0.45958   0.15594   0.95873   0.00000  Uiso   1.00
C17    C     0.49559   0.19391   0.02391   0.00000  Uiso   1.00
C18    C     0.70128   0.15333   0.96774   0.00000  Uiso   1.00
C19    C     0.74956   0.05365   0.96875   0.00000  Uiso   1.00
C20    C     0.91818   0.04484   0.03851   0.00000  Uiso   1.00
C21    C     0.47194   0.29103   0.84690   0.00000  Uiso   1.00
C22    C     0.32742   0.30712   0.74632   0.00000  Uiso   1.00
C23    C     0.30298   0.41423   0.71434   0.00000  Uiso   1.00
H24    H     0.82747   0.41078   0.07143   0.00000  Uiso   1.00
H25    H     0.78572   0.40266   0.14508   0.00000  Uiso   1.00
H26    H     0.07564   0.30039   0.15508   0.00000  Uiso   1.00
H27    H     0.65357   0.55381   0.93269   0.00000  Uiso   1.00
H28    H     0.68831   0.35492   0.19751   0.00000  Uiso   1.00
H29    H     0.29962   0.13929   0.21860   0.00000  Uiso   1.00
H30    H     0.40960   0.67369   0.74963   0.00000  Uiso   1.00
H31    H     0.43319   0.11251   0.84614   0.00000  Uiso   1.00
H32    H     0.36980   0.08802   0.90742   0.00000  Uiso   1.00
H33    H     0.65973   0.98575   0.91743   0.00000  Uiso   1.00
H34    H     0.23766   0.23918   0.69504   0.00000  Uiso   1.00
H35    H     0.35074   0.09954   0.00462   0.00000  Uiso   1.00
H36    H     0.96206   0.88392   0.02571   0.00000  Uiso   1.00
H37    H     0.07203   0.41831   0.55675   0.00000  Uiso   1.00
O38    O     0.48498   0.21648   0.14546   0.00000  Uiso   1.00
O39    O     0.28699   0.93360   0.17312   0.00000  Uiso   1.00
O40    O     0.11930   0.63471   0.55786   0.00000  Uiso   1.00
N41    N     0.61754   0.29819   0.14369   0.00000  Uiso   1.00
N42    N     0.18909   0.09659   0.16342   0.00000  Uiso   1.00
N43    N     0.35701   0.59619   0.72498   0.00000  Uiso   1.00
N44    N     0.43589   0.16078   0.03990   0.00000  Uiso   1.00
N45    N     0.00744   0.95917   0.05963   0.00000  Uiso   1.00
N46    N     0.17537   0.45878   0.62119   0.00000  Uiso   1.00
C47    C     0.26287   0.34245   0.48019   0.00000  Uiso   1.00
C48    C     0.34024   0.29668   0.47142   0.00000  Uiso   1.00
C49    C     0.30409   0.33473   0.40623   0.00000  Uiso   1.00
C50    C     0.38817   0.28184   0.40968   0.00000  Uiso   1.00
C51    C     0.49059   0.22409   0.38595   0.00000  Uiso   1.00
C52    C     0.18270   0.24110   0.46597   0.00000  Uiso   1.00
C53    C     0.01411   0.23244   0.39620   0.00000  Uiso   1.00
C54    C     0.96559   0.13277   0.39508   0.00000  Uiso   1.00
C55    C     0.82347   0.98878   0.36294   0.00000  Uiso   1.00
C56    C     0.41203   0.37880   0.58680   0.00000  Uiso   1.00
C57    C     0.43624   0.48591   0.61863   0.00000  Uiso   1.00
C58    C     0.58079   0.50216   0.71924   0.00000  Uiso   1.00
C59    C     0.79473   0.57196   0.87471   0.00000  Uiso   1.00
C60    C     0.47648   0.18085   0.60224   0.00000  Uiso   1.00
C61    C     0.45626   0.20890   0.53772   0.00000  Uiso   1.00
C62    C     0.54042   0.15594   0.54127   0.00000  Uiso   1.00
C63    C     0.50441   0.19391   0.47609   0.00000  Uiso   1.00
C64    C     0.29872   0.15333   0.53226   0.00000  Uiso   1.00
C65    C     0.25044   0.05365   0.53125   0.00000  Uiso   1.00
C66    C     0.08182   0.04484   0.46149   0.00000  Uiso   1.00
C67    C     0.52806   0.29103   0.65310   0.00000  Uiso   1.00
C68    C     0.67258   0.30712   0.75368   0.00000  Uiso   1.00
C69    C     0.69702   0.41423   0.78566   0.00000  Uiso   1.00
H70    H     0.17253   0.41078   0.42857   0.00000  Uiso   1.00
H71    H     0.21428   0.40266   0.35492   0.00000  Uiso   1.00
H72    H     0.92436   0.30039   0.34492   0.00000  Uiso   1.00
H73    H     0.34643   0.55381   0.56731   0.00000  Uiso   1.00
H74    H     0.31169   0.35492   0.30249   0.00000  Uiso   1.00
H75    H     0.70038   0.13929   0.28140   0.00000  Uiso   1.00
H76    H     0.59040   0.67369   0.75037   0.00000  Uiso   1.00
H77    H     0.56681   0.11251   0.65386   0.00000  Uiso   1.00
H78    H     0.63020   0.08802   0.59258   0.00000  Uiso   1.00
H79    H     0.34027   0.98575   0.58257   0.00000  Uiso   1.00
H80    H     0.76234   0.23918   0.80496   0.00000  Uiso   1.00
H81    H     0.64926   0.09954   0.49538   0.00000  Uiso   1.00
H82    H     0.03794   0.88392   0.47429   0.00000  Uiso   1.00
H83    H     0.92797   0.41831   0.94325   0.00000  Uiso   1.00
O84    O     0.51502   0.21648   0.35454   0.00000  Uiso   1.00
O85    O     0.71301   0.93360   0.32688   0.00000  Uiso   1.00
O86    O     0.88070   0.63471   0.94214   0.00000  Uiso   1.00
N87    N     0.38246   0.29819   0.35631   0.00000  Uiso   1.00
N88    N     0.81091   0.09659   0.33658   0.00000  Uiso   1.00
N89    N     0.64299   0.59619   0.77502   0.00000  Uiso   1.00
N90    N     0.56411   0.16078   0.46010   0.00000  Uiso   1.00
N91    N     0.99256   0.95917   0.44037   0.00000  Uiso   1.00
N92    N     0.82463   0.45878   0.87881   0.00000  Uiso   1.00
C93    C     0.26287   0.65755   0.98019   0.00000  Uiso   1.00
C94    C     0.34024   0.70332   0.97142   0.00000  Uiso   1.00
C95    C     0.30409   0.66527   0.90623   0.00000  Uiso   1.00
C96    C     0.38817   0.71816   0.90968   0.00000  Uiso   1.00
C97    C     0.49059   0.77591   0.88595   0.00000  Uiso   1.00
C98    C     0.18270   0.75890   0.96597   0.00000  Uiso   1.00
C99    C     0.01411   0.76756   0.89620   0.00000  Uiso   1.00
C100   C     0.96559   0.86723   0.89508   0.00000  Uiso   1.00
C101   C     0.82347   0.01122   0.86294   0.00000  Uiso   1.00
C102   C     0.41203   0.62120   0.08680   0.00000  Uiso   1.00
C103   C     0.43624   0.51409   0.11863   0.00000  Uiso   1.00
C104   C     0.58079   0.49784   0.21924   0.00000  Uiso   1.00
C105   C     0.79473   0.42804   0.37471   0.00000  Uiso   1.00
C106   C     0.47648   0.81915   0.10224   0.00000  Uiso   1.00
C107   C     0.45626   0.79110   0.03772   0.00000  Uiso   1.00
C108   C     0.54042   0.84406   0.04127   0.00000  Uiso   1.00
C109   C     0.50441   0.80609   0.97609   0.00000  Uiso   1.00
C110   C     0.29872   0.84667   0.03226   0.00000  Uiso   1.00
C111   C     0.25044   0.94635   0.03125   0.00000  Uiso   1.00
C112   C     0.08182   0.95516   0.96149   0.00000  Uiso   1.00
C113   C     0.52806   0.70897   0.15310   0.00000  Uiso   1.00
C114   C     0.67258   0.69288   0.25368   0.00000  Uiso   1.00
C115   C     0.69702   0.58577   0.28566   0.00000  Uiso   1.00
H116   H     0.17253   0.58922   0.92857   0.00000  Uiso   1.00
H117   H     0.21428   0.59734   0.85492   0.00000  Uiso   1.00
H118   H     0.92436   0.69961   0.84492   0.00000  Uiso   1.00
H119   H     0.34643   0.44619   0.06731   0.00000  Uiso   1.00
H120   H     0.31169   0.64508   0.80249   0.00000  Uiso   1.00
H121   H     0.70038   0.86071   0.78140   0.00000  Uiso   1.00
H122   H     0.59040   0.32631   0.25037   0.00000  Uiso   1.00
H123   H     0.56681   0.88749   0.15386   0.00000  Uiso   1.00
H124   H     0.63020   0.91198   0.09258   0.00000  Uiso   1.00
H125   H     0.34027   0.01425   0.08257   0.00000  Uiso   1.00
H126   H     0.76234   0.76082   0.30496   0.00000  Uiso   1.00
H127   H     0.64926   0.90046   0.99538   0.00000  Uiso   1.00
H128   H     0.03794   0.11608   0.97429   0.00000  Uiso   1.00
H129   H     0.92797   0.58169   0.44325   0.00000  Uiso   1.00
O130   O     0.51502   0.78352   0.85454   0.00000  Uiso   1.00
O131   O     0.71301   0.06640   0.82688   0.00000  Uiso   1.00
O132   O     0.88070   0.36529   0.44214   0.00000  Uiso   1.00
N133   N     0.38246   0.70181   0.85631   0.00000  Uiso   1.00
N134   N     0.81091   0.90341   0.83658   0.00000  Uiso   1.00
N135   N     0.64299   0.40381   0.27502   0.00000  Uiso   1.00
N136   N     0.56411   0.83922   0.96010   0.00000  Uiso   1.00
N137   N     0.99256   0.04083   0.94037   0.00000  Uiso   1.00
N138   N     0.82463   0.54122   0.37881   0.00000  Uiso   1.00
C139   C     0.73713   0.65755   0.51981   0.00000  Uiso   1.00
C140   C     0.65976   0.70332   0.52858   0.00000  Uiso   1.00
C141   C     0.69591   0.66527   0.59377   0.00000  Uiso   1.00
C142   C     0.61183   0.71816   0.59032   0.00000  Uiso   1.00
C143   C     0.50941   0.77591   0.61405   0.00000  Uiso   1.00
C144   C     0.81730   0.75890   0.53403   0.00000  Uiso   1.00
C145   C     0.98589   0.76756   0.60380   0.00000  Uiso   1.00
C146   C     0.03441   0.86723   0.60492   0.00000  Uiso   1.00
C147   C     0.17653   0.01122   0.63706   0.00000  Uiso   1.00
C148   C     0.58797   0.62120   0.41320   0.00000  Uiso   1.00
C149   C     0.56376   0.51409   0.38137   0.00000  Uiso   1.00
C150   C     0.41921   0.49784   0.28076   0.00000  Uiso   1.00
C151   C     0.20527   0.42804   0.12529   0.00000  Uiso   1.00
C152   C     0.52352   0.81915   0.39776   0.00000  Uiso   1.00
C153   C     0.54374   0.79110   0.46228   0.00000  Uiso   1.00
C154   C     0.45958   0.84406   0.45873   0.00000  Uiso   1.00
C155   C     0.49559   0.80609   0.52391   0.00000  Uiso   1.00
C156   C     0.70128   0.84667   0.46774   0.00000  Uiso   1.00
C157   C     0.74956   0.94635   0.46875   0.00000  Uiso   1.00
C158   C     0.91818   0.95516   0.53851   0.00000  Uiso   1.00
C159   C     0.47194   0.70897   0.34690   0.00000  Uiso   1.00
C160   C     0.32742   0.69288   0.24632   0.00000  Uiso   1.00
C161   C     0.30298   0.58577   0.21434   0.00000  Uiso   1.00
H162   H     0.82747   0.58922   0.57143   0.00000  Uiso   1.00
H163   H     0.78572   0.59734   0.64508   0.00000  Uiso   1.00
H164   H     0.07564   0.69961   0.65508   0.00000  Uiso   1.00
H165   H     0.65357   0.44619   0.43269   0.00000  Uiso   1.00
H166   H     0.68831   0.64508   0.69751   0.00000  Uiso   1.00
H167   H     0.29962   0.86071   0.71860   0.00000  Uiso   1.00
H168   H     0.40960   0.32631   0.24963   0.00000  Uiso   1.00
H169   H     0.43319   0.88749   0.34614   0.00000  Uiso   1.00
H170   H     0.36980   0.91198   0.40742   0.00000  Uiso   1.00
H171   H     0.65973   0.01425   0.41743   0.00000  Uiso   1.00
H172   H     0.23766   0.76082   0.19504   0.00000  Uiso   1.00
H173   H     0.35074   0.90046   0.50462   0.00000  Uiso   1.00
H174   H     0.96206   0.11608   0.52571   0.00000  Uiso   1.00
H175   H     0.07203   0.58169   0.05675   0.00000  Uiso   1.00
O176   O     0.48498   0.78352   0.64546   0.00000  Uiso   1.00
O177   O     0.28699   0.06640   0.67312   0.00000  Uiso   1.00
O178   O     0.11930   0.36529   0.05786   0.00000  Uiso   1.00
N179   N     0.61754   0.70181   0.64369   0.00000  Uiso   1.00
N180   N     0.18909   0.90341   0.66342   0.00000  Uiso   1.00
N181   N     0.35701   0.40381   0.22498   0.00000  Uiso   1.00
N182   N     0.43589   0.83922   0.53990   0.00000  Uiso   1.00
N183   N     0.00744   0.04083   0.55963   0.00000  Uiso   1.00
N184   N     0.17537   0.54122   0.12119   0.00000  Uiso   1.00
