data_job_03661
_audit_creation_date              2018-12-19
_audit_creation_method            'Materials Studio'
_symmetry_space_group_name_H-M    'P1'
_symmetry_Int_Tables_number       1
_symmetry_cell_setting            triclinic
loop_
_symmetry_equiv_pos_as_xyz
  x,y,z
_cell_length_a                    22.4063
_cell_length_b                    25.1878
_cell_length_c                    11.7145
_cell_angle_alpha                 90.0000
_cell_angle_beta                  100.5000
_cell_angle_gamma                 90.0000
loop_
_atom_site_label
_atom_site_type_symbol
_atom_site_fract_x
_atom_site_fract_y
_atom_site_fract_z
_atom_site_U_iso_or_equiv
_atom_site_adp_type
_atom_site_occupancy
C1     C     0.59597   0.86893   0.29645   0.00000  Uiso   1.00
C2     C     0.64618   0.89592   0.38222   0.00000  Uiso   1.00
C3     C     0.63773   0.92920   0.47235   0.00000  Uiso   1.00
C4     C     0.68949   0.94995   0.54117   0.00000  Uiso   1.00
C5     C     0.75862   0.99372   0.67747   0.00000  Uiso   1.00
C6     C     0.60523   0.88593   0.17596   0.00000  Uiso   1.00
C7     C     0.56235   0.91081   0.09266   0.00000  Uiso   1.00
C8     C     0.57964   0.92314   0.98784   0.00000  Uiso   1.00
C9     C     0.58518   0.95137   0.80388   0.00000  Uiso   1.00
C10    C     0.60979   0.80964   0.30508   0.00000  Uiso   1.00
C11    C     0.57075   0.77036   0.33032   0.00000  Uiso   1.00
C12    C     0.59188   0.71845   0.33419   0.00000  Uiso   1.00
C13    C     0.60451   0.62822   0.35071   0.00000  Uiso   1.00
C14    C     0.70293   0.84660   0.25841   0.00000  Uiso   1.00
C15    C     0.70427   0.88379   0.36156   0.00000  Uiso   1.00
C16    C     0.75606   0.90449   0.43027   0.00000  Uiso   1.00
C17    C     0.74769   0.93779   0.52048   0.00000  Uiso   1.00
C18    C     0.66332   0.87381   0.15530   0.00000  Uiso   1.00
C19    C     0.68068   0.88610   0.05058   0.00000  Uiso   1.00
C20    C     0.63784   0.91099   0.96714   0.00000  Uiso   1.00
C21    C     0.66789   0.79751   0.28442   0.00000  Uiso   1.00
C22    C     0.68909   0.74565   0.28824   0.00000  Uiso   1.00
C23    C     0.65008   0.70630   0.31349   0.00000  Uiso   1.00
H24    H     0.55074   0.87838   0.31252   0.00000  Uiso   1.00
H25    H     0.59276   0.93858   0.48830   0.00000  Uiso   1.00
H26    H     0.51739   0.92019   0.10867   0.00000  Uiso   1.00
H27    H     0.52579   0.77976   0.34630   0.00000  Uiso   1.00
H28    H     0.66497  -0.00001   0.67405   0.00000  Uiso   1.00
H29    H     0.50604   0.96119   0.87356   0.00000  Uiso   1.00
H30    H     0.52376   0.66507   0.37464   0.00000  Uiso   1.00
H31    H     0.74816   0.83715   0.24232   0.00000  Uiso   1.00
H32    H     0.80102   0.89510   0.41426   0.00000  Uiso   1.00
H33    H     0.72564   0.87670   0.03462   0.00000  Uiso   1.00
H34    H     0.73405   0.73628   0.27225   0.00000  Uiso   1.00
H35    H     0.83400   0.96470   0.61395   0.00000  Uiso   1.00
H36    H     0.67507   0.92590   0.81345   0.00000  Uiso   1.00
H37    H     0.69279   0.62978   0.31454   0.00000  Uiso   1.00
O38    O     0.78069   0.02122   0.75834   0.00000  Uiso   1.00
O39    O     0.57218   0.97031   0.70812   0.00000  Uiso   1.00
O40    O     0.59543   0.58181   0.36555   0.00000  Uiso   1.00
N41    N     0.69750   0.98373   0.63632   0.00000  Uiso   1.00
N42    N     0.54891   0.94746   0.88792   0.00000  Uiso   1.00
N43    N     0.56547   0.67061   0.35636   0.00000  Uiso   1.00
N44    N     0.78845   0.96474   0.60398   0.00000  Uiso   1.00
N45    N     0.63987   0.92847   0.85558   0.00000  Uiso   1.00
N46    N     0.65642   0.65162   0.32402   0.00000  Uiso   1.00
C47    C     0.09597   0.36893   0.29645   0.00000  Uiso   1.00
C48    C     0.14618   0.39592   0.38222   0.00000  Uiso   1.00
C49    C     0.13773   0.42920   0.47235   0.00000  Uiso   1.00
C50    C     0.18949   0.44995   0.54117   0.00000  Uiso   1.00
C51    C     0.25862   0.49372   0.67747   0.00000  Uiso   1.00
C52    C     0.10523   0.38593   0.17596   0.00000  Uiso   1.00
C53    C     0.06235   0.41081   0.09266   0.00000  Uiso   1.00
C54    C     0.07964   0.42314   0.98784   0.00000  Uiso   1.00
C55    C     0.08518   0.45137   0.80388   0.00000  Uiso   1.00
C56    C     0.10979   0.30964   0.30508   0.00000  Uiso   1.00
C57    C     0.07075   0.27036   0.33032   0.00000  Uiso   1.00
C58    C     0.09188   0.21845   0.33419   0.00000  Uiso   1.00
C59    C     0.10451   0.12822   0.35071   0.00000  Uiso   1.00
C60    C     0.20293   0.34660   0.25841   0.00000  Uiso   1.00
C61    C     0.20427   0.38379   0.36156   0.00000  Uiso   1.00
C62    C     0.25606   0.40449   0.43027   0.00000  Uiso   1.00
C63    C     0.24769   0.43779   0.52048   0.00000  Uiso   1.00
C64    C     0.16332   0.37381   0.15530   0.00000  Uiso   1.00
C65    C     0.18068   0.38610   0.05058   0.00000  Uiso   1.00
C66    C     0.13784   0.41099   0.96714   0.00000  Uiso   1.00
C67    C     0.16789   0.29751   0.28442   0.00000  Uiso   1.00
C68    C     0.18909   0.24565   0.28824   0.00000  Uiso   1.00
C69    C     0.15008   0.20630   0.31349   0.00000  Uiso   1.00
H70    H     0.05074   0.37838   0.31252   0.00000  Uiso   1.00
H71    H     0.09276   0.43858   0.48830   0.00000  Uiso   1.00
H72    H     0.01739   0.42019   0.10867   0.00000  Uiso   1.00
H73    H     0.02579   0.27976   0.34630   0.00000  Uiso   1.00
H74    H     0.16497   0.49999   0.67405   0.00000  Uiso   1.00
H75    H     0.00604   0.46119   0.87356   0.00000  Uiso   1.00
H76    H     0.02376   0.16507   0.37464   0.00000  Uiso   1.00
H77    H     0.24816   0.33715   0.24232   0.00000  Uiso   1.00
H78    H     0.30102   0.39510   0.41426   0.00000  Uiso   1.00
H79    H     0.22564   0.37670   0.03462   0.00000  Uiso   1.00
H80    H     0.23405   0.23628   0.27225   0.00000  Uiso   1.00
H81    H     0.33400   0.46470   0.61395   0.00000  Uiso   1.00
H82    H     0.17507   0.42590   0.81345   0.00000  Uiso   1.00
H83    H     0.19279   0.12978   0.31454   0.00000  Uiso   1.00
O84    O     0.28069   0.52122   0.75834   0.00000  Uiso   1.00
O85    O     0.07218   0.47031   0.70812   0.00000  Uiso   1.00
O86    O     0.09543   0.08181   0.36555   0.00000  Uiso   1.00
N87    N     0.19750   0.48373   0.63632   0.00000  Uiso   1.00
N88    N     0.04891   0.44746   0.88792   0.00000  Uiso   1.00
N89    N     0.06547   0.17061   0.35636   0.00000  Uiso   1.00
N90    N     0.28845   0.46474   0.60398   0.00000  Uiso   1.00
N91    N     0.13987   0.42847   0.85558   0.00000  Uiso   1.00
N92    N     0.15642   0.15162   0.32402   0.00000  Uiso   1.00
C93    C     0.40403   0.86893   0.20355   0.00000  Uiso   1.00
C94    C     0.35382   0.89592   0.11778   0.00000  Uiso   1.00
C95    C     0.36227   0.92920   0.02765   0.00000  Uiso   1.00
C96    C     0.31051   0.94995   0.95883   0.00000  Uiso   1.00
C97    C     0.24138   0.99372   0.82253   0.00000  Uiso   1.00
C98    C     0.39477   0.88593   0.32404   0.00000  Uiso   1.00
C99    C     0.43765   0.91081   0.40734   0.00000  Uiso   1.00
C100   C     0.42036   0.92314   0.51216   0.00000  Uiso   1.00
C101   C     0.41482   0.95137   0.69612   0.00000  Uiso   1.00
C102   C     0.39021   0.80964   0.19492   0.00000  Uiso   1.00
C103   C     0.42925   0.77036   0.16968   0.00000  Uiso   1.00
C104   C     0.40812   0.71845   0.16581   0.00000  Uiso   1.00
C105   C     0.39549   0.62822   0.14929   0.00000  Uiso   1.00
C106   C     0.29707   0.84660   0.24159   0.00000  Uiso   1.00
C107   C     0.29573   0.88379   0.13844   0.00000  Uiso   1.00
C108   C     0.24394   0.90449   0.06973   0.00000  Uiso   1.00
C109   C     0.25231   0.93779   0.97952   0.00000  Uiso   1.00
C110   C     0.33668   0.87381   0.34470   0.00000  Uiso   1.00
C111   C     0.31932   0.88610   0.44942   0.00000  Uiso   1.00
C112   C     0.36216   0.91099   0.53286   0.00000  Uiso   1.00
C113   C     0.33211   0.79751   0.21558   0.00000  Uiso   1.00
C114   C     0.31091   0.74565   0.21176   0.00000  Uiso   1.00
C115   C     0.34992   0.70630   0.18651   0.00000  Uiso   1.00
H116   H     0.44926   0.87838   0.18748   0.00000  Uiso   1.00
H117   H     0.40724   0.93858   0.01170   0.00000  Uiso   1.00
H118   H     0.48261   0.92019   0.39133   0.00000  Uiso   1.00
H119   H     0.47421   0.77976   0.15370   0.00000  Uiso   1.00
H120   H     0.33503  -0.00001   0.82595   0.00000  Uiso   1.00
H121   H     0.49396   0.96119   0.62644   0.00000  Uiso   1.00
H122   H     0.47624   0.66507   0.12536   0.00000  Uiso   1.00
H123   H     0.25184   0.83715   0.25768   0.00000  Uiso   1.00
H124   H     0.19898   0.89510   0.08574   0.00000  Uiso   1.00
H125   H     0.27436   0.87670   0.46538   0.00000  Uiso   1.00
H126   H     0.26595   0.73628   0.22775   0.00000  Uiso   1.00
H127   H     0.16600   0.96470   0.88605   0.00000  Uiso   1.00
H128   H     0.32493   0.92590   0.68655   0.00000  Uiso   1.00
H129   H     0.30721   0.62978   0.18546   0.00000  Uiso   1.00
O130   O     0.21931   0.02122   0.74166   0.00000  Uiso   1.00
O131   O     0.42782   0.97031   0.79188   0.00000  Uiso   1.00
O132   O     0.40457   0.58181   0.13445   0.00000  Uiso   1.00
N133   N     0.30250   0.98373   0.86368   0.00000  Uiso   1.00
N134   N     0.45109   0.94746   0.61208   0.00000  Uiso   1.00
N135   N     0.43453   0.67061   0.14364   0.00000  Uiso   1.00
N136   N     0.21155   0.96474   0.89602   0.00000  Uiso   1.00
N137   N     0.36013   0.92847   0.64442   0.00000  Uiso   1.00
N138   N     0.34358   0.65162   0.17598   0.00000  Uiso   1.00
C139   C     0.90403   0.36893   0.20355   0.00000  Uiso   1.00
C140   C     0.85382   0.39592   0.11778   0.00000  Uiso   1.00
C141   C     0.86227   0.42920   0.02765   0.00000  Uiso   1.00
C142   C     0.81051   0.44995   0.95883   0.00000  Uiso   1.00
C143   C     0.74138   0.49372   0.82253   0.00000  Uiso   1.00
C144   C     0.89477   0.38593   0.32404   0.00000  Uiso   1.00
C145   C     0.93765   0.41081   0.40734   0.00000  Uiso   1.00
C146   C     0.92036   0.42314   0.51216   0.00000  Uiso   1.00
C147   C     0.91482   0.45137   0.69612   0.00000  Uiso   1.00
C148   C     0.89021   0.30964   0.19492   0.00000  Uiso   1.00
C149   C     0.92925   0.27036   0.16968   0.00000  Uiso   1.00
C150   C     0.90812   0.21845   0.16581   0.00000  Uiso   1.00
C151   C     0.89549   0.12822   0.14929   0.00000  Uiso   1.00
C152   C     0.79707   0.34660   0.24159   0.00000  Uiso   1.00
C153   C     0.79573   0.38379   0.13844   0.00000  Uiso   1.00
C154   C     0.74394   0.40449   0.06973   0.00000  Uiso   1.00
C155   C     0.75231   0.43779   0.97952   0.00000  Uiso   1.00
C156   C     0.83668   0.37381   0.34470   0.00000  Uiso   1.00
C157   C     0.81932   0.38610   0.44942   0.00000  Uiso   1.00
C158   C     0.86216   0.41099   0.53286   0.00000  Uiso   1.00
C159   C     0.83211   0.29751   0.21558   0.00000  Uiso   1.00
C160   C     0.81091   0.24565   0.21176   0.00000  Uiso   1.00
C161   C     0.84992   0.20630   0.18651   0.00000  Uiso   1.00
H162   H     0.94926   0.37838   0.18748   0.00000  Uiso   1.00
H163   H     0.90724   0.43858   0.01170   0.00000  Uiso   1.00
H164   H     0.98261   0.42019   0.39133   0.00000  Uiso   1.00
H165   H     0.97421   0.27976   0.15370   0.00000  Uiso   1.00
H166   H     0.83503   0.49999   0.82595   0.00000  Uiso   1.00
H167   H     0.99396   0.46119   0.62644   0.00000  Uiso   1.00
H168   H     0.97624   0.16507   0.12536   0.00000  Uiso   1.00
H169   H     0.75184   0.33715   0.25768   0.00000  Uiso   1.00
H170   H     0.69898   0.39510   0.08574   0.00000  Uiso   1.00
H171   H     0.77436   0.37670   0.46538   0.00000  Uiso   1.00
H172   H     0.76595   0.23628   0.22775   0.00000  Uiso   1.00
H173   H     0.66600   0.46470   0.88605   0.00000  Uiso   1.00
H174   H     0.82493   0.42590   0.68655   0.00000  Uiso   1.00
H175   H     0.80721   0.12978   0.18546   0.00000  Uiso   1.00
O176   O     0.71931   0.52122   0.74166   0.00000  Uiso   1.00
O177   O     0.92782   0.47031   0.79188   0.00000  Uiso   1.00
O178   O     0.90457   0.08181   0.13445   0.00000  Uiso   1.00
N179   N     0.80250   0.48373   0.86368   0.00000  Uiso   1.00
N180   N     0.95109   0.44746   0.61208   0.00000  Uiso   1.00
N181   N     0.93453   0.17061   0.14364   0.00000  Uiso   1.00
N182   N     0.71155   0.46474   0.89602   0.00000  Uiso   1.00
N183   N     0.86013   0.42847   0.64442   0.00000  Uiso   1.00
N184   N     0.84358   0.15162   0.17598   0.00000  Uiso   1.00
C185   C     0.40403   0.13107   0.70355   0.00000  Uiso   1.00
C186   C     0.35382   0.10408   0.61778   0.00000  Uiso   1.00
C187   C     0.36227   0.07080   0.52765   0.00000  Uiso   1.00
C188   C     0.31051   0.05005   0.45883   0.00000  Uiso   1.00
C189   C     0.24138   0.00628   0.32253   0.00000  Uiso   1.00
C190   C     0.39477   0.11407   0.82404   0.00000  Uiso   1.00
C191   C     0.43765   0.08919   0.90734   0.00000  Uiso   1.00
C192   C     0.42036   0.07686   0.01216   0.00000  Uiso   1.00
C193   C     0.41482   0.04863   0.19612   0.00000  Uiso   1.00
C194   C     0.39021   0.19036   0.69492   0.00000  Uiso   1.00
C195   C     0.42925   0.22964   0.66968   0.00000  Uiso   1.00
C196   C     0.40812   0.28155   0.66581   0.00000  Uiso   1.00
C197   C     0.39549   0.37178   0.64929   0.00000  Uiso   1.00
C198   C     0.29707   0.15340   0.74159   0.00000  Uiso   1.00
C199   C     0.29573   0.11621   0.63844   0.00000  Uiso   1.00
C200   C     0.24394   0.09551   0.56973   0.00000  Uiso   1.00
C201   C     0.25231   0.06221   0.47952   0.00000  Uiso   1.00
C202   C     0.33668   0.12619   0.84470   0.00000  Uiso   1.00
C203   C     0.31932   0.11390   0.94942   0.00000  Uiso   1.00
C204   C     0.36216   0.08901   0.03286   0.00000  Uiso   1.00
C205   C     0.33211   0.20249   0.71558   0.00000  Uiso   1.00
C206   C     0.31091   0.25435   0.71176   0.00000  Uiso   1.00
C207   C     0.34992   0.29370   0.68651   0.00000  Uiso   1.00
H208   H     0.44926   0.12162   0.68748   0.00000  Uiso   1.00
H209   H     0.40724   0.06142   0.51170   0.00000  Uiso   1.00
H210   H     0.48261   0.07981   0.89133   0.00000  Uiso   1.00
H211   H     0.47421   0.22024   0.65370   0.00000  Uiso   1.00
H212   H     0.33503   0.00001   0.32595   0.00000  Uiso   1.00
H213   H     0.49396   0.03881   0.12644   0.00000  Uiso   1.00
H214   H     0.47624   0.33493   0.62536   0.00000  Uiso   1.00
H215   H     0.25184   0.16285   0.75768   0.00000  Uiso   1.00
H216   H     0.19898   0.10490   0.58574   0.00000  Uiso   1.00
H217   H     0.27436   0.12330   0.96538   0.00000  Uiso   1.00
H218   H     0.26595   0.26372   0.72775   0.00000  Uiso   1.00
H219   H     0.16600   0.03530   0.38605   0.00000  Uiso   1.00
H220   H     0.32493   0.07410   0.18655   0.00000  Uiso   1.00
H221   H     0.30721   0.37022   0.68546   0.00000  Uiso   1.00
O222   O     0.21931   0.97878   0.24166   0.00000  Uiso   1.00
O223   O     0.42782   0.02969   0.29188   0.00000  Uiso   1.00
O224   O     0.40457   0.41819   0.63445   0.00000  Uiso   1.00
N225   N     0.30250   0.01627   0.36368   0.00000  Uiso   1.00
N226   N     0.45109   0.05254   0.11208   0.00000  Uiso   1.00
N227   N     0.43453   0.32939   0.64364   0.00000  Uiso   1.00
N228   N     0.21155   0.03526   0.39602   0.00000  Uiso   1.00
N229   N     0.36013   0.07153   0.14442   0.00000  Uiso   1.00
N230   N     0.34358   0.34838   0.67598   0.00000  Uiso   1.00
C231   C     0.90403   0.63107   0.70355   0.00000  Uiso   1.00
C232   C     0.85382   0.60408   0.61778   0.00000  Uiso   1.00
C233   C     0.86227   0.57080   0.52765   0.00000  Uiso   1.00
C234   C     0.81051   0.55005   0.45883   0.00000  Uiso   1.00
C235   C     0.74138   0.50628   0.32253   0.00000  Uiso   1.00
C236   C     0.89477   0.61407   0.82404   0.00000  Uiso   1.00
C237   C     0.93765   0.58919   0.90734   0.00000  Uiso   1.00
C238   C     0.92036   0.57686   0.01216   0.00000  Uiso   1.00
C239   C     0.91482   0.54863   0.19612   0.00000  Uiso   1.00
C240   C     0.89021   0.69036   0.69492   0.00000  Uiso   1.00
C241   C     0.92925   0.72964   0.66968   0.00000  Uiso   1.00
C242   C     0.90812   0.78155   0.66581   0.00000  Uiso   1.00
C243   C     0.89549   0.87178   0.64929   0.00000  Uiso   1.00
C244   C     0.79707   0.65340   0.74159   0.00000  Uiso   1.00
C245   C     0.79573   0.61621   0.63844   0.00000  Uiso   1.00
C246   C     0.74394   0.59551   0.56973   0.00000  Uiso   1.00
C247   C     0.75231   0.56221   0.47952   0.00000  Uiso   1.00
C248   C     0.83668   0.62619   0.84470   0.00000  Uiso   1.00
C249   C     0.81932   0.61390   0.94942   0.00000  Uiso   1.00
C250   C     0.86216   0.58901   0.03286   0.00000  Uiso   1.00
C251   C     0.83211   0.70249   0.71558   0.00000  Uiso   1.00
C252   C     0.81091   0.75435   0.71176   0.00000  Uiso   1.00
C253   C     0.84992   0.79370   0.68651   0.00000  Uiso   1.00
H254   H     0.94926   0.62162   0.68748   0.00000  Uiso   1.00
H255   H     0.90724   0.56142   0.51170   0.00000  Uiso   1.00
H256   H     0.98261   0.57981   0.89133   0.00000  Uiso   1.00
H257   H     0.97421   0.72024   0.65370   0.00000  Uiso   1.00
H258   H     0.83503   0.50001   0.32595   0.00000  Uiso   1.00
H259   H     0.99396   0.53881   0.12644   0.00000  Uiso   1.00
H260   H     0.97624   0.83493   0.62536   0.00000  Uiso   1.00
H261   H     0.75184   0.66285   0.75768   0.00000  Uiso   1.00
H262   H     0.69898   0.60490   0.58574   0.00000  Uiso   1.00
H263   H     0.77436   0.62330   0.96538   0.00000  Uiso   1.00
H264   H     0.76595   0.76372   0.72775   0.00000  Uiso   1.00
H265   H     0.66600   0.53530   0.38605   0.00000  Uiso   1.00
H266   H     0.82493   0.57410   0.18655   0.00000  Uiso   1.00
H267   H     0.80721   0.87022   0.68546   0.00000  Uiso   1.00
O268   O     0.71931   0.47878   0.24166   0.00000  Uiso   1.00
O269   O     0.92782   0.52969   0.29188   0.00000  Uiso   1.00
O270   O     0.90457   0.91819   0.63445   0.00000  Uiso   1.00
N271   N     0.80250   0.51627   0.36368   0.00000  Uiso   1.00
N272   N     0.95109   0.55254   0.11208   0.00000  Uiso   1.00
N273   N     0.93453   0.82939   0.64364   0.00000  Uiso   1.00
N274   N     0.71155   0.53526   0.39602   0.00000  Uiso   1.00
N275   N     0.86013   0.57153   0.14442   0.00000  Uiso   1.00
N276   N     0.84358   0.84838   0.67598   0.00000  Uiso   1.00
C277   C     0.59597   0.13107   0.79645   0.00000  Uiso   1.00
C278   C     0.64618   0.10408   0.88222   0.00000  Uiso   1.00
C279   C     0.63773   0.07080   0.97235   0.00000  Uiso   1.00
C280   C     0.68949   0.05005   0.04117   0.00000  Uiso   1.00
C281   C     0.75862   0.00628   0.17747   0.00000  Uiso   1.00
C282   C     0.60523   0.11407   0.67596   0.00000  Uiso   1.00
C283   C     0.56235   0.08919   0.59266   0.00000  Uiso   1.00
C284   C     0.57964   0.07686   0.48784   0.00000  Uiso   1.00
C285   C     0.58518   0.04863   0.30388   0.00000  Uiso   1.00
C286   C     0.60979   0.19036   0.80508   0.00000  Uiso   1.00
C287   C     0.57075   0.22964   0.83032   0.00000  Uiso   1.00
C288   C     0.59188   0.28155   0.83419   0.00000  Uiso   1.00
C289   C     0.60451   0.37178   0.85071   0.00000  Uiso   1.00
C290   C     0.70293   0.15340   0.75841   0.00000  Uiso   1.00
C291   C     0.70427   0.11621   0.86156   0.00000  Uiso   1.00
C292   C     0.75606   0.09551   0.93027   0.00000  Uiso   1.00
C293   C     0.74769   0.06221   0.02048   0.00000  Uiso   1.00
C294   C     0.66332   0.12619   0.65530   0.00000  Uiso   1.00
C295   C     0.68068   0.11390   0.55058   0.00000  Uiso   1.00
C296   C     0.63784   0.08901   0.46714   0.00000  Uiso   1.00
C297   C     0.66789   0.20249   0.78442   0.00000  Uiso   1.00
C298   C     0.68909   0.25435   0.78824   0.00000  Uiso   1.00
C299   C     0.65008   0.29370   0.81349   0.00000  Uiso   1.00
H300   H     0.55074   0.12162   0.81252   0.00000  Uiso   1.00
H301   H     0.59276   0.06142   0.98830   0.00000  Uiso   1.00
H302   H     0.51739   0.07981   0.60867   0.00000  Uiso   1.00
H303   H     0.52579   0.22024   0.84630   0.00000  Uiso   1.00
H304   H     0.66497   0.00001   0.17405   0.00000  Uiso   1.00
H305   H     0.50604   0.03881   0.37356   0.00000  Uiso   1.00
H306   H     0.52376   0.33493   0.87464   0.00000  Uiso   1.00
H307   H     0.74816   0.16285   0.74232   0.00000  Uiso   1.00
H308   H     0.80102   0.10490   0.91426   0.00000  Uiso   1.00
H309   H     0.72564   0.12330   0.53462   0.00000  Uiso   1.00
H310   H     0.73405   0.26372   0.77225   0.00000  Uiso   1.00
H311   H     0.83400   0.03530   0.11395   0.00000  Uiso   1.00
H312   H     0.67507   0.07410   0.31345   0.00000  Uiso   1.00
H313   H     0.69279   0.37022   0.81454   0.00000  Uiso   1.00
O314   O     0.78069   0.97878   0.25834   0.00000  Uiso   1.00
O315   O     0.57218   0.02969   0.20812   0.00000  Uiso   1.00
O316   O     0.59543   0.41819   0.86555   0.00000  Uiso   1.00
N317   N     0.69750   0.01627   0.13632   0.00000  Uiso   1.00
N318   N     0.54891   0.05254   0.38792   0.00000  Uiso   1.00
N319   N     0.56547   0.32939   0.85636   0.00000  Uiso   1.00
N320   N     0.78845   0.03526   0.10398   0.00000  Uiso   1.00
N321   N     0.63987   0.07153   0.35558   0.00000  Uiso   1.00
N322   N     0.65642   0.34838   0.82402   0.00000  Uiso   1.00
C323   C     0.09597   0.63107   0.79645   0.00000  Uiso   1.00
C324   C     0.14618   0.60408   0.88222   0.00000  Uiso   1.00
C325   C     0.13773   0.57080   0.97235   0.00000  Uiso   1.00
C326   C     0.18949   0.55005   0.04117   0.00000  Uiso   1.00
C327   C     0.25862   0.50628   0.17747   0.00000  Uiso   1.00
C328   C     0.10523   0.61407   0.67596   0.00000  Uiso   1.00
C329   C     0.06235   0.58919   0.59266   0.00000  Uiso   1.00
C330   C     0.07964   0.57686   0.48784   0.00000  Uiso   1.00
C331   C     0.08518   0.54863   0.30388   0.00000  Uiso   1.00
C332   C     0.10979   0.69036   0.80508   0.00000  Uiso   1.00
C333   C     0.07075   0.72964   0.83032   0.00000  Uiso   1.00
C334   C     0.09188   0.78155   0.83419   0.00000  Uiso   1.00
C335   C     0.10451   0.87178   0.85071   0.00000  Uiso   1.00
C336   C     0.20293   0.65340   0.75841   0.00000  Uiso   1.00
C337   C     0.20427   0.61621   0.86156   0.00000  Uiso   1.00
C338   C     0.25606   0.59551   0.93027   0.00000  Uiso   1.00
C339   C     0.24769   0.56221   0.02048   0.00000  Uiso   1.00
C340   C     0.16332   0.62619   0.65530   0.00000  Uiso   1.00
C341   C     0.18068   0.61390   0.55058   0.00000  Uiso   1.00
C342   C     0.13784   0.58901   0.46714   0.00000  Uiso   1.00
C343   C     0.16789   0.70249   0.78442   0.00000  Uiso   1.00
C344   C     0.18909   0.75435   0.78824   0.00000  Uiso   1.00
C345   C     0.15008   0.79370   0.81349   0.00000  Uiso   1.00
H346   H     0.05074   0.62162   0.81252   0.00000  Uiso   1.00
H347   H     0.09276   0.56142   0.98830   0.00000  Uiso   1.00
H348   H     0.01739   0.57981   0.60867   0.00000  Uiso   1.00
H349   H     0.02579   0.72024   0.84630   0.00000  Uiso   1.00
H350   H     0.16497   0.50001   0.17405   0.00000  Uiso   1.00
H351   H     0.00604   0.53881   0.37356   0.00000  Uiso   1.00
H352   H     0.02376   0.83493   0.87464   0.00000  Uiso   1.00
H353   H     0.24816   0.66285   0.74232   0.00000  Uiso   1.00
H354   H     0.30102   0.60490   0.91426   0.00000  Uiso   1.00
H355   H     0.22564   0.62330   0.53462   0.00000  Uiso   1.00
H356   H     0.23405   0.76372   0.77225   0.00000  Uiso   1.00
H357   H     0.33400   0.53530   0.11395   0.00000  Uiso   1.00
H358   H     0.17507   0.57410   0.31345   0.00000  Uiso   1.00
H359   H     0.19279   0.87022   0.81454   0.00000  Uiso   1.00
O360   O     0.28069   0.47878   0.25834   0.00000  Uiso   1.00
O361   O     0.07218   0.52969   0.20812   0.00000  Uiso   1.00
O362   O     0.09543   0.91819   0.86555   0.00000  Uiso   1.00
N363   N     0.19750   0.51627   0.13632   0.00000  Uiso   1.00
N364   N     0.04891   0.55254   0.38792   0.00000  Uiso   1.00
N365   N     0.06547   0.82939   0.85636   0.00000  Uiso   1.00
N366   N     0.28845   0.53526   0.10398   0.00000  Uiso   1.00
N367   N     0.13987   0.57153   0.35558   0.00000  Uiso   1.00
N368   N     0.15642   0.84838   0.82402   0.00000  Uiso   1.00
