data_job_02395
_audit_creation_date              2018-12-19
_audit_creation_method            'Materials Studio'
_symmetry_space_group_name_H-M    'P1'
_symmetry_Int_Tables_number       1
_symmetry_cell_setting            triclinic
loop_
_symmetry_equiv_pos_as_xyz
  x,y,z
_cell_length_a                    21.9942
_cell_length_b                    12.2385
_cell_length_c                    23.8863
_cell_angle_alpha                 90.0000
_cell_angle_beta                  90.0000
_cell_angle_gamma                 90.0000
loop_
_atom_site_label
_atom_site_type_symbol
_atom_site_fract_x
_atom_site_fract_y
_atom_site_fract_z
_atom_site_U_iso_or_equiv
_atom_site_adp_type
_atom_site_occupancy
C1     C     0.41080   0.20706   0.01511   0.00000  Uiso   1.00
C2     C     0.38345   0.32154   0.01609   0.00000  Uiso   1.00
C3     C     0.32189   0.34605   0.01830   0.00000  Uiso   1.00
C4     C     0.30610   0.45588   0.01886   0.00000  Uiso   1.00
C5     C     0.25690   0.62113   0.02060   0.00000  Uiso   1.00
C6     C     0.45020   0.20171   0.96265   0.00000  Uiso   1.00
C7     C     0.44477   0.12546   0.91993   0.00000  Uiso   1.00
C8     C     0.48517   0.13442   0.87551   0.00000  Uiso   1.00
C9     C     0.53963   0.11358   0.79430   0.00000  Uiso   1.00
C10    C     0.45454   0.20172   0.06456   0.00000  Uiso   1.00
C11    C     0.45277   0.12546   0.10753   0.00000  Uiso   1.00
C12    C     0.49684   0.13440   0.14890   0.00000  Uiso   1.00
C13    C     0.55804   0.11357   0.22593   0.00000  Uiso   1.00
C14    C     0.49222   0.35852   0.01216   0.00000  Uiso   1.00
C15    C     0.42768   0.40381   0.01449   0.00000  Uiso   1.00
C16    C     0.41197   0.51363   0.01504   0.00000  Uiso   1.00
C17    C     0.35040   0.53830   0.01726   0.00000  Uiso   1.00
C18    C     0.49442   0.28398   0.96105   0.00000  Uiso   1.00
C19    C     0.53484   0.29304   0.91668   0.00000  Uiso   1.00
C20    C     0.52947   0.21683   0.87390   0.00000  Uiso   1.00
C21    C     0.49877   0.28399   0.06297   0.00000  Uiso   1.00
C22    C     0.54285   0.29305   0.10427   0.00000  Uiso   1.00
C23    C     0.54114   0.21682   0.14730   0.00000  Uiso   1.00
H24    H     0.37638   0.14301   0.01635   0.00000  Uiso   1.00
H25    H     0.28769   0.28236   0.01953   0.00000  Uiso   1.00
H26    H     0.41055   0.06180   0.92119   0.00000  Uiso   1.00
H27    H     0.41855   0.06181   0.10876   0.00000  Uiso   1.00
H28    H     0.20886   0.47314   0.02234   0.00000  Uiso   1.00
H29    H     0.46793   0.00806   0.81497   0.00000  Uiso   1.00
H30    H     0.48480   0.00806   0.21050   0.00000  Uiso   1.00
H31    H     0.52665   0.42258   0.01092   0.00000  Uiso   1.00
H32    H     0.44620   0.57728   0.01380   0.00000  Uiso   1.00
H33    H     0.56906   0.35671   0.91545   0.00000  Uiso   1.00
H34    H     0.57706   0.35672   0.10302   0.00000  Uiso   1.00
H35    H     0.33751   0.71251   0.01768   0.00000  Uiso   1.00
H36    H     0.59659   0.24742   0.81032   0.00000  Uiso   1.00
H37    H     0.61346   0.24743   0.20585   0.00000  Uiso   1.00
O38    O     0.21755   0.68955   0.02199   0.00000  Uiso   1.00
O39    O     0.55745   0.07936   0.74994   0.00000  Uiso   1.00
O40    O     0.57958   0.07937   0.26886   0.00000  Uiso   1.00
N41    N     0.25018   0.50825   0.02086   0.00000  Uiso   1.00
N42    N     0.49239   0.07343   0.82698   0.00000  Uiso   1.00
N43    N     0.50817   0.07342   0.19676   0.00000  Uiso   1.00
N44    N     0.31941   0.63705   0.01835   0.00000  Uiso   1.00
N45    N     0.56162   0.20223   0.82448   0.00000  Uiso   1.00
N46    N     0.57740   0.20222   0.19425   0.00000  Uiso   1.00
C47    C     0.59509   0.69278   0.98392   0.00000  Uiso   1.00
C48    C     0.62787   0.80218   0.97916   0.00000  Uiso   1.00
C49    C     0.68956   0.81626   0.96931   0.00000  Uiso   1.00
C50    C     0.71077   0.92296   0.96641   0.00000  Uiso   1.00
C51    C     0.76763   0.07924   0.95802   0.00000  Uiso   1.00
C52    C     0.56355   0.69353   0.04078   0.00000  Uiso   1.00
C53    C     0.57115   0.61626   0.08272   0.00000  Uiso   1.00
C54    C     0.53820   0.63150   0.13169   0.00000  Uiso   1.00
C55    C     0.49517   0.61906   0.21894   0.00000  Uiso   1.00
C56    C     0.54448   0.69532   0.94031   0.00000  Uiso   1.00
C57    C     0.53603   0.61954   0.89780   0.00000  Uiso   1.00
C58    C     0.48701   0.63627   0.86218   0.00000  Uiso   1.00
C59    C     0.41436   0.62660   0.79345   0.00000  Uiso   1.00
C60    C     0.52305   0.85722   0.99629   0.00000  Uiso   1.00
C61    C     0.58874   0.89149   0.98588   0.00000  Uiso   1.00
C62    C     0.60986   0.99820   0.98299   0.00000  Uiso   1.00
C63    C     0.67157   0.01244   0.97313   0.00000  Uiso   1.00
C64    C     0.52442   0.78285   0.04749   0.00000  Uiso   1.00
C65    C     0.49145   0.79820   0.09640   0.00000  Uiso   1.00
C66    C     0.49901   0.72098   0.13842   0.00000  Uiso   1.00
C67    C     0.50535   0.78464   0.94703   0.00000  Uiso   1.00
C68    C     0.45633   0.80148   0.91148   0.00000  Uiso   1.00
C69    C     0.44781   0.72575   0.86891   0.00000  Uiso   1.00
H70    H     0.62555   0.62324   0.97870   0.00000  Uiso   1.00
H71    H     0.71982   0.74712   0.96412   0.00000  Uiso   1.00
H72    H     0.60143   0.54715   0.07751   0.00000  Uiso   1.00
H73    H     0.56631   0.55043   0.89261   0.00000  Uiso   1.00
H74    H     0.80710   0.92386   0.95094   0.00000  Uiso   1.00
H75    H     0.55744   0.50218   0.19003   0.00000  Uiso   1.00
H76    H     0.48339   0.50909   0.80013   0.00000  Uiso   1.00
H77    H     0.49259   0.92676   0.00152   0.00000  Uiso   1.00
H78    H     0.57957   0.06730   0.98819   0.00000  Uiso   1.00
H79    H     0.46118   0.86733   0.10159   0.00000  Uiso   1.00
H80    H     0.42606   0.87061   0.91669   0.00000  Uiso   1.00
H81    H     0.69327   0.18373   0.97048   0.00000  Uiso   1.00
H82    H     0.44360   0.76205   0.20957   0.00000  Uiso   1.00
H83    H     0.36956   0.76897   0.81967   0.00000  Uiso   1.00
O84    O     0.80980   0.14077   0.95155   0.00000  Uiso   1.00
O85    O     0.48225   0.58753   0.26522   0.00000  Uiso   1.00
O86    O     0.38511   0.59661   0.75368   0.00000  Uiso   1.00
N87    N     0.76837   0.96573   0.95735   0.00000  Uiso   1.00
N88    N     0.53496   0.57150   0.18089   0.00000  Uiso   1.00
N89    N     0.46572   0.57794   0.81638   0.00000  Uiso   1.00
N90    N     0.70712   0.10556   0.96787   0.00000  Uiso   1.00
N91    N     0.47371   0.71133   0.19141   0.00000  Uiso   1.00
N92    N     0.40447   0.71778   0.82689   0.00000  Uiso   1.00
C93    C     0.58920   0.79294   0.51511   0.00000  Uiso   1.00
C94    C     0.61655   0.67846   0.51609   0.00000  Uiso   1.00
C95    C     0.67811   0.65395   0.51830   0.00000  Uiso   1.00
C96    C     0.69390   0.54412   0.51886   0.00000  Uiso   1.00
C97    C     0.74310   0.37887   0.52060   0.00000  Uiso   1.00
C98    C     0.54980   0.79829   0.46265   0.00000  Uiso   1.00
C99    C     0.55523   0.87454   0.41993   0.00000  Uiso   1.00
C100   C     0.51483   0.86558   0.37551   0.00000  Uiso   1.00
C101   C     0.46037   0.88642   0.29430   0.00000  Uiso   1.00
C102   C     0.54546   0.79828   0.56456   0.00000  Uiso   1.00
C103   C     0.54723   0.87454   0.60753   0.00000  Uiso   1.00
C104   C     0.50316   0.86560   0.64890   0.00000  Uiso   1.00
C105   C     0.44196   0.88643   0.72593   0.00000  Uiso   1.00
C106   C     0.50778   0.64148   0.51216   0.00000  Uiso   1.00
C107   C     0.57232   0.59619   0.51449   0.00000  Uiso   1.00
C108   C     0.58803   0.48637   0.51504   0.00000  Uiso   1.00
C109   C     0.64960   0.46170   0.51726   0.00000  Uiso   1.00
C110   C     0.50558   0.71602   0.46105   0.00000  Uiso   1.00
C111   C     0.46516   0.70696   0.41668   0.00000  Uiso   1.00
C112   C     0.47053   0.78317   0.37390   0.00000  Uiso   1.00
C113   C     0.50123   0.71601   0.56297   0.00000  Uiso   1.00
C114   C     0.45715   0.70695   0.60427   0.00000  Uiso   1.00
C115   C     0.45886   0.78318   0.64730   0.00000  Uiso   1.00
H116   H     0.62362   0.85699   0.51635   0.00000  Uiso   1.00
H117   H     0.71231   0.71764   0.51953   0.00000  Uiso   1.00
H118   H     0.58945   0.93820   0.42119   0.00000  Uiso   1.00
H119   H     0.58145   0.93819   0.60876   0.00000  Uiso   1.00
H120   H     0.79114   0.52686   0.52234   0.00000  Uiso   1.00
H121   H     0.53207   0.99194   0.31497   0.00000  Uiso   1.00
H122   H     0.51520   0.99194   0.71050   0.00000  Uiso   1.00
H123   H     0.47335   0.57742   0.51092   0.00000  Uiso   1.00
H124   H     0.55380   0.42272   0.51380   0.00000  Uiso   1.00
H125   H     0.43094   0.64329   0.41545   0.00000  Uiso   1.00
H126   H     0.42294   0.64328   0.60302   0.00000  Uiso   1.00
H127   H     0.66249   0.28749   0.51768   0.00000  Uiso   1.00
H128   H     0.40341   0.75258   0.31032   0.00000  Uiso   1.00
H129   H     0.38654   0.75257   0.70585   0.00000  Uiso   1.00
O130   O     0.78245   0.31045   0.52199   0.00000  Uiso   1.00
O131   O     0.44255   0.92064   0.24994   0.00000  Uiso   1.00
O132   O     0.42042   0.92063   0.76886   0.00000  Uiso   1.00
N133   N     0.74982   0.49175   0.52086   0.00000  Uiso   1.00
N134   N     0.50761   0.92657   0.32698   0.00000  Uiso   1.00
N135   N     0.49183   0.92658   0.69676   0.00000  Uiso   1.00
N136   N     0.68059   0.36295   0.51835   0.00000  Uiso   1.00
N137   N     0.43838   0.79777   0.32448   0.00000  Uiso   1.00
N138   N     0.42260   0.79778   0.69425   0.00000  Uiso   1.00
C139   C     0.40491   0.30722   0.48392   0.00000  Uiso   1.00
C140   C     0.37213   0.19782   0.47916   0.00000  Uiso   1.00
C141   C     0.31044   0.18374   0.46931   0.00000  Uiso   1.00
C142   C     0.28923   0.07704   0.46641   0.00000  Uiso   1.00
C143   C     0.23237   0.92076   0.45802   0.00000  Uiso   1.00
C144   C     0.43645   0.30647   0.54078   0.00000  Uiso   1.00
C145   C     0.42885   0.38374   0.58272   0.00000  Uiso   1.00
C146   C     0.46180   0.36850   0.63169   0.00000  Uiso   1.00
C147   C     0.50483   0.38094   0.71894   0.00000  Uiso   1.00
C148   C     0.45552   0.30468   0.44031   0.00000  Uiso   1.00
C149   C     0.46397   0.38046   0.39780   0.00000  Uiso   1.00
C150   C     0.51299   0.36373   0.36218   0.00000  Uiso   1.00
C151   C     0.58564   0.37340   0.29345   0.00000  Uiso   1.00
C152   C     0.47695   0.14278   0.49629   0.00000  Uiso   1.00
C153   C     0.41126   0.10851   0.48588   0.00000  Uiso   1.00
C154   C     0.39014   0.00180   0.48299   0.00000  Uiso   1.00
C155   C     0.32843   0.98756   0.47313   0.00000  Uiso   1.00
C156   C     0.47558   0.21715   0.54749   0.00000  Uiso   1.00
C157   C     0.50855   0.20180   0.59640   0.00000  Uiso   1.00
C158   C     0.50099   0.27902   0.63842   0.00000  Uiso   1.00
C159   C     0.49465   0.21536   0.44703   0.00000  Uiso   1.00
C160   C     0.54367   0.19852   0.41148   0.00000  Uiso   1.00
C161   C     0.55219   0.27425   0.36891   0.00000  Uiso   1.00
H162   H     0.37445   0.37676   0.47870   0.00000  Uiso   1.00
H163   H     0.28018   0.25288   0.46412   0.00000  Uiso   1.00
H164   H     0.39857   0.45285   0.57751   0.00000  Uiso   1.00
H165   H     0.43369   0.44957   0.39261   0.00000  Uiso   1.00
H166   H     0.19290   0.07614   0.45094   0.00000  Uiso   1.00
H167   H     0.44256   0.49782   0.69003   0.00000  Uiso   1.00
H168   H     0.51661   0.49091   0.30013   0.00000  Uiso   1.00
H169   H     0.50741   0.07324   0.50152   0.00000  Uiso   1.00
H170   H     0.42043   0.93270   0.48819   0.00000  Uiso   1.00
H171   H     0.53882   0.13267   0.60159   0.00000  Uiso   1.00
H172   H     0.57394   0.12939   0.41669   0.00000  Uiso   1.00
H173   H     0.30673   0.81627   0.47048   0.00000  Uiso   1.00
H174   H     0.55640   0.23795   0.70957   0.00000  Uiso   1.00
H175   H     0.63044   0.23103   0.31967   0.00000  Uiso   1.00
O176   O     0.19020   0.85923   0.45155   0.00000  Uiso   1.00
O177   O     0.51775   0.41247   0.76522   0.00000  Uiso   1.00
O178   O     0.61489   0.40339   0.25368   0.00000  Uiso   1.00
N179   N     0.23163   0.03427   0.45735   0.00000  Uiso   1.00
N180   N     0.46504   0.42850   0.68089   0.00000  Uiso   1.00
N181   N     0.53428   0.42206   0.31638   0.00000  Uiso   1.00
N182   N     0.29288   0.89444   0.46787   0.00000  Uiso   1.00
N183   N     0.52629   0.28867   0.69141   0.00000  Uiso   1.00
N184   N     0.59553   0.28222   0.32689   0.00000  Uiso   1.00
C185   C     0.91080   0.79294   0.01511   0.00000  Uiso   1.00
C186   C     0.88345   0.67846   0.01609   0.00000  Uiso   1.00
C187   C     0.82189   0.65395   0.01830   0.00000  Uiso   1.00
C188   C     0.80610   0.54412   0.01886   0.00000  Uiso   1.00
C189   C     0.75690   0.37887   0.02060   0.00000  Uiso   1.00
C190   C     0.95020   0.79829   0.96265   0.00000  Uiso   1.00
C191   C     0.94477   0.87454   0.91993   0.00000  Uiso   1.00
C192   C     0.98517   0.86558   0.87551   0.00000  Uiso   1.00
C193   C     0.03963   0.88642   0.79430   0.00000  Uiso   1.00
C194   C     0.95454   0.79828   0.06456   0.00000  Uiso   1.00
C195   C     0.95277   0.87454   0.10753   0.00000  Uiso   1.00
C196   C     0.99684   0.86560   0.14890   0.00000  Uiso   1.00
C197   C     0.05804   0.88643   0.22593   0.00000  Uiso   1.00
C198   C     0.99222   0.64148   0.01216   0.00000  Uiso   1.00
C199   C     0.92768   0.59619   0.01449   0.00000  Uiso   1.00
C200   C     0.91197   0.48637   0.01504   0.00000  Uiso   1.00
C201   C     0.85040   0.46170   0.01726   0.00000  Uiso   1.00
C202   C     0.99442   0.71602   0.96105   0.00000  Uiso   1.00
C203   C     0.03484   0.70696   0.91668   0.00000  Uiso   1.00
C204   C     0.02947   0.78317   0.87390   0.00000  Uiso   1.00
C205   C     0.99877   0.71601   0.06297   0.00000  Uiso   1.00
C206   C     0.04285   0.70695   0.10427   0.00000  Uiso   1.00
C207   C     0.04114   0.78318   0.14730   0.00000  Uiso   1.00
H208   H     0.87638   0.85699   0.01635   0.00000  Uiso   1.00
H209   H     0.78769   0.71764   0.01953   0.00000  Uiso   1.00
H210   H     0.91055   0.93820   0.92119   0.00000  Uiso   1.00
H211   H     0.91855   0.93819   0.10876   0.00000  Uiso   1.00
H212   H     0.70886   0.52686   0.02234   0.00000  Uiso   1.00
H213   H     0.96793   0.99194   0.81497   0.00000  Uiso   1.00
H214   H     0.98480   0.99194   0.21050   0.00000  Uiso   1.00
H215   H     0.02665   0.57742   0.01092   0.00000  Uiso   1.00
H216   H     0.94620   0.42272   0.01380   0.00000  Uiso   1.00
H217   H     0.06906   0.64329   0.91545   0.00000  Uiso   1.00
H218   H     0.07706   0.64328   0.10302   0.00000  Uiso   1.00
H219   H     0.83751   0.28749   0.01768   0.00000  Uiso   1.00
H220   H     0.09659   0.75258   0.81032   0.00000  Uiso   1.00
H221   H     0.11346   0.75257   0.20585   0.00000  Uiso   1.00
O222   O     0.71755   0.31045   0.02199   0.00000  Uiso   1.00
O223   O     0.05745   0.92064   0.74994   0.00000  Uiso   1.00
O224   O     0.07958   0.92063   0.26886   0.00000  Uiso   1.00
N225   N     0.75018   0.49175   0.02086   0.00000  Uiso   1.00
N226   N     0.99239   0.92657   0.82698   0.00000  Uiso   1.00
N227   N     0.00817   0.92658   0.19676   0.00000  Uiso   1.00
N228   N     0.81941   0.36295   0.01835   0.00000  Uiso   1.00
N229   N     0.06162   0.79777   0.82448   0.00000  Uiso   1.00
N230   N     0.07740   0.79778   0.19425   0.00000  Uiso   1.00
C231   C     0.09509   0.30722   0.98392   0.00000  Uiso   1.00
C232   C     0.12787   0.19782   0.97916   0.00000  Uiso   1.00
C233   C     0.18956   0.18374   0.96931   0.00000  Uiso   1.00
C234   C     0.21077   0.07704   0.96641   0.00000  Uiso   1.00
C235   C     0.26763   0.92076   0.95802   0.00000  Uiso   1.00
C236   C     0.06355   0.30647   0.04078   0.00000  Uiso   1.00
C237   C     0.07115   0.38374   0.08272   0.00000  Uiso   1.00
C238   C     0.03820   0.36850   0.13169   0.00000  Uiso   1.00
C239   C     0.99517   0.38094   0.21894   0.00000  Uiso   1.00
C240   C     0.04448   0.30468   0.94031   0.00000  Uiso   1.00
C241   C     0.03603   0.38046   0.89780   0.00000  Uiso   1.00
C242   C     0.98701   0.36373   0.86218   0.00000  Uiso   1.00
C243   C     0.91436   0.37340   0.79345   0.00000  Uiso   1.00
C244   C     0.02305   0.14278   0.99629   0.00000  Uiso   1.00
C245   C     0.08874   0.10851   0.98588   0.00000  Uiso   1.00
C246   C     0.10986   0.00180   0.98299   0.00000  Uiso   1.00
C247   C     0.17157   0.98756   0.97313   0.00000  Uiso   1.00
C248   C     0.02442   0.21715   0.04749   0.00000  Uiso   1.00
C249   C     0.99145   0.20180   0.09640   0.00000  Uiso   1.00
C250   C     0.99901   0.27902   0.13842   0.00000  Uiso   1.00
C251   C     0.00535   0.21536   0.94703   0.00000  Uiso   1.00
C252   C     0.95633   0.19852   0.91148   0.00000  Uiso   1.00
C253   C     0.94781   0.27425   0.86891   0.00000  Uiso   1.00
H254   H     0.12555   0.37676   0.97870   0.00000  Uiso   1.00
H255   H     0.21982   0.25288   0.96412   0.00000  Uiso   1.00
H256   H     0.10143   0.45285   0.07751   0.00000  Uiso   1.00
H257   H     0.06631   0.44957   0.89261   0.00000  Uiso   1.00
H258   H     0.30710   0.07614   0.95094   0.00000  Uiso   1.00
H259   H     0.05744   0.49782   0.19003   0.00000  Uiso   1.00
H260   H     0.98339   0.49091   0.80013   0.00000  Uiso   1.00
H261   H     0.99259   0.07324   0.00152   0.00000  Uiso   1.00
H262   H     0.07957   0.93270   0.98819   0.00000  Uiso   1.00
H263   H     0.96118   0.13267   0.10159   0.00000  Uiso   1.00
H264   H     0.92606   0.12939   0.91669   0.00000  Uiso   1.00
H265   H     0.19327   0.81627   0.97048   0.00000  Uiso   1.00
H266   H     0.94360   0.23795   0.20957   0.00000  Uiso   1.00
H267   H     0.86956   0.23103   0.81967   0.00000  Uiso   1.00
O268   O     0.30980   0.85923   0.95155   0.00000  Uiso   1.00
O269   O     0.98225   0.41247   0.26522   0.00000  Uiso   1.00
O270   O     0.88511   0.40339   0.75368   0.00000  Uiso   1.00
N271   N     0.26837   0.03427   0.95735   0.00000  Uiso   1.00
N272   N     0.03496   0.42850   0.18089   0.00000  Uiso   1.00
N273   N     0.96572   0.42206   0.81638   0.00000  Uiso   1.00
N274   N     0.20712   0.89444   0.96787   0.00000  Uiso   1.00
N275   N     0.97371   0.28867   0.19141   0.00000  Uiso   1.00
N276   N     0.90447   0.28222   0.82689   0.00000  Uiso   1.00
C277   C     0.08920   0.20706   0.51511   0.00000  Uiso   1.00
C278   C     0.11655   0.32154   0.51609   0.00000  Uiso   1.00
C279   C     0.17811   0.34605   0.51830   0.00000  Uiso   1.00
C280   C     0.19390   0.45588   0.51886   0.00000  Uiso   1.00
C281   C     0.24310   0.62113   0.52060   0.00000  Uiso   1.00
C282   C     0.04980   0.20171   0.46265   0.00000  Uiso   1.00
C283   C     0.05523   0.12546   0.41993   0.00000  Uiso   1.00
C284   C     0.01483   0.13442   0.37551   0.00000  Uiso   1.00
C285   C     0.96037   0.11358   0.29430   0.00000  Uiso   1.00
C286   C     0.04546   0.20172   0.56456   0.00000  Uiso   1.00
C287   C     0.04723   0.12546   0.60753   0.00000  Uiso   1.00
C288   C     0.00316   0.13440   0.64890   0.00000  Uiso   1.00
C289   C     0.94196   0.11357   0.72593   0.00000  Uiso   1.00
C290   C     0.00778   0.35852   0.51216   0.00000  Uiso   1.00
C291   C     0.07232   0.40381   0.51449   0.00000  Uiso   1.00
C292   C     0.08803   0.51363   0.51504   0.00000  Uiso   1.00
C293   C     0.14960   0.53830   0.51726   0.00000  Uiso   1.00
C294   C     0.00558   0.28398   0.46105   0.00000  Uiso   1.00
C295   C     0.96516   0.29304   0.41668   0.00000  Uiso   1.00
C296   C     0.97053   0.21683   0.37390   0.00000  Uiso   1.00
C297   C     0.00123   0.28399   0.56297   0.00000  Uiso   1.00
C298   C     0.95715   0.29305   0.60427   0.00000  Uiso   1.00
C299   C     0.95886   0.21682   0.64730   0.00000  Uiso   1.00
H300   H     0.12362   0.14301   0.51635   0.00000  Uiso   1.00
H301   H     0.21231   0.28236   0.51953   0.00000  Uiso   1.00
H302   H     0.08945   0.06180   0.42119   0.00000  Uiso   1.00
H303   H     0.08145   0.06181   0.60876   0.00000  Uiso   1.00
H304   H     0.29114   0.47314   0.52234   0.00000  Uiso   1.00
H305   H     0.03207   0.00806   0.31497   0.00000  Uiso   1.00
H306   H     0.01520   0.00806   0.71050   0.00000  Uiso   1.00
H307   H     0.97335   0.42258   0.51092   0.00000  Uiso   1.00
H308   H     0.05380   0.57728   0.51380   0.00000  Uiso   1.00
H309   H     0.93094   0.35671   0.41545   0.00000  Uiso   1.00
H310   H     0.92294   0.35672   0.60302   0.00000  Uiso   1.00
H311   H     0.16249   0.71251   0.51768   0.00000  Uiso   1.00
H312   H     0.90341   0.24742   0.31032   0.00000  Uiso   1.00
H313   H     0.88654   0.24743   0.70585   0.00000  Uiso   1.00
O314   O     0.28245   0.68955   0.52199   0.00000  Uiso   1.00
O315   O     0.94255   0.07936   0.24994   0.00000  Uiso   1.00
O316   O     0.92042   0.07937   0.76886   0.00000  Uiso   1.00
N317   N     0.24982   0.50825   0.52086   0.00000  Uiso   1.00
N318   N     0.00761   0.07343   0.32698   0.00000  Uiso   1.00
N319   N     0.99183   0.07342   0.69676   0.00000  Uiso   1.00
N320   N     0.18059   0.63705   0.51835   0.00000  Uiso   1.00
N321   N     0.93838   0.20223   0.32448   0.00000  Uiso   1.00
N322   N     0.92260   0.20222   0.69425   0.00000  Uiso   1.00
C323   C     0.90491   0.69278   0.48392   0.00000  Uiso   1.00
C324   C     0.87213   0.80218   0.47916   0.00000  Uiso   1.00
C325   C     0.81044   0.81626   0.46931   0.00000  Uiso   1.00
C326   C     0.78923   0.92296   0.46641   0.00000  Uiso   1.00
C327   C     0.73237   0.07924   0.45802   0.00000  Uiso   1.00
C328   C     0.93645   0.69353   0.54078   0.00000  Uiso   1.00
C329   C     0.92885   0.61626   0.58272   0.00000  Uiso   1.00
C330   C     0.96180   0.63150   0.63169   0.00000  Uiso   1.00
C331   C     0.00483   0.61906   0.71894   0.00000  Uiso   1.00
C332   C     0.95552   0.69532   0.44031   0.00000  Uiso   1.00
C333   C     0.96397   0.61954   0.39780   0.00000  Uiso   1.00
C334   C     0.01299   0.63627   0.36218   0.00000  Uiso   1.00
C335   C     0.08564   0.62660   0.29345   0.00000  Uiso   1.00
C336   C     0.97695   0.85722   0.49629   0.00000  Uiso   1.00
C337   C     0.91126   0.89149   0.48588   0.00000  Uiso   1.00
C338   C     0.89014   0.99820   0.48299   0.00000  Uiso   1.00
C339   C     0.82843   0.01244   0.47313   0.00000  Uiso   1.00
C340   C     0.97558   0.78285   0.54749   0.00000  Uiso   1.00
C341   C     0.00855   0.79820   0.59640   0.00000  Uiso   1.00
C342   C     0.00099   0.72098   0.63842   0.00000  Uiso   1.00
C343   C     0.99465   0.78464   0.44703   0.00000  Uiso   1.00
C344   C     0.04367   0.80148   0.41148   0.00000  Uiso   1.00
C345   C     0.05219   0.72575   0.36891   0.00000  Uiso   1.00
H346   H     0.87445   0.62324   0.47870   0.00000  Uiso   1.00
H347   H     0.78018   0.74712   0.46412   0.00000  Uiso   1.00
H348   H     0.89857   0.54715   0.57751   0.00000  Uiso   1.00
H349   H     0.93369   0.55043   0.39261   0.00000  Uiso   1.00
H350   H     0.69290   0.92386   0.45094   0.00000  Uiso   1.00
H351   H     0.94256   0.50218   0.69003   0.00000  Uiso   1.00
H352   H     0.01661   0.50909   0.30013   0.00000  Uiso   1.00
H353   H     0.00741   0.92676   0.50152   0.00000  Uiso   1.00
H354   H     0.92043   0.06730   0.48819   0.00000  Uiso   1.00
H355   H     0.03882   0.86733   0.60159   0.00000  Uiso   1.00
H356   H     0.07394   0.87061   0.41669   0.00000  Uiso   1.00
H357   H     0.80673   0.18373   0.47048   0.00000  Uiso   1.00
H358   H     0.05640   0.76205   0.70957   0.00000  Uiso   1.00
H359   H     0.13044   0.76897   0.31967   0.00000  Uiso   1.00
O360   O     0.69020   0.14077   0.45155   0.00000  Uiso   1.00
O361   O     0.01775   0.58753   0.76522   0.00000  Uiso   1.00
O362   O     0.11489   0.59661   0.25368   0.00000  Uiso   1.00
N363   N     0.73163   0.96573   0.45735   0.00000  Uiso   1.00
N364   N     0.96504   0.57150   0.68089   0.00000  Uiso   1.00
N365   N     0.03428   0.57794   0.31638   0.00000  Uiso   1.00
N366   N     0.79288   0.10556   0.46787   0.00000  Uiso   1.00
N367   N     0.02629   0.71133   0.69141   0.00000  Uiso   1.00
N368   N     0.09553   0.71778   0.32689   0.00000  Uiso   1.00
