data_job_03744
_audit_creation_date              2018-12-19
_audit_creation_method            'Materials Studio'
_symmetry_space_group_name_H-M    'P1'
_symmetry_Int_Tables_number       1
_symmetry_cell_setting            triclinic
loop_
_symmetry_equiv_pos_as_xyz
  x,y,z
_cell_length_a                    38.9831
_cell_length_b                    10.0960
_cell_length_c                    37.4853
_cell_angle_alpha                 90.0000
_cell_angle_beta                  167.9970
_cell_angle_gamma                 90.0000
loop_
_atom_site_label
_atom_site_type_symbol
_atom_site_fract_x
_atom_site_fract_y
_atom_site_fract_z
_atom_site_U_iso_or_equiv
_atom_site_adp_type
_atom_site_occupancy
C1     C     0.55045   0.82206   0.91876   0.00000  Uiso   1.00
C2     C     0.37915   0.77126   0.73475   0.00000  Uiso   1.00
C3     C     0.34105   0.69305   0.66668   0.00000  Uiso   1.00
C4     C     0.17697   0.65696   0.49552   0.00000  Uiso   1.00
C5     C     0.92946   0.57195   0.22490   0.00000  Uiso   1.00
C6     C     0.53546   0.97236   0.90591   0.00000  Uiso   1.00
C7     C     0.62880   0.06322   0.98177   0.00000  Uiso   1.00
C8     C     0.59632   0.19642   0.95470   0.00000  Uiso   1.00
C9     C     0.59157   0.42362   0.94990   0.00000  Uiso   1.00
C10    C     0.58348   0.77396   0.99025   0.00000  Uiso   1.00
C11    C     0.71721   0.69803   0.13706   0.00000  Uiso   1.00
C12    C     0.72518   0.66422   0.18103   0.00000  Uiso   1.00
C13    C     0.79498   0.58336   0.30719   0.00000  Uiso   1.00
C14    C     0.32682   0.89705   0.73583   0.00000  Uiso   1.00
C15    C     0.25769   0.81200   0.63539   0.00000  Uiso   1.00
C16    C     0.09363   0.77602   0.46429   0.00000  Uiso   1.00
C17    C     0.05529   0.69776   0.39598   0.00000  Uiso   1.00
C18    C     0.41400   0.01310   0.80655   0.00000  Uiso   1.00
C19    C     0.38139   0.14619   0.77937   0.00000  Uiso   1.00
C20    C     0.47464   0.23723   0.85516   0.00000  Uiso   1.00
C21    C     0.46201   0.81469   0.89089   0.00000  Uiso   1.00
C22    C     0.46979   0.78099   0.93465   0.00000  Uiso   1.00
C23    C     0.60350   0.70502   0.08149   0.00000  Uiso   1.00
H24    H     0.64501   0.79036   0.99612   0.00000  Uiso   1.00
H25    H     0.43508   0.66156   0.74362   0.00000  Uiso   1.00
H26    H     0.72280   0.03167   0.05866   0.00000  Uiso   1.00
H27    H     0.81118   0.66653   0.21392   0.00000  Uiso   1.00
H28    H     0.14875   0.53676   0.41984   0.00000  Uiso   1.00
H29    H     0.75546   0.31717   0.08418   0.00000  Uiso   1.00
H30    H     0.94185   0.54720   0.41157   0.00000  Uiso   1.00
H31    H     0.23225   0.92877   0.65847   0.00000  Uiso   1.00
H32    H     0.99966   0.80755   0.38743   0.00000  Uiso   1.00
H33    H     0.28739   0.17767   0.70248   0.00000  Uiso   1.00
H34    H     0.37577   0.81253   0.85773   0.00000  Uiso   1.00
H35    H     0.79535   0.65526   0.13074   0.00000  Uiso   1.00
H36    H     0.40207   0.43568   0.79509   0.00000  Uiso   1.00
H37    H     0.58845   0.66570   0.12247   0.00000  Uiso   1.00
O38    O     0.82648   0.51382   0.10307   0.00000  Uiso   1.00
O39    O     0.62250   0.53768   0.97469   0.00000  Uiso   1.00
O40    O     0.86702   0.52749   0.40421   0.00000  Uiso   1.00
N41    N     0.09750   0.58126   0.38900   0.00000  Uiso   1.00
N42    N     0.66473   0.31090   0.01010   0.00000  Uiso   1.00
N43    N     0.83900   0.59107   0.31621   0.00000  Uiso   1.00
N44    N     0.90734   0.64503   0.23344   0.00000  Uiso   1.00
N45    N     0.47457   0.37466   0.85454   0.00000  Uiso   1.00
N46    N     0.64884   0.65483   0.16065   0.00000  Uiso   1.00
C47    C     0.44955   0.82206   0.58124   0.00000  Uiso   1.00
C48    C     0.62085   0.77126   0.76525   0.00000  Uiso   1.00
C49    C     0.65895   0.69305   0.83332   0.00000  Uiso   1.00
C50    C     0.82303   0.65696   0.00448   0.00000  Uiso   1.00
C51    C     0.07054   0.57195   0.27510   0.00000  Uiso   1.00
C52    C     0.46454   0.97236   0.59409   0.00000  Uiso   1.00
C53    C     0.37120   0.06322   0.51823   0.00000  Uiso   1.00
C54    C     0.40368   0.19642   0.54530   0.00000  Uiso   1.00
C55    C     0.40843   0.42362   0.55010   0.00000  Uiso   1.00
C56    C     0.41652   0.77396   0.50975   0.00000  Uiso   1.00
C57    C     0.28279   0.69803   0.36294   0.00000  Uiso   1.00
C58    C     0.27482   0.66422   0.31897   0.00000  Uiso   1.00
C59    C     0.20502   0.58336   0.19281   0.00000  Uiso   1.00
C60    C     0.67318   0.89705   0.76417   0.00000  Uiso   1.00
C61    C     0.74231   0.81200   0.86461   0.00000  Uiso   1.00
C62    C     0.90637   0.77602   0.03571   0.00000  Uiso   1.00
C63    C     0.94471   0.69776   0.10402   0.00000  Uiso   1.00
C64    C     0.58600   0.01310   0.69345   0.00000  Uiso   1.00
C65    C     0.61861   0.14619   0.72063   0.00000  Uiso   1.00
C66    C     0.52536   0.23723   0.64484   0.00000  Uiso   1.00
C67    C     0.53799   0.81469   0.60911   0.00000  Uiso   1.00
C68    C     0.53021   0.78099   0.56535   0.00000  Uiso   1.00
C69    C     0.39650   0.70502   0.41851   0.00000  Uiso   1.00
H70    H     0.35499   0.79036   0.50388   0.00000  Uiso   1.00
H71    H     0.56492   0.66156   0.75638   0.00000  Uiso   1.00
H72    H     0.27720   0.03167   0.44134   0.00000  Uiso   1.00
H73    H     0.18882   0.66653   0.28608   0.00000  Uiso   1.00
H74    H     0.85125   0.53676   0.08016   0.00000  Uiso   1.00
H75    H     0.24454   0.31717   0.41582   0.00000  Uiso   1.00
H76    H     0.05815   0.54720   0.08843   0.00000  Uiso   1.00
H77    H     0.76775   0.92877   0.84153   0.00000  Uiso   1.00
H78    H     0.00034   0.80755   0.11257   0.00000  Uiso   1.00
H79    H     0.71261   0.17767   0.79752   0.00000  Uiso   1.00
H80    H     0.62423   0.81253   0.64227   0.00000  Uiso   1.00
H81    H     0.20465   0.65526   0.36926   0.00000  Uiso   1.00
H82    H     0.59793   0.43568   0.70491   0.00000  Uiso   1.00
H83    H     0.41155   0.66570   0.37753   0.00000  Uiso   1.00
O84    O     0.17352   0.51382   0.39693   0.00000  Uiso   1.00
O85    O     0.37750   0.53768   0.52531   0.00000  Uiso   1.00
O86    O     0.13298   0.52749   0.09579   0.00000  Uiso   1.00
N87    N     0.90250   0.58126   0.11100   0.00000  Uiso   1.00
N88    N     0.33527   0.31090   0.48990   0.00000  Uiso   1.00
N89    N     0.16100   0.59107   0.18379   0.00000  Uiso   1.00
N90    N     0.09266   0.64503   0.26656   0.00000  Uiso   1.00
N91    N     0.52543   0.37466   0.64546   0.00000  Uiso   1.00
N92    N     0.35116   0.65483   0.33935   0.00000  Uiso   1.00
C93    C     0.44955   0.17794   0.08124   0.00000  Uiso   1.00
C94    C     0.62085   0.22874   0.26525   0.00000  Uiso   1.00
C95    C     0.65895   0.30695   0.33332   0.00000  Uiso   1.00
C96    C     0.82303   0.34304   0.50448   0.00000  Uiso   1.00
C97    C     0.07054   0.42805   0.77510   0.00000  Uiso   1.00
C98    C     0.46454   0.02764   0.09409   0.00000  Uiso   1.00
C99    C     0.37120   0.93678   0.01823   0.00000  Uiso   1.00
C100   C     0.40368   0.80358   0.04530   0.00000  Uiso   1.00
C101   C     0.40843   0.57638   0.05010   0.00000  Uiso   1.00
C102   C     0.41652   0.22604   0.00975   0.00000  Uiso   1.00
C103   C     0.28279   0.30197   0.86294   0.00000  Uiso   1.00
C104   C     0.27482   0.33578   0.81897   0.00000  Uiso   1.00
C105   C     0.20502   0.41664   0.69281   0.00000  Uiso   1.00
C106   C     0.67318   0.10295   0.26417   0.00000  Uiso   1.00
C107   C     0.74231   0.18800   0.36461   0.00000  Uiso   1.00
C108   C     0.90637   0.22398   0.53571   0.00000  Uiso   1.00
C109   C     0.94471   0.30224   0.60402   0.00000  Uiso   1.00
C110   C     0.58600   0.98690   0.19345   0.00000  Uiso   1.00
C111   C     0.61861   0.85381   0.22063   0.00000  Uiso   1.00
C112   C     0.52536   0.76277   0.14484   0.00000  Uiso   1.00
C113   C     0.53799   0.18531   0.10911   0.00000  Uiso   1.00
C114   C     0.53021   0.21901   0.06535   0.00000  Uiso   1.00
C115   C     0.39650   0.29498   0.91851   0.00000  Uiso   1.00
H116   H     0.35499   0.20964   0.00388   0.00000  Uiso   1.00
H117   H     0.56492   0.33844   0.25638   0.00000  Uiso   1.00
H118   H     0.27720   0.96833   0.94134   0.00000  Uiso   1.00
H119   H     0.18882   0.33347   0.78608   0.00000  Uiso   1.00
H120   H     0.85125   0.46324   0.58016   0.00000  Uiso   1.00
H121   H     0.24454   0.68283   0.91582   0.00000  Uiso   1.00
H122   H     0.05815   0.45280   0.58843   0.00000  Uiso   1.00
H123   H     0.76775   0.07123   0.34153   0.00000  Uiso   1.00
H124   H     0.00034   0.19245   0.61257   0.00000  Uiso   1.00
H125   H     0.71261   0.82233   0.29752   0.00000  Uiso   1.00
H126   H     0.62423   0.18747   0.14227   0.00000  Uiso   1.00
H127   H     0.20465   0.34474   0.86926   0.00000  Uiso   1.00
H128   H     0.59793   0.56432   0.20491   0.00000  Uiso   1.00
H129   H     0.41155   0.33430   0.87753   0.00000  Uiso   1.00
O130   O     0.17352   0.48618   0.89693   0.00000  Uiso   1.00
O131   O     0.37750   0.46232   0.02531   0.00000  Uiso   1.00
O132   O     0.13298   0.47251   0.59579   0.00000  Uiso   1.00
N133   N     0.90250   0.41874   0.61100   0.00000  Uiso   1.00
N134   N     0.33527   0.68910   0.98990   0.00000  Uiso   1.00
N135   N     0.16100   0.40893   0.68379   0.00000  Uiso   1.00
N136   N     0.09266   0.35497   0.76656   0.00000  Uiso   1.00
N137   N     0.52543   0.62534   0.14546   0.00000  Uiso   1.00
N138   N     0.35116   0.34517   0.83935   0.00000  Uiso   1.00
C139   C     0.55045   0.17794   0.41876   0.00000  Uiso   1.00
C140   C     0.37915   0.22874   0.23475   0.00000  Uiso   1.00
C141   C     0.34105   0.30695   0.16668   0.00000  Uiso   1.00
C142   C     0.17697   0.34304   0.99552   0.00000  Uiso   1.00
C143   C     0.92946   0.42805   0.72490   0.00000  Uiso   1.00
C144   C     0.53546   0.02764   0.40591   0.00000  Uiso   1.00
C145   C     0.62880   0.93678   0.48177   0.00000  Uiso   1.00
C146   C     0.59632   0.80358   0.45470   0.00000  Uiso   1.00
C147   C     0.59157   0.57638   0.44990   0.00000  Uiso   1.00
C148   C     0.58348   0.22604   0.49025   0.00000  Uiso   1.00
C149   C     0.71721   0.30197   0.63706   0.00000  Uiso   1.00
C150   C     0.72518   0.33578   0.68103   0.00000  Uiso   1.00
C151   C     0.79498   0.41664   0.80719   0.00000  Uiso   1.00
C152   C     0.32682   0.10295   0.23583   0.00000  Uiso   1.00
C153   C     0.25769   0.18800   0.13539   0.00000  Uiso   1.00
C154   C     0.09363   0.22398   0.96429   0.00000  Uiso   1.00
C155   C     0.05529   0.30224   0.89598   0.00000  Uiso   1.00
C156   C     0.41400   0.98690   0.30655   0.00000  Uiso   1.00
C157   C     0.38139   0.85381   0.27937   0.00000  Uiso   1.00
C158   C     0.47464   0.76277   0.35516   0.00000  Uiso   1.00
C159   C     0.46201   0.18531   0.39089   0.00000  Uiso   1.00
C160   C     0.46979   0.21901   0.43465   0.00000  Uiso   1.00
C161   C     0.60350   0.29498   0.58149   0.00000  Uiso   1.00
H162   H     0.64501   0.20964   0.49612   0.00000  Uiso   1.00
H163   H     0.43508   0.33844   0.24362   0.00000  Uiso   1.00
H164   H     0.72280   0.96833   0.55866   0.00000  Uiso   1.00
H165   H     0.81118   0.33347   0.71392   0.00000  Uiso   1.00
H166   H     0.14875   0.46324   0.91984   0.00000  Uiso   1.00
H167   H     0.75546   0.68283   0.58418   0.00000  Uiso   1.00
H168   H     0.94185   0.45280   0.91157   0.00000  Uiso   1.00
H169   H     0.23225   0.07123   0.15847   0.00000  Uiso   1.00
H170   H     0.99966   0.19245   0.88743   0.00000  Uiso   1.00
H171   H     0.28739   0.82233   0.20248   0.00000  Uiso   1.00
H172   H     0.37577   0.18747   0.35773   0.00000  Uiso   1.00
H173   H     0.79535   0.34474   0.63074   0.00000  Uiso   1.00
H174   H     0.40207   0.56432   0.29509   0.00000  Uiso   1.00
H175   H     0.58845   0.33430   0.62247   0.00000  Uiso   1.00
O176   O     0.82648   0.48618   0.60307   0.00000  Uiso   1.00
O177   O     0.62250   0.46232   0.47469   0.00000  Uiso   1.00
O178   O     0.86702   0.47251   0.90421   0.00000  Uiso   1.00
N179   N     0.09750   0.41874   0.88900   0.00000  Uiso   1.00
N180   N     0.66473   0.68910   0.51010   0.00000  Uiso   1.00
N181   N     0.83900   0.40893   0.81621   0.00000  Uiso   1.00
N182   N     0.90734   0.35497   0.73344   0.00000  Uiso   1.00
N183   N     0.47457   0.62534   0.35454   0.00000  Uiso   1.00
N184   N     0.64884   0.34517   0.66065   0.00000  Uiso   1.00
