data_job_03040
_audit_creation_date              2018-12-19
_audit_creation_method            'Materials Studio'
_symmetry_space_group_name_H-M    'P1'
_symmetry_Int_Tables_number       1
_symmetry_cell_setting            triclinic
loop_
_symmetry_equiv_pos_as_xyz
  x,y,z
_cell_length_a                    16.1981
_cell_length_b                    20.0888
_cell_length_c                    16.8038
_cell_angle_alpha                 90.0000
_cell_angle_beta                  90.0000
_cell_angle_gamma                 90.0000
loop_
_atom_site_label
_atom_site_type_symbol
_atom_site_fract_x
_atom_site_fract_y
_atom_site_fract_z
_atom_site_U_iso_or_equiv
_atom_site_adp_type
_atom_site_occupancy
C1     C     0.14565   0.34959   0.37064   0.00000  Uiso   1.00
C2     C     0.14679   0.27630   0.34703   0.00000  Uiso   1.00
C3     C     0.15118   0.25196   0.26986   0.00000  Uiso   1.00
C4     C     0.15148   0.18327   0.26072   0.00000  Uiso   1.00
C5     C     0.15381   0.07597   0.21406   0.00000  Uiso   1.00
C6     C     0.06750   0.35943   0.41985   0.00000  Uiso   1.00
C7     C     0.00524   0.40498   0.40391   0.00000  Uiso   1.00
C8     C     0.93879   0.40627   0.45609   0.00000  Uiso   1.00
C9     C     0.81805   0.42806   0.52252   0.00000  Uiso   1.00
C10    C     0.21766   0.35912   0.42797   0.00000  Uiso   1.00
C11    C     0.28165   0.40443   0.41887   0.00000  Uiso   1.00
C12    C     0.34162   0.40547   0.47789   0.00000  Uiso   1.00
C13    C     0.45403   0.42679   0.55692   0.00000  Uiso   1.00
C14    C     0.13836   0.27090   0.49165   0.00000  Uiso   1.00
C15    C     0.14283   0.23356   0.41276   0.00000  Uiso   1.00
C16    C     0.14312   0.16489   0.40374   0.00000  Uiso   1.00
C17    C     0.14752   0.14045   0.32657   0.00000  Uiso   1.00
C18    C     0.06354   0.31669   0.48558   0.00000  Uiso   1.00
C19    C     0.99717   0.31792   0.53780   0.00000  Uiso   1.00
C20    C     0.93482   0.36345   0.52194   0.00000  Uiso   1.00
C21    C     0.21370   0.31638   0.49370   0.00000  Uiso   1.00
C22    C     0.27359   0.31736   0.55275   0.00000  Uiso   1.00
C23    C     0.33766   0.36266   0.54374   0.00000  Uiso   1.00
H24    H     0.14873   0.38287   0.31947   0.00000  Uiso   1.00
H25    H     0.15424   0.28505   0.21901   0.00000  Uiso   1.00
H26    H     0.00832   0.43805   0.35305   0.00000  Uiso   1.00
H27    H     0.28469   0.43750   0.36800   0.00000  Uiso   1.00
H28    H     0.15857   0.15775   0.13661   0.00000  Uiso   1.00
H29    H     0.85091   0.48037   0.41926   0.00000  Uiso   1.00
H30    H     0.43369   0.47921   0.45078   0.00000  Uiso   1.00
H31    H     0.13528   0.23763   0.54283   0.00000  Uiso   1.00
H32    H     0.14006   0.13183   0.45462   0.00000  Uiso   1.00
H33    H     0.99413   0.28483   0.58866   0.00000  Uiso   1.00
H34    H     0.27050   0.28428   0.60360   0.00000  Uiso   1.00
H35    H     0.14706   0.03339   0.32784   0.00000  Uiso   1.00
H36    H     0.83939   0.35602   0.61048   0.00000  Uiso   1.00
H37    H     0.42218   0.35485   0.64201   0.00000  Uiso   1.00
O38    O     0.15617   0.02859   0.17016   0.00000  Uiso   1.00
O39    O     0.75254   0.45188   0.54099   0.00000  Uiso   1.00
O40    O     0.51714   0.45034   0.58235   0.00000  Uiso   1.00
N41    N     0.15522   0.14300   0.19372   0.00000  Uiso   1.00
N42    N     0.86757   0.44463   0.45797   0.00000  Uiso   1.00
N43    N     0.41241   0.44355   0.48746   0.00000  Uiso   1.00
N44    N     0.14903   0.07608   0.29662   0.00000  Uiso   1.00
N45    N     0.86137   0.37771   0.56087   0.00000  Uiso   1.00
N46    N     0.40622   0.37663   0.59035   0.00000  Uiso   1.00
C47    C     0.35435   0.65041   0.87064   0.00000  Uiso   1.00
C48    C     0.35321   0.72370   0.84703   0.00000  Uiso   1.00
C49    C     0.34882   0.74804   0.76986   0.00000  Uiso   1.00
C50    C     0.34852   0.81673   0.76072   0.00000  Uiso   1.00
C51    C     0.34619   0.92403   0.71406   0.00000  Uiso   1.00
C52    C     0.43250   0.64057   0.91985   0.00000  Uiso   1.00
C53    C     0.49476   0.59502   0.90391   0.00000  Uiso   1.00
C54    C     0.56121   0.59373   0.95609   0.00000  Uiso   1.00
C55    C     0.68195   0.57194   0.02252   0.00000  Uiso   1.00
C56    C     0.28234   0.64088   0.92797   0.00000  Uiso   1.00
C57    C     0.21835   0.59557   0.91887   0.00000  Uiso   1.00
C58    C     0.15838   0.59453   0.97789   0.00000  Uiso   1.00
C59    C     0.04597   0.57321   0.05692   0.00000  Uiso   1.00
C60    C     0.36164   0.72910   0.99165   0.00000  Uiso   1.00
C61    C     0.35717   0.76644   0.91276   0.00000  Uiso   1.00
C62    C     0.35688   0.83511   0.90374   0.00000  Uiso   1.00
C63    C     0.35248   0.85955   0.82657   0.00000  Uiso   1.00
C64    C     0.43646   0.68331   0.98558   0.00000  Uiso   1.00
C65    C     0.50283   0.68208   0.03780   0.00000  Uiso   1.00
C66    C     0.56518   0.63655   0.02194   0.00000  Uiso   1.00
C67    C     0.28630   0.68362   0.99370   0.00000  Uiso   1.00
C68    C     0.22641   0.68264   0.05275   0.00000  Uiso   1.00
C69    C     0.16234   0.63734   0.04374   0.00000  Uiso   1.00
H70    H     0.35127   0.61713   0.81947   0.00000  Uiso   1.00
H71    H     0.34576   0.71495   0.71901   0.00000  Uiso   1.00
H72    H     0.49168   0.56195   0.85305   0.00000  Uiso   1.00
H73    H     0.21531   0.56250   0.86800   0.00000  Uiso   1.00
H74    H     0.34143   0.84225   0.63661   0.00000  Uiso   1.00
H75    H     0.64909   0.51963   0.91926   0.00000  Uiso   1.00
H76    H     0.06631   0.52079   0.95078   0.00000  Uiso   1.00
H77    H     0.36472   0.76237   0.04283   0.00000  Uiso   1.00
H78    H     0.35994   0.86817   0.95462   0.00000  Uiso   1.00
H79    H     0.50587   0.71517   0.08866   0.00000  Uiso   1.00
H80    H     0.22950   0.71572   0.10360   0.00000  Uiso   1.00
H81    H     0.35294   0.96661   0.82784   0.00000  Uiso   1.00
H82    H     0.66061   0.64398   0.11048   0.00000  Uiso   1.00
H83    H     0.07782   0.64515   0.14201   0.00000  Uiso   1.00
O84    O     0.34383   0.97141   0.67016   0.00000  Uiso   1.00
O85    O     0.74746   0.54812   0.04099   0.00000  Uiso   1.00
O86    O     0.98286   0.54966   0.08235   0.00000  Uiso   1.00
N87    N     0.34478   0.85700   0.69372   0.00000  Uiso   1.00
N88    N     0.63243   0.55537   0.95797   0.00000  Uiso   1.00
N89    N     0.08759   0.55645   0.98746   0.00000  Uiso   1.00
N90    N     0.35097   0.92392   0.79662   0.00000  Uiso   1.00
N91    N     0.63863   0.62229   0.06087   0.00000  Uiso   1.00
N92    N     0.09378   0.62337   0.09035   0.00000  Uiso   1.00
C93    C     0.85435   0.84959   0.12936   0.00000  Uiso   1.00
C94    C     0.85321   0.77630   0.15297   0.00000  Uiso   1.00
C95    C     0.84882   0.75196   0.23014   0.00000  Uiso   1.00
C96    C     0.84852   0.68327   0.23928   0.00000  Uiso   1.00
C97    C     0.84619   0.57597   0.28594   0.00000  Uiso   1.00
C98    C     0.93250   0.85943   0.08015   0.00000  Uiso   1.00
C99    C     0.99476   0.90498   0.09609   0.00000  Uiso   1.00
C100   C     0.06121   0.90627   0.04391   0.00000  Uiso   1.00
C101   C     0.18195   0.92806   0.97748   0.00000  Uiso   1.00
C102   C     0.78234   0.85912   0.07203   0.00000  Uiso   1.00
C103   C     0.71835   0.90443   0.08113   0.00000  Uiso   1.00
C104   C     0.65838   0.90547   0.02211   0.00000  Uiso   1.00
C105   C     0.54597   0.92679   0.94308   0.00000  Uiso   1.00
C106   C     0.86164   0.77090   0.00835   0.00000  Uiso   1.00
C107   C     0.85717   0.73356   0.08724   0.00000  Uiso   1.00
C108   C     0.85688   0.66489   0.09626   0.00000  Uiso   1.00
C109   C     0.85248   0.64045   0.17343   0.00000  Uiso   1.00
C110   C     0.93646   0.81669   0.01442   0.00000  Uiso   1.00
C111   C     0.00283   0.81792   0.96220   0.00000  Uiso   1.00
C112   C     0.06518   0.86345   0.97806   0.00000  Uiso   1.00
C113   C     0.78630   0.81638   0.00630   0.00000  Uiso   1.00
C114   C     0.72641   0.81736   0.94725   0.00000  Uiso   1.00
C115   C     0.66234   0.86266   0.95626   0.00000  Uiso   1.00
H116   H     0.85127   0.88287   0.18053   0.00000  Uiso   1.00
H117   H     0.84576   0.78505   0.28099   0.00000  Uiso   1.00
H118   H     0.99168   0.93805   0.14695   0.00000  Uiso   1.00
H119   H     0.71531   0.93750   0.13200   0.00000  Uiso   1.00
H120   H     0.84143   0.65775   0.36339   0.00000  Uiso   1.00
H121   H     0.14909   0.98037   0.08074   0.00000  Uiso   1.00
H122   H     0.56631   0.97921   0.04922   0.00000  Uiso   1.00
H123   H     0.86472   0.73763   0.95717   0.00000  Uiso   1.00
H124   H     0.85994   0.63183   0.04538   0.00000  Uiso   1.00
H125   H     0.00587   0.78483   0.91134   0.00000  Uiso   1.00
H126   H     0.72950   0.78428   0.89640   0.00000  Uiso   1.00
H127   H     0.85294   0.53339   0.17216   0.00000  Uiso   1.00
H128   H     0.16061   0.85602   0.88952   0.00000  Uiso   1.00
H129   H     0.57782   0.85485   0.85799   0.00000  Uiso   1.00
O130   O     0.84383   0.52859   0.32984   0.00000  Uiso   1.00
O131   O     0.24746   0.95188   0.95901   0.00000  Uiso   1.00
O132   O     0.48286   0.95034   0.91765   0.00000  Uiso   1.00
N133   N     0.84478   0.64300   0.30628   0.00000  Uiso   1.00
N134   N     0.13243   0.94463   0.04203   0.00000  Uiso   1.00
N135   N     0.58759   0.94355   0.01254   0.00000  Uiso   1.00
N136   N     0.85097   0.57608   0.20338   0.00000  Uiso   1.00
N137   N     0.13863   0.87771   0.93913   0.00000  Uiso   1.00
N138   N     0.59378   0.87663   0.90965   0.00000  Uiso   1.00
C139   C     0.64565   0.15041   0.62936   0.00000  Uiso   1.00
C140   C     0.64679   0.22370   0.65297   0.00000  Uiso   1.00
C141   C     0.65118   0.24804   0.73014   0.00000  Uiso   1.00
C142   C     0.65148   0.31673   0.73928   0.00000  Uiso   1.00
C143   C     0.65381   0.42403   0.78594   0.00000  Uiso   1.00
C144   C     0.56750   0.14057   0.58015   0.00000  Uiso   1.00
C145   C     0.50524   0.09502   0.59609   0.00000  Uiso   1.00
C146   C     0.43879   0.09373   0.54391   0.00000  Uiso   1.00
C147   C     0.31805   0.07194   0.47748   0.00000  Uiso   1.00
C148   C     0.71766   0.14088   0.57203   0.00000  Uiso   1.00
C149   C     0.78165   0.09557   0.58113   0.00000  Uiso   1.00
C150   C     0.84162   0.09453   0.52211   0.00000  Uiso   1.00
C151   C     0.95403   0.07321   0.44308   0.00000  Uiso   1.00
C152   C     0.63836   0.22910   0.50835   0.00000  Uiso   1.00
C153   C     0.64283   0.26644   0.58724   0.00000  Uiso   1.00
C154   C     0.64312   0.33511   0.59626   0.00000  Uiso   1.00
C155   C     0.64752   0.35955   0.67343   0.00000  Uiso   1.00
C156   C     0.56354   0.18331   0.51442   0.00000  Uiso   1.00
C157   C     0.49717   0.18208   0.46220   0.00000  Uiso   1.00
C158   C     0.43482   0.13655   0.47806   0.00000  Uiso   1.00
C159   C     0.71370   0.18362   0.50630   0.00000  Uiso   1.00
C160   C     0.77359   0.18264   0.44725   0.00000  Uiso   1.00
C161   C     0.83766   0.13734   0.45626   0.00000  Uiso   1.00
H162   H     0.64873   0.11713   0.68053   0.00000  Uiso   1.00
H163   H     0.65424   0.21495   0.78099   0.00000  Uiso   1.00
H164   H     0.50832   0.06195   0.64695   0.00000  Uiso   1.00
H165   H     0.78469   0.06250   0.63200   0.00000  Uiso   1.00
H166   H     0.65857   0.34225   0.86339   0.00000  Uiso   1.00
H167   H     0.35091   0.01963   0.58074   0.00000  Uiso   1.00
H168   H     0.93369   0.02079   0.54922   0.00000  Uiso   1.00
H169   H     0.63528   0.26237   0.45717   0.00000  Uiso   1.00
H170   H     0.64006   0.36817   0.54538   0.00000  Uiso   1.00
H171   H     0.49413   0.21517   0.41134   0.00000  Uiso   1.00
H172   H     0.77050   0.21572   0.39640   0.00000  Uiso   1.00
H173   H     0.64706   0.46661   0.67216   0.00000  Uiso   1.00
H174   H     0.33939   0.14398   0.38952   0.00000  Uiso   1.00
H175   H     0.92218   0.14515   0.35799   0.00000  Uiso   1.00
O176   O     0.65617   0.47141   0.82984   0.00000  Uiso   1.00
O177   O     0.25254   0.04812   0.45901   0.00000  Uiso   1.00
O178   O     0.01714   0.04966   0.41765   0.00000  Uiso   1.00
N179   N     0.65522   0.35700   0.80628   0.00000  Uiso   1.00
N180   N     0.36757   0.05537   0.54203   0.00000  Uiso   1.00
N181   N     0.91241   0.05645   0.51254   0.00000  Uiso   1.00
N182   N     0.64903   0.42392   0.70338   0.00000  Uiso   1.00
N183   N     0.36137   0.12229   0.43913   0.00000  Uiso   1.00
N184   N     0.90622   0.12337   0.40965   0.00000  Uiso   1.00
C185   C     0.85435   0.65041   0.62936   0.00000  Uiso   1.00
C186   C     0.85321   0.72370   0.65297   0.00000  Uiso   1.00
C187   C     0.84882   0.74804   0.73014   0.00000  Uiso   1.00
C188   C     0.84852   0.81673   0.73928   0.00000  Uiso   1.00
C189   C     0.84619   0.92403   0.78594   0.00000  Uiso   1.00
C190   C     0.93250   0.64057   0.58015   0.00000  Uiso   1.00
C191   C     0.99476   0.59502   0.59609   0.00000  Uiso   1.00
C192   C     0.06121   0.59373   0.54391   0.00000  Uiso   1.00
C193   C     0.18195   0.57194   0.47748   0.00000  Uiso   1.00
C194   C     0.78234   0.64088   0.57203   0.00000  Uiso   1.00
C195   C     0.71835   0.59557   0.58113   0.00000  Uiso   1.00
C196   C     0.65838   0.59453   0.52211   0.00000  Uiso   1.00
C197   C     0.54597   0.57321   0.44308   0.00000  Uiso   1.00
C198   C     0.86164   0.72910   0.50835   0.00000  Uiso   1.00
C199   C     0.85717   0.76644   0.58724   0.00000  Uiso   1.00
C200   C     0.85688   0.83511   0.59626   0.00000  Uiso   1.00
C201   C     0.85248   0.85955   0.67343   0.00000  Uiso   1.00
C202   C     0.93646   0.68331   0.51442   0.00000  Uiso   1.00
C203   C     0.00283   0.68208   0.46220   0.00000  Uiso   1.00
C204   C     0.06518   0.63655   0.47806   0.00000  Uiso   1.00
C205   C     0.78630   0.68362   0.50630   0.00000  Uiso   1.00
C206   C     0.72641   0.68264   0.44725   0.00000  Uiso   1.00
C207   C     0.66234   0.63734   0.45626   0.00000  Uiso   1.00
H208   H     0.85127   0.61713   0.68053   0.00000  Uiso   1.00
H209   H     0.84576   0.71495   0.78099   0.00000  Uiso   1.00
H210   H     0.99168   0.56195   0.64695   0.00000  Uiso   1.00
H211   H     0.71531   0.56250   0.63200   0.00000  Uiso   1.00
H212   H     0.84143   0.84225   0.86339   0.00000  Uiso   1.00
H213   H     0.14909   0.51963   0.58074   0.00000  Uiso   1.00
H214   H     0.56631   0.52079   0.54922   0.00000  Uiso   1.00
H215   H     0.86472   0.76237   0.45717   0.00000  Uiso   1.00
H216   H     0.85994   0.86817   0.54538   0.00000  Uiso   1.00
H217   H     0.00587   0.71517   0.41134   0.00000  Uiso   1.00
H218   H     0.72950   0.71572   0.39640   0.00000  Uiso   1.00
H219   H     0.85294   0.96661   0.67216   0.00000  Uiso   1.00
H220   H     0.16061   0.64398   0.38952   0.00000  Uiso   1.00
H221   H     0.57782   0.64515   0.35799   0.00000  Uiso   1.00
O222   O     0.84383   0.97141   0.82984   0.00000  Uiso   1.00
O223   O     0.24746   0.54812   0.45901   0.00000  Uiso   1.00
O224   O     0.48286   0.54966   0.41765   0.00000  Uiso   1.00
N225   N     0.84478   0.85700   0.80628   0.00000  Uiso   1.00
N226   N     0.13243   0.55537   0.54203   0.00000  Uiso   1.00
N227   N     0.58759   0.55645   0.51254   0.00000  Uiso   1.00
N228   N     0.85097   0.92392   0.70338   0.00000  Uiso   1.00
N229   N     0.13863   0.62229   0.43913   0.00000  Uiso   1.00
N230   N     0.59378   0.62337   0.40965   0.00000  Uiso   1.00
C231   C     0.64565   0.34959   0.12936   0.00000  Uiso   1.00
C232   C     0.64679   0.27630   0.15297   0.00000  Uiso   1.00
C233   C     0.65118   0.25196   0.23014   0.00000  Uiso   1.00
C234   C     0.65148   0.18327   0.23928   0.00000  Uiso   1.00
C235   C     0.65381   0.07597   0.28594   0.00000  Uiso   1.00
C236   C     0.56750   0.35943   0.08015   0.00000  Uiso   1.00
C237   C     0.50524   0.40498   0.09609   0.00000  Uiso   1.00
C238   C     0.43879   0.40627   0.04391   0.00000  Uiso   1.00
C239   C     0.31805   0.42806   0.97748   0.00000  Uiso   1.00
C240   C     0.71766   0.35912   0.07203   0.00000  Uiso   1.00
C241   C     0.78165   0.40443   0.08113   0.00000  Uiso   1.00
C242   C     0.84162   0.40547   0.02211   0.00000  Uiso   1.00
C243   C     0.95403   0.42679   0.94308   0.00000  Uiso   1.00
C244   C     0.63836   0.27090   0.00835   0.00000  Uiso   1.00
C245   C     0.64283   0.23356   0.08724   0.00000  Uiso   1.00
C246   C     0.64312   0.16489   0.09626   0.00000  Uiso   1.00
C247   C     0.64752   0.14045   0.17343   0.00000  Uiso   1.00
C248   C     0.56354   0.31669   0.01442   0.00000  Uiso   1.00
C249   C     0.49717   0.31792   0.96220   0.00000  Uiso   1.00
C250   C     0.43482   0.36345   0.97806   0.00000  Uiso   1.00
C251   C     0.71370   0.31638   0.00630   0.00000  Uiso   1.00
C252   C     0.77359   0.31736   0.94725   0.00000  Uiso   1.00
C253   C     0.83766   0.36266   0.95626   0.00000  Uiso   1.00
H254   H     0.64873   0.38287   0.18053   0.00000  Uiso   1.00
H255   H     0.65424   0.28505   0.28099   0.00000  Uiso   1.00
H256   H     0.50832   0.43805   0.14695   0.00000  Uiso   1.00
H257   H     0.78469   0.43750   0.13200   0.00000  Uiso   1.00
H258   H     0.65857   0.15775   0.36339   0.00000  Uiso   1.00
H259   H     0.35091   0.48037   0.08074   0.00000  Uiso   1.00
H260   H     0.93369   0.47921   0.04922   0.00000  Uiso   1.00
H261   H     0.63528   0.23763   0.95717   0.00000  Uiso   1.00
H262   H     0.64006   0.13183   0.04538   0.00000  Uiso   1.00
H263   H     0.49413   0.28483   0.91134   0.00000  Uiso   1.00
H264   H     0.77050   0.28428   0.89640   0.00000  Uiso   1.00
H265   H     0.64706   0.03339   0.17216   0.00000  Uiso   1.00
H266   H     0.33939   0.35602   0.88952   0.00000  Uiso   1.00
H267   H     0.92218   0.35485   0.85799   0.00000  Uiso   1.00
O268   O     0.65617   0.02859   0.32984   0.00000  Uiso   1.00
O269   O     0.25254   0.45188   0.95901   0.00000  Uiso   1.00
O270   O     0.01714   0.45034   0.91765   0.00000  Uiso   1.00
N271   N     0.65522   0.14300   0.30628   0.00000  Uiso   1.00
N272   N     0.36757   0.44463   0.04203   0.00000  Uiso   1.00
N273   N     0.91241   0.44355   0.01254   0.00000  Uiso   1.00
N274   N     0.64903   0.07608   0.20338   0.00000  Uiso   1.00
N275   N     0.36137   0.37771   0.93913   0.00000  Uiso   1.00
N276   N     0.90622   0.37663   0.90965   0.00000  Uiso   1.00
C277   C     0.14565   0.15041   0.87064   0.00000  Uiso   1.00
C278   C     0.14679   0.22370   0.84703   0.00000  Uiso   1.00
C279   C     0.15118   0.24804   0.76986   0.00000  Uiso   1.00
C280   C     0.15148   0.31673   0.76072   0.00000  Uiso   1.00
C281   C     0.15381   0.42403   0.71406   0.00000  Uiso   1.00
C282   C     0.06750   0.14057   0.91985   0.00000  Uiso   1.00
C283   C     0.00524   0.09502   0.90391   0.00000  Uiso   1.00
C284   C     0.93879   0.09373   0.95609   0.00000  Uiso   1.00
C285   C     0.81805   0.07194   0.02252   0.00000  Uiso   1.00
C286   C     0.21766   0.14088   0.92797   0.00000  Uiso   1.00
C287   C     0.28165   0.09557   0.91887   0.00000  Uiso   1.00
C288   C     0.34162   0.09453   0.97789   0.00000  Uiso   1.00
C289   C     0.45403   0.07321   0.05692   0.00000  Uiso   1.00
C290   C     0.13836   0.22910   0.99165   0.00000  Uiso   1.00
C291   C     0.14283   0.26644   0.91276   0.00000  Uiso   1.00
C292   C     0.14312   0.33511   0.90374   0.00000  Uiso   1.00
C293   C     0.14752   0.35955   0.82657   0.00000  Uiso   1.00
C294   C     0.06354   0.18331   0.98558   0.00000  Uiso   1.00
C295   C     0.99717   0.18208   0.03780   0.00000  Uiso   1.00
C296   C     0.93482   0.13655   0.02194   0.00000  Uiso   1.00
C297   C     0.21370   0.18362   0.99370   0.00000  Uiso   1.00
C298   C     0.27359   0.18264   0.05275   0.00000  Uiso   1.00
C299   C     0.33766   0.13734   0.04374   0.00000  Uiso   1.00
H300   H     0.14873   0.11713   0.81947   0.00000  Uiso   1.00
H301   H     0.15424   0.21495   0.71901   0.00000  Uiso   1.00
H302   H     0.00832   0.06195   0.85305   0.00000  Uiso   1.00
H303   H     0.28469   0.06250   0.86800   0.00000  Uiso   1.00
H304   H     0.15857   0.34225   0.63661   0.00000  Uiso   1.00
H305   H     0.85091   0.01963   0.91926   0.00000  Uiso   1.00
H306   H     0.43369   0.02079   0.95078   0.00000  Uiso   1.00
H307   H     0.13528   0.26237   0.04283   0.00000  Uiso   1.00
H308   H     0.14006   0.36817   0.95462   0.00000  Uiso   1.00
H309   H     0.99413   0.21517   0.08866   0.00000  Uiso   1.00
H310   H     0.27050   0.21572   0.10360   0.00000  Uiso   1.00
H311   H     0.14706   0.46661   0.82784   0.00000  Uiso   1.00
H312   H     0.83939   0.14398   0.11048   0.00000  Uiso   1.00
H313   H     0.42218   0.14515   0.14201   0.00000  Uiso   1.00
O314   O     0.15617   0.47141   0.67016   0.00000  Uiso   1.00
O315   O     0.75254   0.04812   0.04099   0.00000  Uiso   1.00
O316   O     0.51714   0.04966   0.08235   0.00000  Uiso   1.00
N317   N     0.15522   0.35700   0.69372   0.00000  Uiso   1.00
N318   N     0.86757   0.05537   0.95797   0.00000  Uiso   1.00
N319   N     0.41241   0.05645   0.98746   0.00000  Uiso   1.00
N320   N     0.14903   0.42392   0.79662   0.00000  Uiso   1.00
N321   N     0.86137   0.12229   0.06087   0.00000  Uiso   1.00
N322   N     0.40622   0.12337   0.09035   0.00000  Uiso   1.00
C323   C     0.35435   0.84959   0.37064   0.00000  Uiso   1.00
C324   C     0.35321   0.77630   0.34703   0.00000  Uiso   1.00
C325   C     0.34882   0.75196   0.26986   0.00000  Uiso   1.00
C326   C     0.34852   0.68327   0.26072   0.00000  Uiso   1.00
C327   C     0.34619   0.57597   0.21406   0.00000  Uiso   1.00
C328   C     0.43250   0.85943   0.41985   0.00000  Uiso   1.00
C329   C     0.49476   0.90498   0.40391   0.00000  Uiso   1.00
C330   C     0.56121   0.90627   0.45609   0.00000  Uiso   1.00
C331   C     0.68195   0.92806   0.52252   0.00000  Uiso   1.00
C332   C     0.28234   0.85912   0.42797   0.00000  Uiso   1.00
C333   C     0.21835   0.90443   0.41887   0.00000  Uiso   1.00
C334   C     0.15838   0.90547   0.47789   0.00000  Uiso   1.00
C335   C     0.04597   0.92679   0.55692   0.00000  Uiso   1.00
C336   C     0.36164   0.77090   0.49165   0.00000  Uiso   1.00
C337   C     0.35717   0.73356   0.41276   0.00000  Uiso   1.00
C338   C     0.35688   0.66489   0.40374   0.00000  Uiso   1.00
C339   C     0.35248   0.64045   0.32657   0.00000  Uiso   1.00
C340   C     0.43646   0.81669   0.48558   0.00000  Uiso   1.00
C341   C     0.50283   0.81792   0.53780   0.00000  Uiso   1.00
C342   C     0.56518   0.86345   0.52194   0.00000  Uiso   1.00
C343   C     0.28630   0.81638   0.49370   0.00000  Uiso   1.00
C344   C     0.22641   0.81736   0.55275   0.00000  Uiso   1.00
C345   C     0.16234   0.86266   0.54374   0.00000  Uiso   1.00
H346   H     0.35127   0.88287   0.31947   0.00000  Uiso   1.00
H347   H     0.34576   0.78505   0.21901   0.00000  Uiso   1.00
H348   H     0.49168   0.93805   0.35305   0.00000  Uiso   1.00
H349   H     0.21531   0.93750   0.36800   0.00000  Uiso   1.00
H350   H     0.34143   0.65775   0.13661   0.00000  Uiso   1.00
H351   H     0.64909   0.98037   0.41926   0.00000  Uiso   1.00
H352   H     0.06631   0.97921   0.45078   0.00000  Uiso   1.00
H353   H     0.36472   0.73763   0.54283   0.00000  Uiso   1.00
H354   H     0.35994   0.63183   0.45462   0.00000  Uiso   1.00
H355   H     0.50587   0.78483   0.58866   0.00000  Uiso   1.00
H356   H     0.22950   0.78428   0.60360   0.00000  Uiso   1.00
H357   H     0.35294   0.53339   0.32784   0.00000  Uiso   1.00
H358   H     0.66061   0.85602   0.61048   0.00000  Uiso   1.00
H359   H     0.07782   0.85485   0.64201   0.00000  Uiso   1.00
O360   O     0.34383   0.52859   0.17016   0.00000  Uiso   1.00
O361   O     0.74746   0.95188   0.54099   0.00000  Uiso   1.00
O362   O     0.98286   0.95034   0.58235   0.00000  Uiso   1.00
N363   N     0.34478   0.64300   0.19372   0.00000  Uiso   1.00
N364   N     0.63243   0.94463   0.45797   0.00000  Uiso   1.00
N365   N     0.08759   0.94355   0.48746   0.00000  Uiso   1.00
N366   N     0.35097   0.57608   0.29662   0.00000  Uiso   1.00
N367   N     0.63863   0.87771   0.56087   0.00000  Uiso   1.00
N368   N     0.09378   0.87663   0.59035   0.00000  Uiso   1.00
