data_job_01598
_audit_creation_date              2018-12-19
_audit_creation_method            'Materials Studio'
_symmetry_space_group_name_H-M    'P1'
_symmetry_Int_Tables_number       1
_symmetry_cell_setting            triclinic
loop_
_symmetry_equiv_pos_as_xyz
  x,y,z
_cell_length_a                    8.3159
_cell_length_b                    10.3294
_cell_length_c                    16.5561
_cell_angle_alpha                 82.5178
_cell_angle_beta                  84.5377
_cell_angle_gamma                 92.8549
loop_
_atom_site_label
_atom_site_type_symbol
_atom_site_fract_x
_atom_site_fract_y
_atom_site_fract_z
_atom_site_U_iso_or_equiv
_atom_site_adp_type
_atom_site_occupancy
C1     C     0.64751   0.90821   0.79635   0.00000  Uiso   1.00
C2     C     0.62000   0.81790   0.87760   0.00000  Uiso   1.00
C3     C     0.47413   0.79294   0.92673   0.00000  Uiso   1.00
C4     C     0.47398   0.70738   0.99874   0.00000  Uiso   1.00
C5     C     0.40987   0.57610   0.12158   0.00000  Uiso   1.00
C6     C     0.78342   0.00805   0.80582   0.00000  Uiso   1.00
C7     C     0.77496   0.14295   0.79459   0.00000  Uiso   1.00
C8     C     0.91240   0.21746   0.80617   0.00000  Uiso   1.00
C9     C     0.10204   0.38138   0.81752   0.00000  Uiso   1.00
C10    C     0.71669   0.82497   0.73339   0.00000  Uiso   1.00
C11    C     0.65215   0.80597   0.66124   0.00000  Uiso   1.00
C12    C     0.73343   0.72636   0.61182   0.00000  Uiso   1.00
C13    C     0.81947   0.60603   0.51070   0.00000  Uiso   1.00
C14    C     0.90664   0.80065   0.83687   0.00000  Uiso   1.00
C15    C     0.76075   0.75949   0.89961   0.00000  Uiso   1.00
C16    C     0.76083   0.67394   0.97156   0.00000  Uiso   1.00
C17    C     0.61498   0.64885   0.02079   0.00000  Uiso   1.00
C18    C     0.92417   0.94963   0.82783   0.00000  Uiso   1.00
C19    C     0.06166   0.02395   0.83942   0.00000  Uiso   1.00
C20    C     0.05340   0.15893   0.82822   0.00000  Uiso   1.00
C21    C     0.85744   0.76654   0.75540   0.00000  Uiso   1.00
C22    C     0.93885   0.68696   0.70607   0.00000  Uiso   1.00
C23    C     0.87444   0.66783   0.63387   0.00000  Uiso   1.00
H24    H     0.53794   0.95370   0.77921   0.00000  Uiso   1.00
H25    H     0.36523   0.83818   0.90968   0.00000  Uiso   1.00
H26    H     0.66603   0.18814   0.77755   0.00000  Uiso   1.00
H27    H     0.54323   0.85120   0.64423   0.00000  Uiso   1.00
H28    H     0.23585   0.68438   0.06405   0.00000  Uiso   1.00
H29    H     0.87010   0.42228   0.78543   0.00000  Uiso   1.00
H30    H     0.61117   0.71178   0.50428   0.00000  Uiso   1.00
H31    H     0.01623   0.75516   0.85400   0.00000  Uiso   1.00
H32    H     0.86977   0.62874   0.98858   0.00000  Uiso   1.00
H33    H     0.17056   0.97871   0.85645   0.00000  Uiso   1.00
H34    H     0.04776   0.64176   0.72312   0.00000  Uiso   1.00
H35    H     0.64534   0.51440   0.12809   0.00000  Uiso   1.00
H36    H     0.27960   0.25231   0.84946   0.00000  Uiso   1.00
H37    H     0.02067   0.54180   0.56832   0.00000  Uiso   1.00
O38    O     0.33563   0.51985   0.18326   0.00000  Uiso   1.00
O39    O     0.16775   0.48794   0.81770   0.00000  Uiso   1.00
O40    O     0.82804   0.55578   0.44885   0.00000  Uiso   1.00
N41    N     0.35231   0.66171   0.06064   0.00000  Uiso   1.00
N42    N     0.94529   0.35160   0.80016   0.00000  Uiso   1.00
N43    N     0.70324   0.68737   0.53730   0.00000  Uiso   1.00
N44    N     0.57266   0.57024   0.09510   0.00000  Uiso   1.00
N45    N     0.16564   0.26013   0.83462   0.00000  Uiso   1.00
N46    N     0.92359   0.59590   0.57176   0.00000  Uiso   1.00
C47    C     0.35249   0.09179   0.20365   0.00000  Uiso   1.00
C48    C     0.38000   0.18210   0.12240   0.00000  Uiso   1.00
C49    C     0.52587   0.20706   0.07327   0.00000  Uiso   1.00
C50    C     0.52602   0.29262   0.00126   0.00000  Uiso   1.00
C51    C     0.59013   0.42390   0.87842   0.00000  Uiso   1.00
C52    C     0.21658   0.99195   0.19418   0.00000  Uiso   1.00
C53    C     0.22504   0.85705   0.20541   0.00000  Uiso   1.00
C54    C     0.08760   0.78254   0.19383   0.00000  Uiso   1.00
C55    C     0.89796   0.61862   0.18248   0.00000  Uiso   1.00
C56    C     0.28331   0.17503   0.26661   0.00000  Uiso   1.00
C57    C     0.34785   0.19403   0.33876   0.00000  Uiso   1.00
C58    C     0.26657   0.27364   0.38818   0.00000  Uiso   1.00
C59    C     0.18053   0.39397   0.48930   0.00000  Uiso   1.00
C60    C     0.09336   0.19935   0.16313   0.00000  Uiso   1.00
C61    C     0.23925   0.24051   0.10039   0.00000  Uiso   1.00
C62    C     0.23917   0.32606   0.02844   0.00000  Uiso   1.00
C63    C     0.38502   0.35115   0.97921   0.00000  Uiso   1.00
C64    C     0.07583   0.05037   0.17217   0.00000  Uiso   1.00
C65    C     0.93834   0.97605   0.16058   0.00000  Uiso   1.00
C66    C     0.94660   0.84107   0.17178   0.00000  Uiso   1.00
C67    C     0.14256   0.23346   0.24460   0.00000  Uiso   1.00
C68    C     0.06115   0.31304   0.29393   0.00000  Uiso   1.00
C69    C     0.12556   0.33217   0.36613   0.00000  Uiso   1.00
H70    H     0.46206   0.04630   0.22079   0.00000  Uiso   1.00
H71    H     0.63477   0.16182   0.09032   0.00000  Uiso   1.00
H72    H     0.33397   0.81186   0.22245   0.00000  Uiso   1.00
H73    H     0.45677   0.14880   0.35577   0.00000  Uiso   1.00
H74    H     0.76415   0.31562   0.93595   0.00000  Uiso   1.00
H75    H     0.12990   0.57772   0.21457   0.00000  Uiso   1.00
H76    H     0.38883   0.28822   0.49572   0.00000  Uiso   1.00
H77    H     0.98377   0.24484   0.14600   0.00000  Uiso   1.00
H78    H     0.13023   0.37126   0.01142   0.00000  Uiso   1.00
H79    H     0.82944   0.02129   0.14355   0.00000  Uiso   1.00
H80    H     0.95224   0.35824   0.27688   0.00000  Uiso   1.00
H81    H     0.35466   0.48560   0.87191   0.00000  Uiso   1.00
H82    H     0.72040   0.74769   0.15054   0.00000  Uiso   1.00
H83    H     0.97933   0.45820   0.43168   0.00000  Uiso   1.00
O84    O     0.66437   0.48015   0.81674   0.00000  Uiso   1.00
O85    O     0.83225   0.51206   0.18230   0.00000  Uiso   1.00
O86    O     0.17196   0.44422   0.55115   0.00000  Uiso   1.00
N87    N     0.64769   0.33829   0.93936   0.00000  Uiso   1.00
N88    N     0.05471   0.64840   0.19984   0.00000  Uiso   1.00
N89    N     0.29676   0.31263   0.46270   0.00000  Uiso   1.00
N90    N     0.42734   0.42976   0.90490   0.00000  Uiso   1.00
N91    N     0.83436   0.73987   0.16538   0.00000  Uiso   1.00
N92    N     0.07641   0.40410   0.42824   0.00000  Uiso   1.00
