data_job_05455
_audit_creation_date              2018-12-19
_audit_creation_method            'Materials Studio'
_symmetry_space_group_name_H-M    'P1'
_symmetry_Int_Tables_number       1
_symmetry_cell_setting            triclinic
loop_
_symmetry_equiv_pos_as_xyz
  x,y,z
_cell_length_a                    25.7996
_cell_length_b                    19.1702
_cell_length_c                    10.5575
_cell_angle_alpha                 90.0000
_cell_angle_beta                  94.5123
_cell_angle_gamma                 90.0000
loop_
_atom_site_label
_atom_site_type_symbol
_atom_site_fract_x
_atom_site_fract_y
_atom_site_fract_z
_atom_site_U_iso_or_equiv
_atom_site_adp_type
_atom_site_occupancy
C1     C     0.59362   0.82220   0.90676   0.00000  Uiso   1.00
C2     C     0.58676   0.75193   0.83986   0.00000  Uiso   1.00
C3     C     0.59897   0.73739   0.71693   0.00000  Uiso   1.00
C4     C     0.58982   0.66988   0.67310   0.00000  Uiso   1.00
C5     C     0.58228   0.56854   0.55756   0.00000  Uiso   1.00
C6     C     0.54023   0.84180   0.94827   0.00000  Uiso   1.00
C7     C     0.51334   0.90283   0.91650   0.00000  Uiso   1.00
C8     C     0.46501   0.91098   0.96395   0.00000  Uiso   1.00
C9     C     0.38526   0.94919   0.01680   0.00000  Uiso   1.00
C10    C     0.62784   0.80844   0.02862   0.00000  Uiso   1.00
C11    C     0.67459   0.84143   0.06443   0.00000  Uiso   1.00
C12    C     0.70002   0.82150   0.17954   0.00000  Uiso   1.00
C13    C     0.75628   0.80792   0.35714   0.00000  Uiso   1.00
C14    C     0.55564   0.72817   0.04753   0.00000  Uiso   1.00
C15    C     0.56613   0.70086   0.91632   0.00000  Uiso   1.00
C16    C     0.55695   0.63335   0.87267   0.00000  Uiso   1.00
C17    C     0.56915   0.61871   0.74969   0.00000  Uiso   1.00
C18    C     0.51960   0.79073   0.02473   0.00000  Uiso   1.00
C19    C     0.47131   0.79879   0.07224   0.00000  Uiso   1.00
C20    C     0.44434   0.85981   0.04054   0.00000  Uiso   1.00
C21    C     0.60721   0.75737   0.10508   0.00000  Uiso   1.00
C22    C     0.63257   0.73739   0.22017   0.00000  Uiso   1.00
C23    C     0.67935   0.77034   0.25614   0.00000  Uiso   1.00
H24    H     0.60968   0.86197   0.84724   0.00000  Uiso   1.00
H25    H     0.61494   0.77693   0.65778   0.00000  Uiso   1.00
H26    H     0.52931   0.94235   0.85734   0.00000  Uiso   1.00
H27    H     0.69054   0.88095   0.00523   0.00000  Uiso   1.00
H28    H     0.61165   0.66013   0.48143   0.00000  Uiso   1.00
H29    H     0.43111   0.00893   0.90224   0.00000  Uiso   1.00
H30    H     0.77110   0.87947   0.21412   0.00000  Uiso   1.00
H31    H     0.53957   0.68841   0.10707   0.00000  Uiso   1.00
H32    H     0.54098   0.59384   0.93186   0.00000  Uiso   1.00
H33    H     0.45536   0.75926   0.13142   0.00000  Uiso   1.00
H34    H     0.61659   0.69786   0.27932   0.00000  Uiso   1.00
H35    H     0.55162   0.51152   0.70389   0.00000  Uiso   1.00
H36    H     0.37109   0.86034   0.12470   0.00000  Uiso   1.00
H37    H     0.71107   0.73087   0.43658   0.00000  Uiso   1.00
O38    O     0.58381   0.52675   0.47271   0.00000  Uiso   1.00
O39    O     0.34696   0.98438   0.02481   0.00000  Uiso   1.00
O40    O     0.79301   0.81453   0.43398   0.00000  Uiso   1.00
N41    N     0.59734   0.63813   0.55784   0.00000  Uiso   1.00
N42    N     0.42854   0.96424   0.95126   0.00000  Uiso   1.00
N43    N     0.74639   0.84322   0.24285   0.00000  Uiso   1.00
N44    N     0.56504   0.55816   0.67754   0.00000  Uiso   1.00
N45    N     0.39625   0.88428   0.07096   0.00000  Uiso   1.00
N46    N     0.71410   0.76325   0.36255   0.00000  Uiso   1.00
C47    C     0.09362   0.32220   0.90676   0.00000  Uiso   1.00
C48    C     0.08676   0.25193   0.83986   0.00000  Uiso   1.00
C49    C     0.09897   0.23739   0.71693   0.00000  Uiso   1.00
C50    C     0.08982   0.16988   0.67310   0.00000  Uiso   1.00
C51    C     0.08228   0.06854   0.55756   0.00000  Uiso   1.00
C52    C     0.04023   0.34180   0.94827   0.00000  Uiso   1.00
C53    C     0.01334   0.40283   0.91650   0.00000  Uiso   1.00
C54    C     0.96501   0.41098   0.96395   0.00000  Uiso   1.00
C55    C     0.88526   0.44919   0.01680   0.00000  Uiso   1.00
C56    C     0.12784   0.30844   0.02862   0.00000  Uiso   1.00
C57    C     0.17459   0.34143   0.06443   0.00000  Uiso   1.00
C58    C     0.20002   0.32150   0.17954   0.00000  Uiso   1.00
C59    C     0.25628   0.30792   0.35714   0.00000  Uiso   1.00
C60    C     0.05564   0.22817   0.04753   0.00000  Uiso   1.00
C61    C     0.06613   0.20086   0.91632   0.00000  Uiso   1.00
C62    C     0.05695   0.13335   0.87267   0.00000  Uiso   1.00
C63    C     0.06915   0.11871   0.74969   0.00000  Uiso   1.00
C64    C     0.01960   0.29073   0.02473   0.00000  Uiso   1.00
C65    C     0.97131   0.29879   0.07224   0.00000  Uiso   1.00
C66    C     0.94434   0.35981   0.04054   0.00000  Uiso   1.00
C67    C     0.10721   0.25737   0.10508   0.00000  Uiso   1.00
C68    C     0.13257   0.23739   0.22017   0.00000  Uiso   1.00
C69    C     0.17935   0.27034   0.25614   0.00000  Uiso   1.00
H70    H     0.10968   0.36197   0.84724   0.00000  Uiso   1.00
H71    H     0.11494   0.27693   0.65778   0.00000  Uiso   1.00
H72    H     0.02931   0.44235   0.85734   0.00000  Uiso   1.00
H73    H     0.19054   0.38095   0.00523   0.00000  Uiso   1.00
H74    H     0.11165   0.16013   0.48143   0.00000  Uiso   1.00
H75    H     0.93111   0.50893   0.90224   0.00000  Uiso   1.00
H76    H     0.27110   0.37947   0.21412   0.00000  Uiso   1.00
H77    H     0.03957   0.18841   0.10707   0.00000  Uiso   1.00
H78    H     0.04098   0.09384   0.93186   0.00000  Uiso   1.00
H79    H     0.95536   0.25926   0.13142   0.00000  Uiso   1.00
H80    H     0.11659   0.19786   0.27932   0.00000  Uiso   1.00
H81    H     0.05162   0.01152   0.70389   0.00000  Uiso   1.00
H82    H     0.87109   0.36034   0.12470   0.00000  Uiso   1.00
H83    H     0.21107   0.23087   0.43658   0.00000  Uiso   1.00
O84    O     0.08381   0.02675   0.47271   0.00000  Uiso   1.00
O85    O     0.84696   0.48438   0.02481   0.00000  Uiso   1.00
O86    O     0.29301   0.31453   0.43398   0.00000  Uiso   1.00
N87    N     0.09734   0.13813   0.55784   0.00000  Uiso   1.00
N88    N     0.92854   0.46424   0.95126   0.00000  Uiso   1.00
N89    N     0.24639   0.34322   0.24285   0.00000  Uiso   1.00
N90    N     0.06504   0.05816   0.67754   0.00000  Uiso   1.00
N91    N     0.89625   0.38428   0.07096   0.00000  Uiso   1.00
N92    N     0.21410   0.26325   0.36255   0.00000  Uiso   1.00
C93    C     0.40638   0.82220   0.59324   0.00000  Uiso   1.00
C94    C     0.41324   0.75193   0.66014   0.00000  Uiso   1.00
C95    C     0.40103   0.73739   0.78307   0.00000  Uiso   1.00
C96    C     0.41018   0.66988   0.82690   0.00000  Uiso   1.00
C97    C     0.41772   0.56854   0.94244   0.00000  Uiso   1.00
C98    C     0.45977   0.84180   0.55173   0.00000  Uiso   1.00
C99    C     0.48666   0.90283   0.58350   0.00000  Uiso   1.00
C100   C     0.53499   0.91098   0.53605   0.00000  Uiso   1.00
C101   C     0.61474   0.94919   0.48320   0.00000  Uiso   1.00
C102   C     0.37216   0.80844   0.47138   0.00000  Uiso   1.00
C103   C     0.32541   0.84143   0.43557   0.00000  Uiso   1.00
C104   C     0.29998   0.82150   0.32046   0.00000  Uiso   1.00
C105   C     0.24372   0.80792   0.14286   0.00000  Uiso   1.00
C106   C     0.44436   0.72817   0.45247   0.00000  Uiso   1.00
C107   C     0.43387   0.70086   0.58368   0.00000  Uiso   1.00
C108   C     0.44305   0.63335   0.62733   0.00000  Uiso   1.00
C109   C     0.43085   0.61871   0.75031   0.00000  Uiso   1.00
C110   C     0.48040   0.79073   0.47527   0.00000  Uiso   1.00
C111   C     0.52869   0.79879   0.42776   0.00000  Uiso   1.00
C112   C     0.55566   0.85981   0.45946   0.00000  Uiso   1.00
C113   C     0.39279   0.75737   0.39492   0.00000  Uiso   1.00
C114   C     0.36743   0.73739   0.27983   0.00000  Uiso   1.00
C115   C     0.32065   0.77034   0.24386   0.00000  Uiso   1.00
H116   H     0.39032   0.86197   0.65276   0.00000  Uiso   1.00
H117   H     0.38506   0.77693   0.84222   0.00000  Uiso   1.00
H118   H     0.47069   0.94235   0.64266   0.00000  Uiso   1.00
H119   H     0.30946   0.88095   0.49477   0.00000  Uiso   1.00
H120   H     0.38835   0.66013   0.01857   0.00000  Uiso   1.00
H121   H     0.56889   0.00893   0.59776   0.00000  Uiso   1.00
H122   H     0.22890   0.87947   0.28588   0.00000  Uiso   1.00
H123   H     0.46043   0.68841   0.39293   0.00000  Uiso   1.00
H124   H     0.45902   0.59384   0.56814   0.00000  Uiso   1.00
H125   H     0.54464   0.75926   0.36858   0.00000  Uiso   1.00
H126   H     0.38341   0.69786   0.22068   0.00000  Uiso   1.00
H127   H     0.44838   0.51152   0.79611   0.00000  Uiso   1.00
H128   H     0.62891   0.86034   0.37530   0.00000  Uiso   1.00
H129   H     0.28893   0.73087   0.06342   0.00000  Uiso   1.00
O130   O     0.41619   0.52675   0.02729   0.00000  Uiso   1.00
O131   O     0.65304   0.98438   0.47519   0.00000  Uiso   1.00
O132   O     0.20699   0.81453   0.06602   0.00000  Uiso   1.00
N133   N     0.40266   0.63813   0.94216   0.00000  Uiso   1.00
N134   N     0.57146   0.96424   0.54874   0.00000  Uiso   1.00
N135   N     0.25361   0.84322   0.25715   0.00000  Uiso   1.00
N136   N     0.43496   0.55816   0.82246   0.00000  Uiso   1.00
N137   N     0.60375   0.88428   0.42904   0.00000  Uiso   1.00
N138   N     0.28590   0.76325   0.13745   0.00000  Uiso   1.00
C139   C     0.90638   0.32220   0.59324   0.00000  Uiso   1.00
C140   C     0.91324   0.25193   0.66014   0.00000  Uiso   1.00
C141   C     0.90103   0.23739   0.78307   0.00000  Uiso   1.00
C142   C     0.91018   0.16988   0.82690   0.00000  Uiso   1.00
C143   C     0.91772   0.06854   0.94244   0.00000  Uiso   1.00
C144   C     0.95977   0.34180   0.55173   0.00000  Uiso   1.00
C145   C     0.98666   0.40283   0.58350   0.00000  Uiso   1.00
C146   C     0.03499   0.41098   0.53605   0.00000  Uiso   1.00
C147   C     0.11474   0.44919   0.48320   0.00000  Uiso   1.00
C148   C     0.87216   0.30844   0.47138   0.00000  Uiso   1.00
C149   C     0.82541   0.34143   0.43557   0.00000  Uiso   1.00
C150   C     0.79998   0.32150   0.32046   0.00000  Uiso   1.00
C151   C     0.74372   0.30792   0.14286   0.00000  Uiso   1.00
C152   C     0.94436   0.22817   0.45247   0.00000  Uiso   1.00
C153   C     0.93387   0.20086   0.58368   0.00000  Uiso   1.00
C154   C     0.94305   0.13335   0.62733   0.00000  Uiso   1.00
C155   C     0.93085   0.11871   0.75031   0.00000  Uiso   1.00
C156   C     0.98040   0.29073   0.47527   0.00000  Uiso   1.00
C157   C     0.02869   0.29879   0.42776   0.00000  Uiso   1.00
C158   C     0.05566   0.35981   0.45946   0.00000  Uiso   1.00
C159   C     0.89279   0.25737   0.39492   0.00000  Uiso   1.00
C160   C     0.86743   0.23739   0.27983   0.00000  Uiso   1.00
C161   C     0.82065   0.27034   0.24386   0.00000  Uiso   1.00
H162   H     0.89032   0.36197   0.65276   0.00000  Uiso   1.00
H163   H     0.88506   0.27693   0.84222   0.00000  Uiso   1.00
H164   H     0.97069   0.44235   0.64266   0.00000  Uiso   1.00
H165   H     0.80946   0.38095   0.49477   0.00000  Uiso   1.00
H166   H     0.88835   0.16013   0.01857   0.00000  Uiso   1.00
H167   H     0.06889   0.50893   0.59776   0.00000  Uiso   1.00
H168   H     0.72890   0.37947   0.28588   0.00000  Uiso   1.00
H169   H     0.96043   0.18841   0.39293   0.00000  Uiso   1.00
H170   H     0.95902   0.09384   0.56814   0.00000  Uiso   1.00
H171   H     0.04464   0.25926   0.36858   0.00000  Uiso   1.00
H172   H     0.88341   0.19786   0.22068   0.00000  Uiso   1.00
H173   H     0.94838   0.01152   0.79611   0.00000  Uiso   1.00
H174   H     0.12891   0.36034   0.37530   0.00000  Uiso   1.00
H175   H     0.78893   0.23087   0.06342   0.00000  Uiso   1.00
O176   O     0.91619   0.02675   0.02729   0.00000  Uiso   1.00
O177   O     0.15304   0.48438   0.47519   0.00000  Uiso   1.00
O178   O     0.70699   0.31453   0.06602   0.00000  Uiso   1.00
N179   N     0.90266   0.13813   0.94216   0.00000  Uiso   1.00
N180   N     0.07146   0.46424   0.54874   0.00000  Uiso   1.00
N181   N     0.75361   0.34322   0.25715   0.00000  Uiso   1.00
N182   N     0.93496   0.05816   0.82246   0.00000  Uiso   1.00
N183   N     0.10375   0.38428   0.42904   0.00000  Uiso   1.00
N184   N     0.78590   0.26325   0.13745   0.00000  Uiso   1.00
C185   C     0.40638   0.17780   0.09324   0.00000  Uiso   1.00
C186   C     0.41324   0.24807   0.16014   0.00000  Uiso   1.00
C187   C     0.40103   0.26261   0.28307   0.00000  Uiso   1.00
C188   C     0.41018   0.33012   0.32690   0.00000  Uiso   1.00
C189   C     0.41772   0.43146   0.44244   0.00000  Uiso   1.00
C190   C     0.45977   0.15820   0.05173   0.00000  Uiso   1.00
C191   C     0.48666   0.09717   0.08350   0.00000  Uiso   1.00
C192   C     0.53499   0.08902   0.03605   0.00000  Uiso   1.00
C193   C     0.61474   0.05081   0.98320   0.00000  Uiso   1.00
C194   C     0.37216   0.19156   0.97138   0.00000  Uiso   1.00
C195   C     0.32541   0.15857   0.93557   0.00000  Uiso   1.00
C196   C     0.29998   0.17850   0.82046   0.00000  Uiso   1.00
C197   C     0.24372   0.19208   0.64286   0.00000  Uiso   1.00
C198   C     0.44436   0.27183   0.95247   0.00000  Uiso   1.00
C199   C     0.43387   0.29914   0.08368   0.00000  Uiso   1.00
C200   C     0.44305   0.36665   0.12733   0.00000  Uiso   1.00
C201   C     0.43085   0.38129   0.25031   0.00000  Uiso   1.00
C202   C     0.48040   0.20927   0.97527   0.00000  Uiso   1.00
C203   C     0.52869   0.20121   0.92776   0.00000  Uiso   1.00
C204   C     0.55566   0.14019   0.95946   0.00000  Uiso   1.00
C205   C     0.39279   0.24263   0.89492   0.00000  Uiso   1.00
C206   C     0.36743   0.26261   0.77983   0.00000  Uiso   1.00
C207   C     0.32065   0.22966   0.74386   0.00000  Uiso   1.00
H208   H     0.39032   0.13803   0.15276   0.00000  Uiso   1.00
H209   H     0.38506   0.22307   0.34222   0.00000  Uiso   1.00
H210   H     0.47069   0.05765   0.14266   0.00000  Uiso   1.00
H211   H     0.30946   0.11905   0.99477   0.00000  Uiso   1.00
H212   H     0.38835   0.33987   0.51857   0.00000  Uiso   1.00
H213   H     0.56889   0.99107   0.09776   0.00000  Uiso   1.00
H214   H     0.22890   0.12053   0.78588   0.00000  Uiso   1.00
H215   H     0.46043   0.31159   0.89293   0.00000  Uiso   1.00
H216   H     0.45902   0.40616   0.06814   0.00000  Uiso   1.00
H217   H     0.54464   0.24074   0.86858   0.00000  Uiso   1.00
H218   H     0.38341   0.30214   0.72068   0.00000  Uiso   1.00
H219   H     0.44838   0.48848   0.29611   0.00000  Uiso   1.00
H220   H     0.62891   0.13966   0.87530   0.00000  Uiso   1.00
H221   H     0.28893   0.26913   0.56342   0.00000  Uiso   1.00
O222   O     0.41619   0.47325   0.52729   0.00000  Uiso   1.00
O223   O     0.65304   0.01562   0.97519   0.00000  Uiso   1.00
O224   O     0.20699   0.18547   0.56602   0.00000  Uiso   1.00
N225   N     0.40266   0.36187   0.44216   0.00000  Uiso   1.00
N226   N     0.57146   0.03576   0.04874   0.00000  Uiso   1.00
N227   N     0.25361   0.15678   0.75715   0.00000  Uiso   1.00
N228   N     0.43496   0.44184   0.32246   0.00000  Uiso   1.00
N229   N     0.60375   0.11572   0.92904   0.00000  Uiso   1.00
N230   N     0.28590   0.23675   0.63745   0.00000  Uiso   1.00
C231   C     0.90638   0.67780   0.09324   0.00000  Uiso   1.00
C232   C     0.91324   0.74807   0.16014   0.00000  Uiso   1.00
C233   C     0.90103   0.76261   0.28307   0.00000  Uiso   1.00
C234   C     0.91018   0.83012   0.32690   0.00000  Uiso   1.00
C235   C     0.91772   0.93146   0.44244   0.00000  Uiso   1.00
C236   C     0.95977   0.65820   0.05173   0.00000  Uiso   1.00
C237   C     0.98666   0.59717   0.08350   0.00000  Uiso   1.00
C238   C     0.03499   0.58902   0.03605   0.00000  Uiso   1.00
C239   C     0.11474   0.55081   0.98320   0.00000  Uiso   1.00
C240   C     0.87216   0.69156   0.97138   0.00000  Uiso   1.00
C241   C     0.82541   0.65857   0.93557   0.00000  Uiso   1.00
C242   C     0.79998   0.67850   0.82046   0.00000  Uiso   1.00
C243   C     0.74372   0.69208   0.64286   0.00000  Uiso   1.00
C244   C     0.94436   0.77183   0.95247   0.00000  Uiso   1.00
C245   C     0.93387   0.79914   0.08368   0.00000  Uiso   1.00
C246   C     0.94305   0.86665   0.12733   0.00000  Uiso   1.00
C247   C     0.93085   0.88129   0.25031   0.00000  Uiso   1.00
C248   C     0.98040   0.70927   0.97527   0.00000  Uiso   1.00
C249   C     0.02869   0.70121   0.92776   0.00000  Uiso   1.00
C250   C     0.05566   0.64019   0.95946   0.00000  Uiso   1.00
C251   C     0.89279   0.74263   0.89492   0.00000  Uiso   1.00
C252   C     0.86743   0.76261   0.77983   0.00000  Uiso   1.00
C253   C     0.82065   0.72966   0.74386   0.00000  Uiso   1.00
H254   H     0.89032   0.63803   0.15276   0.00000  Uiso   1.00
H255   H     0.88506   0.72307   0.34222   0.00000  Uiso   1.00
H256   H     0.97069   0.55765   0.14266   0.00000  Uiso   1.00
H257   H     0.80946   0.61905   0.99477   0.00000  Uiso   1.00
H258   H     0.88835   0.83987   0.51857   0.00000  Uiso   1.00
H259   H     0.06889   0.49107   0.09776   0.00000  Uiso   1.00
H260   H     0.72890   0.62053   0.78588   0.00000  Uiso   1.00
H261   H     0.96043   0.81159   0.89293   0.00000  Uiso   1.00
H262   H     0.95902   0.90616   0.06814   0.00000  Uiso   1.00
H263   H     0.04464   0.74074   0.86858   0.00000  Uiso   1.00
H264   H     0.88341   0.80214   0.72068   0.00000  Uiso   1.00
H265   H     0.94838   0.98848   0.29611   0.00000  Uiso   1.00
H266   H     0.12891   0.63966   0.87530   0.00000  Uiso   1.00
H267   H     0.78893   0.76913   0.56342   0.00000  Uiso   1.00
O268   O     0.91619   0.97325   0.52729   0.00000  Uiso   1.00
O269   O     0.15304   0.51562   0.97519   0.00000  Uiso   1.00
O270   O     0.70699   0.68547   0.56602   0.00000  Uiso   1.00
N271   N     0.90266   0.86187   0.44216   0.00000  Uiso   1.00
N272   N     0.07146   0.53576   0.04874   0.00000  Uiso   1.00
N273   N     0.75361   0.65678   0.75715   0.00000  Uiso   1.00
N274   N     0.93496   0.94184   0.32246   0.00000  Uiso   1.00
N275   N     0.10375   0.61572   0.92904   0.00000  Uiso   1.00
N276   N     0.78590   0.73675   0.63745   0.00000  Uiso   1.00
C277   C     0.59362   0.17780   0.40676   0.00000  Uiso   1.00
C278   C     0.58676   0.24807   0.33986   0.00000  Uiso   1.00
C279   C     0.59897   0.26261   0.21693   0.00000  Uiso   1.00
C280   C     0.58982   0.33012   0.17310   0.00000  Uiso   1.00
C281   C     0.58228   0.43146   0.05756   0.00000  Uiso   1.00
C282   C     0.54023   0.15820   0.44827   0.00000  Uiso   1.00
C283   C     0.51334   0.09717   0.41650   0.00000  Uiso   1.00
C284   C     0.46501   0.08902   0.46395   0.00000  Uiso   1.00
C285   C     0.38526   0.05081   0.51680   0.00000  Uiso   1.00
C286   C     0.62784   0.19156   0.52862   0.00000  Uiso   1.00
C287   C     0.67459   0.15857   0.56443   0.00000  Uiso   1.00
C288   C     0.70002   0.17850   0.67954   0.00000  Uiso   1.00
C289   C     0.75628   0.19208   0.85714   0.00000  Uiso   1.00
C290   C     0.55564   0.27183   0.54753   0.00000  Uiso   1.00
C291   C     0.56613   0.29914   0.41632   0.00000  Uiso   1.00
C292   C     0.55695   0.36665   0.37267   0.00000  Uiso   1.00
C293   C     0.56915   0.38129   0.24969   0.00000  Uiso   1.00
C294   C     0.51960   0.20927   0.52473   0.00000  Uiso   1.00
C295   C     0.47131   0.20121   0.57224   0.00000  Uiso   1.00
C296   C     0.44434   0.14019   0.54054   0.00000  Uiso   1.00
C297   C     0.60721   0.24263   0.60508   0.00000  Uiso   1.00
C298   C     0.63257   0.26261   0.72017   0.00000  Uiso   1.00
C299   C     0.67935   0.22966   0.75614   0.00000  Uiso   1.00
H300   H     0.60968   0.13803   0.34724   0.00000  Uiso   1.00
H301   H     0.61494   0.22307   0.15778   0.00000  Uiso   1.00
H302   H     0.52931   0.05765   0.35734   0.00000  Uiso   1.00
H303   H     0.69054   0.11905   0.50523   0.00000  Uiso   1.00
H304   H     0.61165   0.33987   0.98143   0.00000  Uiso   1.00
H305   H     0.43111   0.99107   0.40224   0.00000  Uiso   1.00
H306   H     0.77110   0.12053   0.71412   0.00000  Uiso   1.00
H307   H     0.53957   0.31159   0.60707   0.00000  Uiso   1.00
H308   H     0.54098   0.40616   0.43186   0.00000  Uiso   1.00
H309   H     0.45536   0.24074   0.63142   0.00000  Uiso   1.00
H310   H     0.61659   0.30214   0.77932   0.00000  Uiso   1.00
H311   H     0.55162   0.48848   0.20389   0.00000  Uiso   1.00
H312   H     0.37109   0.13966   0.62470   0.00000  Uiso   1.00
H313   H     0.71107   0.26913   0.93658   0.00000  Uiso   1.00
O314   O     0.58381   0.47325   0.97271   0.00000  Uiso   1.00
O315   O     0.34696   0.01562   0.52481   0.00000  Uiso   1.00
O316   O     0.79301   0.18547   0.93398   0.00000  Uiso   1.00
N317   N     0.59734   0.36187   0.05784   0.00000  Uiso   1.00
N318   N     0.42854   0.03576   0.45126   0.00000  Uiso   1.00
N319   N     0.74639   0.15678   0.74285   0.00000  Uiso   1.00
N320   N     0.56504   0.44184   0.17754   0.00000  Uiso   1.00
N321   N     0.39625   0.11572   0.57096   0.00000  Uiso   1.00
N322   N     0.71410   0.23675   0.86255   0.00000  Uiso   1.00
C323   C     0.09362   0.67780   0.40676   0.00000  Uiso   1.00
C324   C     0.08676   0.74807   0.33986   0.00000  Uiso   1.00
C325   C     0.09897   0.76261   0.21693   0.00000  Uiso   1.00
C326   C     0.08982   0.83012   0.17310   0.00000  Uiso   1.00
C327   C     0.08228   0.93146   0.05756   0.00000  Uiso   1.00
C328   C     0.04023   0.65820   0.44827   0.00000  Uiso   1.00
C329   C     0.01334   0.59717   0.41650   0.00000  Uiso   1.00
C330   C     0.96501   0.58902   0.46395   0.00000  Uiso   1.00
C331   C     0.88526   0.55081   0.51680   0.00000  Uiso   1.00
C332   C     0.12784   0.69156   0.52862   0.00000  Uiso   1.00
C333   C     0.17459   0.65857   0.56443   0.00000  Uiso   1.00
C334   C     0.20002   0.67850   0.67954   0.00000  Uiso   1.00
C335   C     0.25628   0.69208   0.85714   0.00000  Uiso   1.00
C336   C     0.05564   0.77183   0.54753   0.00000  Uiso   1.00
C337   C     0.06613   0.79914   0.41632   0.00000  Uiso   1.00
C338   C     0.05695   0.86665   0.37267   0.00000  Uiso   1.00
C339   C     0.06915   0.88129   0.24969   0.00000  Uiso   1.00
C340   C     0.01960   0.70927   0.52473   0.00000  Uiso   1.00
C341   C     0.97131   0.70121   0.57224   0.00000  Uiso   1.00
C342   C     0.94434   0.64019   0.54054   0.00000  Uiso   1.00
C343   C     0.10721   0.74263   0.60508   0.00000  Uiso   1.00
C344   C     0.13257   0.76261   0.72017   0.00000  Uiso   1.00
C345   C     0.17935   0.72966   0.75614   0.00000  Uiso   1.00
H346   H     0.10968   0.63803   0.34724   0.00000  Uiso   1.00
H347   H     0.11494   0.72307   0.15778   0.00000  Uiso   1.00
H348   H     0.02931   0.55765   0.35734   0.00000  Uiso   1.00
H349   H     0.19054   0.61905   0.50523   0.00000  Uiso   1.00
H350   H     0.11165   0.83987   0.98143   0.00000  Uiso   1.00
H351   H     0.93111   0.49107   0.40224   0.00000  Uiso   1.00
H352   H     0.27110   0.62053   0.71412   0.00000  Uiso   1.00
H353   H     0.03957   0.81159   0.60707   0.00000  Uiso   1.00
H354   H     0.04098   0.90616   0.43186   0.00000  Uiso   1.00
H355   H     0.95536   0.74074   0.63142   0.00000  Uiso   1.00
H356   H     0.11659   0.80214   0.77932   0.00000  Uiso   1.00
H357   H     0.05162   0.98848   0.20389   0.00000  Uiso   1.00
H358   H     0.87109   0.63966   0.62470   0.00000  Uiso   1.00
H359   H     0.21107   0.76913   0.93658   0.00000  Uiso   1.00
O360   O     0.08381   0.97325   0.97271   0.00000  Uiso   1.00
O361   O     0.84696   0.51562   0.52481   0.00000  Uiso   1.00
O362   O     0.29301   0.68547   0.93398   0.00000  Uiso   1.00
N363   N     0.09734   0.86187   0.05784   0.00000  Uiso   1.00
N364   N     0.92854   0.53576   0.45126   0.00000  Uiso   1.00
N365   N     0.24639   0.65678   0.74285   0.00000  Uiso   1.00
N366   N     0.06504   0.94184   0.17754   0.00000  Uiso   1.00
N367   N     0.89625   0.61572   0.57096   0.00000  Uiso   1.00
N368   N     0.21410   0.73675   0.86255   0.00000  Uiso   1.00
