data_job_01748
_audit_creation_date              2018-12-19
_audit_creation_method            'Materials Studio'
_symmetry_space_group_name_H-M    'P1'
_symmetry_Int_Tables_number       1
_symmetry_cell_setting            triclinic
loop_
_symmetry_equiv_pos_as_xyz
  x,y,z
_cell_length_a                    12.1646
_cell_length_b                    12.1646
_cell_length_c                    32.0793
_cell_angle_alpha                 90.0000
_cell_angle_beta                  90.0000
_cell_angle_gamma                 120.0000
loop_
_atom_site_label
_atom_site_type_symbol
_atom_site_fract_x
_atom_site_fract_y
_atom_site_fract_z
_atom_site_U_iso_or_equiv
_atom_site_adp_type
_atom_site_occupancy
C1     C     0.22038   0.39487   0.16631   0.00000  Uiso   1.00
C2     C     0.30764   0.46074   0.20329   0.00000  Uiso   1.00
C3     C     0.36766   0.58971   0.21193   0.00000  Uiso   1.00
C4     C     0.44364   0.63137   0.24727   0.00000  Uiso   1.00
C5     C     0.57685   0.74648   0.30076   0.00000  Uiso   1.00
C6     C     0.27750   0.32540   0.14337   0.00000  Uiso   1.00
C7     C     0.31216   0.34057   0.10164   0.00000  Uiso   1.00
C8     C     0.36275   0.26829   0.08654   0.00000  Uiso   1.00
C9     C     0.44908   0.17322   0.04701   0.00000  Uiso   1.00
C10    C     0.09535   0.29202   0.18473   0.00000  Uiso   1.00
C11    C     0.97684   0.27909   0.17776   0.00000  Uiso   1.00
C12    C     0.87406   0.17867   0.19748   0.00000  Uiso   1.00
C13    C     0.67757   0.03177   0.22216   0.00000  Uiso   1.00
C14    C     0.24858   0.23951   0.21369   0.00000  Uiso   1.00
C15    C     0.32295   0.37635   0.22902   0.00000  Uiso   1.00
C16    C     0.39886   0.41782   0.26435   0.00000  Uiso   1.00
C17    C     0.45898   0.54683   0.27305   0.00000  Uiso   1.00
C18    C     0.29281   0.24102   0.16910   0.00000  Uiso   1.00
C19    C     0.34335   0.16869   0.15406   0.00000  Uiso   1.00
C20    C     0.37809   0.18375   0.11232   0.00000  Uiso   1.00
C21    C     0.11066   0.20763   0.21046   0.00000  Uiso   1.00
C22    C     0.00804   0.10721   0.23019   0.00000  Uiso   1.00
C23    C     0.88940   0.09413   0.22325   0.00000  Uiso   1.00
H24    H     0.20847   0.46057   0.14627   0.00000  Uiso   1.00
H25    H     0.35580   0.65499   0.19201   0.00000  Uiso   1.00
H26    H     0.30029   0.40588   0.08173   0.00000  Uiso   1.00
H27    H     0.96503   0.34441   0.15785   0.00000  Uiso   1.00
H28    H     0.52594   0.83332   0.25406   0.00000  Uiso   1.00
H29    H     0.40885   0.30803   0.02153   0.00000  Uiso   1.00
H30    H     0.70188   0.17842   0.18203   0.00000  Uiso   1.00
H31    H     0.26050   0.17381   0.23372   0.00000  Uiso   1.00
H32    H     0.41069   0.35249   0.28426   0.00000  Uiso   1.00
H33    H     0.35518   0.10339   0.17398   0.00000  Uiso   1.00
H34    H     0.01992   0.04192   0.25010   0.00000  Uiso   1.00
H35    H     0.57050   0.58781   0.32893   0.00000  Uiso   1.00
H36    H     0.45341   0.06252   0.09641   0.00000  Uiso   1.00
H37    H     0.74644   0.93290   0.25691   0.00000  Uiso   1.00
O38    O     0.64611   0.83329   0.32316   0.00000  Uiso   1.00
O39    O     0.49248   0.14412   0.01809   0.00000  Uiso   1.00
O40    O     0.56496   0.97407   0.22866   0.00000  Uiso   1.00
N41    N     0.51579   0.75102   0.26475   0.00000  Uiso   1.00
N42    N     0.40634   0.25992   0.04735   0.00000  Uiso   1.00
N43    N     0.74538   0.13872   0.19740   0.00000  Uiso   1.00
N44    N     0.53977   0.61891   0.30504   0.00000  Uiso   1.00
N45    N     0.43032   0.12781   0.08764   0.00000  Uiso   1.00
N46    N     0.76936   0.00661   0.23769   0.00000  Uiso   1.00
C47    C     0.60513   0.82551   0.83297   0.00000  Uiso   1.00
C48    C     0.53926   0.84690   0.86995   0.00000  Uiso   1.00
C49    C     0.41029   0.77796   0.87860   0.00000  Uiso   1.00
C50    C     0.36863   0.81228   0.91394   0.00000  Uiso   1.00
C51    C     0.25352   0.83037   0.96743   0.00000  Uiso   1.00
C52    C     0.67460   0.95210   0.81004   0.00000  Uiso   1.00
C53    C     0.65943   0.97159   0.76831   0.00000  Uiso   1.00
C54    C     0.73171   0.09446   0.75321   0.00000  Uiso   1.00
C55    C     0.82678   0.27585   0.71367   0.00000  Uiso   1.00
C56    C     0.70798   0.80333   0.85140   0.00000  Uiso   1.00
C57    C     0.72091   0.69775   0.84443   0.00000  Uiso   1.00
C58    C     0.82133   0.69539   0.86414   0.00000  Uiso   1.00
C59    C     0.96823   0.64579   0.88882   0.00000  Uiso   1.00
C60    C     0.76049   0.00907   0.88035   0.00000  Uiso   1.00
C61    C     0.62365   0.94661   0.89569   0.00000  Uiso   1.00
C62    C     0.58218   0.98104   0.93102   0.00000  Uiso   1.00
C63    C     0.45317   0.91215   0.93972   0.00000  Uiso   1.00
C64    C     0.75898   0.05180   0.83577   0.00000  Uiso   1.00
C65    C     0.83131   0.17467   0.82073   0.00000  Uiso   1.00
C66    C     0.81625   0.19434   0.77899   0.00000  Uiso   1.00
C67    C     0.79237   0.90303   0.87713   0.00000  Uiso   1.00
C68    C     0.89279   0.90083   0.89685   0.00000  Uiso   1.00
C69    C     0.90587   0.79527   0.88992   0.00000  Uiso   1.00
H70    H     0.53943   0.74790   0.81294   0.00000  Uiso   1.00
H71    H     0.34501   0.70081   0.85867   0.00000  Uiso   1.00
H72    H     0.59412   0.89441   0.74840   0.00000  Uiso   1.00
H73    H     0.65559   0.62062   0.82451   0.00000  Uiso   1.00
H74    H     0.16668   0.69261   0.92073   0.00000  Uiso   1.00
H75    H     0.69197   0.10082   0.68820   0.00000  Uiso   1.00
H76    H     0.82158   0.52347   0.84870   0.00000  Uiso   1.00
H77    H     0.82619   0.08669   0.90039   0.00000  Uiso   1.00
H78    H     0.64751   0.05820   0.95093   0.00000  Uiso   1.00
H79    H     0.89661   0.25180   0.84065   0.00000  Uiso   1.00
H80    H     0.95808   0.97800   0.91677   0.00000  Uiso   1.00
H81    H     0.41219   0.98268   0.99560   0.00000  Uiso   1.00
H82    H     0.93748   0.39089   0.76307   0.00000  Uiso   1.00
H83    H     0.06710   0.81354   0.92357   0.00000  Uiso   1.00
O84    O     0.16671   0.81282   0.98982   0.00000  Uiso   1.00
O85    O     0.85588   0.34836   0.68476   0.00000  Uiso   1.00
O86    O     0.02593   0.59089   0.89533   0.00000  Uiso   1.00
N87    N     0.24898   0.76478   0.93142   0.00000  Uiso   1.00
N88    N     0.74008   0.14643   0.71402   0.00000  Uiso   1.00
N89    N     0.86128   0.60667   0.86406   0.00000  Uiso   1.00
N90    N     0.38109   0.92086   0.97171   0.00000  Uiso   1.00
N91    N     0.87219   0.30251   0.75431   0.00000  Uiso   1.00
N92    N     0.99339   0.76275   0.90435   0.00000  Uiso   1.00
C93    C     0.17449   0.77962   0.49964   0.00000  Uiso   1.00
C94    C     0.15310   0.69236   0.53662   0.00000  Uiso   1.00
C95    C     0.22204   0.63234   0.54527   0.00000  Uiso   1.00
C96    C     0.18772   0.55636   0.58060   0.00000  Uiso   1.00
C97    C     0.16963   0.42315   0.63410   0.00000  Uiso   1.00
C98    C     0.04790   0.72250   0.47670   0.00000  Uiso   1.00
C99    C     0.02841   0.68784   0.43497   0.00000  Uiso   1.00
C100   C     0.90554   0.63725   0.41987   0.00000  Uiso   1.00
C101   C     0.72415   0.55092   0.38034   0.00000  Uiso   1.00
C102   C     0.19667   0.90465   0.51806   0.00000  Uiso   1.00
C103   C     0.30225   0.02316   0.51110   0.00000  Uiso   1.00
C104   C     0.30461   0.12594   0.53081   0.00000  Uiso   1.00
C105   C     0.35421   0.32243   0.55549   0.00000  Uiso   1.00
C106   C     0.99093   0.75142   0.54702   0.00000  Uiso   1.00
C107   C     0.05339   0.67705   0.56235   0.00000  Uiso   1.00
C108   C     0.01896   0.60114   0.59769   0.00000  Uiso   1.00
C109   C     0.08785   0.54102   0.60639   0.00000  Uiso   1.00
C110   C     0.94820   0.70719   0.50244   0.00000  Uiso   1.00
C111   C     0.82533   0.65665   0.48739   0.00000  Uiso   1.00
C112   C     0.80566   0.62191   0.44565   0.00000  Uiso   1.00
C113   C     0.09697   0.88934   0.54380   0.00000  Uiso   1.00
C114   C     0.09917   0.99196   0.56352   0.00000  Uiso   1.00
C115   C     0.20473   0.11060   0.55659   0.00000  Uiso   1.00
H116   H     0.25210   0.79153   0.47960   0.00000  Uiso   1.00
H117   H     0.29919   0.64420   0.52534   0.00000  Uiso   1.00
H118   H     0.10559   0.69971   0.41507   0.00000  Uiso   1.00
H119   H     0.37938   0.03497   0.49118   0.00000  Uiso   1.00
H120   H     0.30739   0.47406   0.58739   0.00000  Uiso   1.00
H121   H     0.89918   0.59115   0.35487   0.00000  Uiso   1.00
H122   H     0.47653   0.29812   0.51537   0.00000  Uiso   1.00
H123   H     0.91331   0.73950   0.56705   0.00000  Uiso   1.00
H124   H     0.94180   0.58931   0.61760   0.00000  Uiso   1.00
H125   H     0.74820   0.64482   0.50732   0.00000  Uiso   1.00
H126   H     0.02200   0.98008   0.58343   0.00000  Uiso   1.00
H127   H     0.01732   0.42950   0.66227   0.00000  Uiso   1.00
H128   H     0.60911   0.54659   0.42974   0.00000  Uiso   1.00
H129   H     0.18646   0.25356   0.59024   0.00000  Uiso   1.00
O130   O     0.18718   0.35389   0.65649   0.00000  Uiso   1.00
O131   O     0.65164   0.50752   0.35142   0.00000  Uiso   1.00
O132   O     0.40911   0.43504   0.56200   0.00000  Uiso   1.00
N133   N     0.23522   0.48421   0.59808   0.00000  Uiso   1.00
N134   N     0.85357   0.59366   0.38069   0.00000  Uiso   1.00
N135   N     0.39333   0.25462   0.53073   0.00000  Uiso   1.00
N136   N     0.07914   0.46023   0.63837   0.00000  Uiso   1.00
N137   N     0.69749   0.56968   0.42098   0.00000  Uiso   1.00
N138   N     0.23725   0.23064   0.57102   0.00000  Uiso   1.00
C139   C     0.39487   0.22038   0.83369   0.00000  Uiso   1.00
C140   C     0.46074   0.30764   0.79671   0.00000  Uiso   1.00
C141   C     0.58971   0.36766   0.78807   0.00000  Uiso   1.00
C142   C     0.63137   0.44364   0.75273   0.00000  Uiso   1.00
C143   C     0.74648   0.57685   0.69924   0.00000  Uiso   1.00
C144   C     0.32540   0.27750   0.85663   0.00000  Uiso   1.00
C145   C     0.34057   0.31216   0.89836   0.00000  Uiso   1.00
C146   C     0.26829   0.36275   0.91346   0.00000  Uiso   1.00
C147   C     0.17322   0.44908   0.95299   0.00000  Uiso   1.00
C148   C     0.29202   0.09535   0.81527   0.00000  Uiso   1.00
C149   C     0.27909   0.97684   0.82224   0.00000  Uiso   1.00
C150   C     0.17867   0.87406   0.80252   0.00000  Uiso   1.00
C151   C     0.03177   0.67757   0.77784   0.00000  Uiso   1.00
C152   C     0.23951   0.24858   0.78631   0.00000  Uiso   1.00
C153   C     0.37635   0.32295   0.77098   0.00000  Uiso   1.00
C154   C     0.41782   0.39886   0.73565   0.00000  Uiso   1.00
C155   C     0.54683   0.45898   0.72695   0.00000  Uiso   1.00
C156   C     0.24102   0.29281   0.83090   0.00000  Uiso   1.00
C157   C     0.16869   0.34335   0.84594   0.00000  Uiso   1.00
C158   C     0.18375   0.37809   0.88768   0.00000  Uiso   1.00
C159   C     0.20763   0.11066   0.78954   0.00000  Uiso   1.00
C160   C     0.10721   0.00804   0.76981   0.00000  Uiso   1.00
C161   C     0.09413   0.88940   0.77675   0.00000  Uiso   1.00
H162   H     0.46057   0.20847   0.85373   0.00000  Uiso   1.00
H163   H     0.65499   0.35580   0.80799   0.00000  Uiso   1.00
H164   H     0.40588   0.30029   0.91827   0.00000  Uiso   1.00
H165   H     0.34441   0.96503   0.84215   0.00000  Uiso   1.00
H166   H     0.83332   0.52594   0.74594   0.00000  Uiso   1.00
H167   H     0.30803   0.40885   0.97847   0.00000  Uiso   1.00
H168   H     0.17842   0.70188   0.81797   0.00000  Uiso   1.00
H169   H     0.17381   0.26050   0.76628   0.00000  Uiso   1.00
H170   H     0.35249   0.41069   0.71574   0.00000  Uiso   1.00
H171   H     0.10339   0.35518   0.82602   0.00000  Uiso   1.00
H172   H     0.04192   0.01992   0.74990   0.00000  Uiso   1.00
H173   H     0.58781   0.57050   0.67107   0.00000  Uiso   1.00
H174   H     0.06252   0.45341   0.90359   0.00000  Uiso   1.00
H175   H     0.93290   0.74644   0.74309   0.00000  Uiso   1.00
O176   O     0.83329   0.64611   0.67684   0.00000  Uiso   1.00
O177   O     0.14412   0.49248   0.98191   0.00000  Uiso   1.00
O178   O     0.97407   0.56496   0.77134   0.00000  Uiso   1.00
N179   N     0.75102   0.51579   0.73525   0.00000  Uiso   1.00
N180   N     0.25992   0.40634   0.95265   0.00000  Uiso   1.00
N181   N     0.13872   0.74538   0.80260   0.00000  Uiso   1.00
N182   N     0.61891   0.53977   0.69496   0.00000  Uiso   1.00
N183   N     0.12781   0.43032   0.91236   0.00000  Uiso   1.00
N184   N     0.00661   0.76936   0.76231   0.00000  Uiso   1.00
C185   C     0.82551   0.60513   0.16703   0.00000  Uiso   1.00
C186   C     0.84690   0.53926   0.13005   0.00000  Uiso   1.00
C187   C     0.77796   0.41029   0.12140   0.00000  Uiso   1.00
C188   C     0.81228   0.36863   0.08606   0.00000  Uiso   1.00
C189   C     0.83037   0.25352   0.03257   0.00000  Uiso   1.00
C190   C     0.95210   0.67460   0.18996   0.00000  Uiso   1.00
C191   C     0.97159   0.65943   0.23169   0.00000  Uiso   1.00
C192   C     0.09446   0.73171   0.24679   0.00000  Uiso   1.00
C193   C     0.27585   0.82678   0.28633   0.00000  Uiso   1.00
C194   C     0.80333   0.70798   0.14860   0.00000  Uiso   1.00
C195   C     0.69775   0.72091   0.15557   0.00000  Uiso   1.00
C196   C     0.69539   0.82133   0.13586   0.00000  Uiso   1.00
C197   C     0.64579   0.96823   0.11118   0.00000  Uiso   1.00
C198   C     0.00907   0.76049   0.11965   0.00000  Uiso   1.00
C199   C     0.94661   0.62365   0.10431   0.00000  Uiso   1.00
C200   C     0.98104   0.58218   0.06898   0.00000  Uiso   1.00
C201   C     0.91215   0.45317   0.06028   0.00000  Uiso   1.00
C202   C     0.05180   0.75898   0.16423   0.00000  Uiso   1.00
C203   C     0.17467   0.83131   0.17927   0.00000  Uiso   1.00
C204   C     0.19434   0.81625   0.22101   0.00000  Uiso   1.00
C205   C     0.90303   0.79237   0.12287   0.00000  Uiso   1.00
C206   C     0.90083   0.89279   0.10315   0.00000  Uiso   1.00
C207   C     0.79527   0.90587   0.11008   0.00000  Uiso   1.00
H208   H     0.74790   0.53943   0.18706   0.00000  Uiso   1.00
H209   H     0.70081   0.34501   0.14133   0.00000  Uiso   1.00
H210   H     0.89441   0.59412   0.25160   0.00000  Uiso   1.00
H211   H     0.62062   0.65559   0.17549   0.00000  Uiso   1.00
H212   H     0.69261   0.16668   0.07927   0.00000  Uiso   1.00
H213   H     0.10082   0.69197   0.31180   0.00000  Uiso   1.00
H214   H     0.52347   0.82158   0.15130   0.00000  Uiso   1.00
H215   H     0.08669   0.82619   0.09961   0.00000  Uiso   1.00
H216   H     0.05820   0.64751   0.04907   0.00000  Uiso   1.00
H217   H     0.25180   0.89661   0.15935   0.00000  Uiso   1.00
H218   H     0.97800   0.95808   0.08323   0.00000  Uiso   1.00
H219   H     0.98268   0.41219   0.00440   0.00000  Uiso   1.00
H220   H     0.39089   0.93748   0.23693   0.00000  Uiso   1.00
H221   H     0.81354   0.06710   0.07643   0.00000  Uiso   1.00
O222   O     0.81282   0.16671   0.01018   0.00000  Uiso   1.00
O223   O     0.34836   0.85588   0.31524   0.00000  Uiso   1.00
O224   O     0.59089   0.02593   0.10467   0.00000  Uiso   1.00
N225   N     0.76478   0.24898   0.06858   0.00000  Uiso   1.00
N226   N     0.14643   0.74008   0.28598   0.00000  Uiso   1.00
N227   N     0.60667   0.86128   0.13594   0.00000  Uiso   1.00
N228   N     0.92086   0.38109   0.02829   0.00000  Uiso   1.00
N229   N     0.30251   0.87219   0.24569   0.00000  Uiso   1.00
N230   N     0.76275   0.99339   0.09565   0.00000  Uiso   1.00
C231   C     0.77962   0.17449   0.50036   0.00000  Uiso   1.00
C232   C     0.69236   0.15310   0.46338   0.00000  Uiso   1.00
C233   C     0.63234   0.22204   0.45473   0.00000  Uiso   1.00
C234   C     0.55636   0.18772   0.41940   0.00000  Uiso   1.00
C235   C     0.42315   0.16963   0.36590   0.00000  Uiso   1.00
C236   C     0.72250   0.04790   0.52330   0.00000  Uiso   1.00
C237   C     0.68784   0.02841   0.56503   0.00000  Uiso   1.00
C238   C     0.63725   0.90554   0.58013   0.00000  Uiso   1.00
C239   C     0.55092   0.72415   0.61966   0.00000  Uiso   1.00
C240   C     0.90465   0.19667   0.48194   0.00000  Uiso   1.00
C241   C     0.02316   0.30225   0.48890   0.00000  Uiso   1.00
C242   C     0.12594   0.30461   0.46919   0.00000  Uiso   1.00
C243   C     0.32243   0.35421   0.44451   0.00000  Uiso   1.00
C244   C     0.75142   0.99093   0.45298   0.00000  Uiso   1.00
C245   C     0.67705   0.05339   0.43765   0.00000  Uiso   1.00
C246   C     0.60114   0.01896   0.40231   0.00000  Uiso   1.00
C247   C     0.54102   0.08785   0.39361   0.00000  Uiso   1.00
C248   C     0.70719   0.94820   0.49756   0.00000  Uiso   1.00
C249   C     0.65665   0.82533   0.51261   0.00000  Uiso   1.00
C250   C     0.62191   0.80566   0.55435   0.00000  Uiso   1.00
C251   C     0.88934   0.09697   0.45620   0.00000  Uiso   1.00
C252   C     0.99196   0.09917   0.43648   0.00000  Uiso   1.00
C253   C     0.11060   0.20473   0.44341   0.00000  Uiso   1.00
H254   H     0.79153   0.25210   0.52040   0.00000  Uiso   1.00
H255   H     0.64420   0.29919   0.47466   0.00000  Uiso   1.00
H256   H     0.69971   0.10559   0.58493   0.00000  Uiso   1.00
H257   H     0.03497   0.37938   0.50882   0.00000  Uiso   1.00
H258   H     0.47406   0.30739   0.41261   0.00000  Uiso   1.00
H259   H     0.59115   0.89918   0.64513   0.00000  Uiso   1.00
H260   H     0.29812   0.47653   0.48463   0.00000  Uiso   1.00
H261   H     0.73950   0.91331   0.43295   0.00000  Uiso   1.00
H262   H     0.58931   0.94180   0.38240   0.00000  Uiso   1.00
H263   H     0.64482   0.74820   0.49268   0.00000  Uiso   1.00
H264   H     0.98008   0.02200   0.41657   0.00000  Uiso   1.00
H265   H     0.42950   0.01732   0.33773   0.00000  Uiso   1.00
H266   H     0.54659   0.60911   0.57026   0.00000  Uiso   1.00
H267   H     0.25356   0.18646   0.40976   0.00000  Uiso   1.00
O268   O     0.35389   0.18718   0.34351   0.00000  Uiso   1.00
O269   O     0.50752   0.65164   0.64858   0.00000  Uiso   1.00
O270   O     0.43504   0.40911   0.43800   0.00000  Uiso   1.00
N271   N     0.48421   0.23522   0.40192   0.00000  Uiso   1.00
N272   N     0.59366   0.85357   0.61931   0.00000  Uiso   1.00
N273   N     0.25462   0.39333   0.46927   0.00000  Uiso   1.00
N274   N     0.46023   0.07914   0.36163   0.00000  Uiso   1.00
N275   N     0.56968   0.69749   0.57902   0.00000  Uiso   1.00
N276   N     0.23064   0.23725   0.42898   0.00000  Uiso   1.00
