data_job_00271
_audit_creation_date              2018-12-19
_audit_creation_method            'Materials Studio'
_symmetry_space_group_name_H-M    'P1'
_symmetry_Int_Tables_number       1
_symmetry_cell_setting            triclinic
loop_
_symmetry_equiv_pos_as_xyz
  x,y,z
_cell_length_a                    11.1382
_cell_length_b                    12.2355
_cell_length_c                    12.2370
_cell_angle_alpha                 62.3146
_cell_angle_beta                  104.5982
_cell_angle_gamma                 77.6486
loop_
_atom_site_label
_atom_site_type_symbol
_atom_site_fract_x
_atom_site_fract_y
_atom_site_fract_z
_atom_site_U_iso_or_equiv
_atom_site_adp_type
_atom_site_occupancy
C1     C     0.56367   0.84982   0.47140   0.00000  Uiso   1.00
C2     C     0.47439   0.87675   0.33729   0.00000  Uiso   1.00
C3     C     0.41826   0.99805   0.21344   0.00000  Uiso   1.00
C4     C     0.33953   0.00223   0.10262   0.00000  Uiso   1.00
C5     C     0.20415   0.06127   0.89246   0.00000  Uiso   1.00
C6     C     0.49540   0.79676   0.56713   0.00000  Uiso   1.00
C7     C     0.45696   0.85081   0.63654   0.00000  Uiso   1.00
C8     C     0.39593   0.78765   0.71921   0.00000  Uiso   1.00
C9     C     0.29326   0.72246   0.86595   0.00000  Uiso   1.00
C10    C     0.69378   0.73321   0.52584   0.00000  Uiso   1.00
C11    C     0.82215   0.73381   0.56057   0.00000  Uiso   1.00
C12    C     0.92815   0.61712   0.60851   0.00000  Uiso   1.00
C13    C     0.13349   0.45325   0.69115   0.00000  Uiso   1.00
C14    C     0.52365   0.64152   0.49483   0.00000  Uiso   1.00
C15    C     0.45265   0.76361   0.35002   0.00000  Uiso   1.00
C16    C     0.37399   0.76760   0.23936   0.00000  Uiso   1.00
C17    C     0.31776   0.88889   0.11536   0.00000  Uiso   1.00
C18    C     0.47366   0.68363   0.57986   0.00000  Uiso   1.00
C19    C     0.41268   0.62036   0.66246   0.00000  Uiso   1.00
C20    C     0.37415   0.67431   0.73196   0.00000  Uiso   1.00
C21    C     0.67204   0.62007   0.53857   0.00000  Uiso   1.00
C22    C     0.77787   0.50336   0.58648   0.00000  Uiso   1.00
C23    C     0.90637   0.50378   0.62126   0.00000  Uiso   1.00
H24    H     0.58059   0.93790   0.46150   0.00000  Uiso   1.00
H25    H     0.43510   0.08559   0.20364   0.00000  Uiso   1.00
H26    H     0.47380   0.93836   0.62668   0.00000  Uiso   1.00
H27    H     0.83893   0.82138   0.55071   0.00000  Uiso   1.00
H28    H     0.26417   0.19945   0.92336   0.00000  Uiso   1.00
H29    H     0.34582   0.88899   0.81540   0.00000  Uiso   1.00
H30    H     0.11577   0.64230   0.65522   0.00000  Uiso   1.00
H31    H     0.50672   0.55344   0.50474   0.00000  Uiso   1.00
H32    H     0.35718   0.68003   0.24924   0.00000  Uiso   1.00
H33    H     0.39588   0.53281   0.67228   0.00000  Uiso   1.00
H34    H     0.76101   0.41582   0.59631   0.00000  Uiso   1.00
H35    H     0.20092   0.87028   0.96038   0.00000  Uiso   1.00
H36    H     0.28258   0.55982   0.85243   0.00000  Uiso   1.00
H37    H     0.05252   0.31314   0.69223   0.00000  Uiso   1.00
O38    O     0.13547   0.12509   0.77302   0.00000  Uiso   1.00
O39    O     0.24262   0.71777   0.94336   0.00000  Uiso   1.00
O40    O     0.25276   0.39412   0.73319   0.00000  Uiso   1.00
N41    N     0.26983   0.10460   0.96714   0.00000  Uiso   1.00
N42    N     0.34615   0.81435   0.80112   0.00000  Uiso   1.00
N43    N     0.06599   0.58371   0.65140   0.00000  Uiso   1.00
N44    N     0.23580   0.92748   0.98705   0.00000  Uiso   1.00
N45    N     0.31212   0.63723   0.82104   0.00000  Uiso   1.00
N46    N     0.03196   0.40659   0.67131   0.00000  Uiso   1.00
C47    C     0.78042   0.10256   0.73613   0.00000  Uiso   1.00
C48    C     0.66076   0.16223   0.60395   0.00000  Uiso   1.00
C49    C     0.65884   0.23183   0.47556   0.00000  Uiso   1.00
C50    C     0.53960   0.27840   0.36752   0.00000  Uiso   1.00
C51    C     0.37103   0.37438   0.15927   0.00000  Uiso   1.00
C52    C     0.80664   0.95423   0.82060   0.00000  Uiso   1.00
C53    C     0.92739   0.84895   0.87438   0.00000  Uiso   1.00
C54    C     0.93095   0.72042   0.94872   0.00000  Uiso   1.00
C55    C     0.98890   0.49349   0.07690   0.00000  Uiso   1.00
C56    C     0.73109   0.16308   0.80881   0.00000  Uiso   1.00
C57    C     0.78834   0.23337   0.85271   0.00000  Uiso   1.00
C58    C     0.72832   0.28065   0.91716   0.00000  Uiso   1.00
C59    C     0.66897   0.37798   0.02703   0.00000  Uiso   1.00
C60    C     0.57208   0.06151   0.77255   0.00000  Uiso   1.00
C61    C     0.54760   0.13993   0.62374   0.00000  Uiso   1.00
C62    C     0.42833   0.18642   0.51585   0.00000  Uiso   1.00
C63    C     0.42623   0.25607   0.38733   0.00000  Uiso   1.00
C64    C     0.69348   0.93193   0.84038   0.00000  Uiso   1.00
C65    C     0.69688   0.80353   0.91467   0.00000  Uiso   1.00
C66    C     0.81759   0.69808   0.96854   0.00000  Uiso   1.00
C67    C     0.61793   0.14079   0.82859   0.00000  Uiso   1.00
C68    C     0.55782   0.18796   0.89299   0.00000  Uiso   1.00
C69    C     0.61496   0.25831   0.93698   0.00000  Uiso   1.00
H70    H     0.86853   0.11991   0.72074   0.00000  Uiso   1.00
H71    H     0.74644   0.24905   0.46030   0.00000  Uiso   1.00
H72    H     0.01494   0.86623   0.85906   0.00000  Uiso   1.00
H73    H     0.87591   0.25060   0.83739   0.00000  Uiso   1.00
H74    H     0.56119   0.38235   0.18028   0.00000  Uiso   1.00
H75    H     0.12736   0.57516   0.02113   0.00000  Uiso   1.00
H76    H     0.83418   0.38567   0.97543   0.00000  Uiso   1.00
H77    H     0.48398   0.04415   0.78795   0.00000  Uiso   1.00
H78    H     0.34078   0.16915   0.53119   0.00000  Uiso   1.00
H79    H     0.60929   0.78632   0.92996   0.00000  Uiso   1.00
H80    H     0.47025   0.17069   0.90828   0.00000  Uiso   1.00
H81    H     0.23194   0.31749   0.23782   0.00000  Uiso   1.00
H82    H     0.79812   0.51029   0.07868   0.00000  Uiso   1.00
H83    H     0.50494   0.32081   0.03298   0.00000  Uiso   1.00
O84    O     0.30932   0.43347   0.03894   0.00000  Uiso   1.00
O85    O     0.05213   0.37447   0.14213   0.00000  Uiso   1.00
O86    O     0.66748   0.43784   0.08216   0.00000  Uiso   1.00
N87    N     0.50334   0.34996   0.22906   0.00000  Uiso   1.00
N88    N     0.03268   0.59528   0.01519   0.00000  Uiso   1.00
N89    N     0.75860   0.35301   0.97249   0.00000  Uiso   1.00
N90    N     0.32618   0.31506   0.26002   0.00000  Uiso   1.00
N91    N     0.85551   0.56038   0.04615   0.00000  Uiso   1.00
N92    N     0.58144   0.31811   0.00346   0.00000  Uiso   1.00
