data_job_01550
_audit_creation_date              2018-12-19
_audit_creation_method            'Materials Studio'
_symmetry_space_group_name_H-M    'P1'
_symmetry_Int_Tables_number       1
_symmetry_cell_setting            triclinic
loop_
_symmetry_equiv_pos_as_xyz
  x,y,z
_cell_length_a                    9.8282
_cell_length_b                    15.8619
_cell_length_c                    7.9111
_cell_angle_alpha                 90.0000
_cell_angle_beta                  83.8983
_cell_angle_gamma                 90.0000
loop_
_atom_site_label
_atom_site_type_symbol
_atom_site_fract_x
_atom_site_fract_y
_atom_site_fract_z
_atom_site_U_iso_or_equiv
_atom_site_adp_type
_atom_site_occupancy
C1     C     0.57604   0.68725   0.22797   0.00000  Uiso   1.00
C2     C     0.63097   0.73735   0.07085   0.00000  Uiso   1.00
C3     C     0.71323   0.80850   0.06985   0.00000  Uiso   1.00
C4     C     0.75269   0.84525   0.91300   0.00000  Uiso   1.00
C5     C     0.84422   0.92813   0.69191   0.00000  Uiso   1.00
C6     C     0.42089   0.68570   0.22808   0.00000  Uiso   1.00
C7     C     0.32652   0.71341   0.35929   0.00000  Uiso   1.00
C8     C     0.18914   0.70666   0.33480   0.00000  Uiso   1.00
C9     C     0.95452   0.70930   0.35787   0.00000  Uiso   1.00
C10    C     0.62403   0.59672   0.19531   0.00000  Uiso   1.00
C11    C     0.70043   0.54960   0.29899   0.00000  Uiso   1.00
C12    C     0.73404   0.46793   0.24693   0.00000  Uiso   1.00
C13    C     0.81482   0.33242   0.21912   0.00000  Uiso   1.00
C14    C     0.49984   0.62599   0.95120   0.00000  Uiso   1.00
C15    C     0.58958   0.70408   0.92052   0.00000  Uiso   1.00
C16    C     0.62893   0.74073   0.76363   0.00000  Uiso   1.00
C17    C     0.71123   0.81191   0.76239   0.00000  Uiso   1.00
C18    C     0.37950   0.65243   0.07776   0.00000  Uiso   1.00
C19    C     0.24222   0.64564   0.05307   0.00000  Uiso   1.00
C20    C     0.14767   0.67333   0.18420   0.00000  Uiso   1.00
C21    C     0.58264   0.56345   0.04498   0.00000  Uiso   1.00
C22    C     0.61613   0.48183   0.99276   0.00000  Uiso   1.00
C23    C     0.69258   0.43460   0.09633   0.00000  Uiso   1.00
H24    H     0.60825   0.71315   0.34502   0.00000  Uiso   1.00
H25    H     0.74522   0.83423   0.18622   0.00000  Uiso   1.00
H26    H     0.35858   0.73914   0.47562   0.00000  Uiso   1.00
H27    H     0.73243   0.57537   0.41531   0.00000  Uiso   1.00
H28    H     0.87879   0.95382   0.94387   0.00000  Uiso   1.00
H29    H     0.06353   0.75330   0.55411   0.00000  Uiso   1.00
H30    H     0.85187   0.40794   0.42696   0.00000  Uiso   1.00
H31    H     0.46762   0.60009   0.83416   0.00000  Uiso   1.00
H32    H     0.59688   0.71497   0.64732   0.00000  Uiso   1.00
H33    H     0.21024   0.61988   0.93672   0.00000  Uiso   1.00
H34    H     0.58409   0.45611   0.87642   0.00000  Uiso   1.00
H35    H     0.75839   0.85702   0.50648   0.00000  Uiso   1.00
H36    H     0.94313   0.65650   0.11673   0.00000  Uiso   1.00
H37    H     0.73147   0.31114   0.98957   0.00000  Uiso   1.00
O38    O     0.90612   0.98305   0.61149   0.00000  Uiso   1.00
O39    O     0.83654   0.71996   0.41212   0.00000  Uiso   1.00
O40    O     0.87083   0.26686   0.24529   0.00000  Uiso   1.00
N41    N     0.83274   0.91526   0.86657   0.00000  Uiso   1.00
N42    N     0.07052   0.72780   0.43710   0.00000  Uiso   1.00
N43    N     0.80752   0.40491   0.31824   0.00000  Uiso   1.00
N44    N     0.76795   0.86317   0.63121   0.00000  Uiso   1.00
N45    N     0.00573   0.67571   0.20174   0.00000  Uiso   1.00
N46    N     0.74274   0.35283   0.08289   0.00000  Uiso   1.00
C47    C     0.42396   0.18725   0.77203   0.00000  Uiso   1.00
C48    C     0.36903   0.23735   0.92915   0.00000  Uiso   1.00
C49    C     0.28677   0.30850   0.93015   0.00000  Uiso   1.00
C50    C     0.24731   0.34525   0.08700   0.00000  Uiso   1.00
C51    C     0.15578   0.42813   0.30809   0.00000  Uiso   1.00
C52    C     0.57911   0.18570   0.77192   0.00000  Uiso   1.00
C53    C     0.67348   0.21341   0.64071   0.00000  Uiso   1.00
C54    C     0.81086   0.20666   0.66520   0.00000  Uiso   1.00
C55    C     0.04548   0.20930   0.64213   0.00000  Uiso   1.00
C56    C     0.37597   0.09672   0.80469   0.00000  Uiso   1.00
C57    C     0.29957   0.04960   0.70101   0.00000  Uiso   1.00
C58    C     0.26596   0.96793   0.75307   0.00000  Uiso   1.00
C59    C     0.18518   0.83242   0.78088   0.00000  Uiso   1.00
C60    C     0.50016   0.12599   0.04880   0.00000  Uiso   1.00
C61    C     0.41042   0.20408   0.07948   0.00000  Uiso   1.00
C62    C     0.37107   0.24073   0.23637   0.00000  Uiso   1.00
C63    C     0.28877   0.31191   0.23761   0.00000  Uiso   1.00
C64    C     0.62050   0.15243   0.92224   0.00000  Uiso   1.00
C65    C     0.75778   0.14564   0.94693   0.00000  Uiso   1.00
C66    C     0.85233   0.17333   0.81580   0.00000  Uiso   1.00
C67    C     0.41736   0.06345   0.95502   0.00000  Uiso   1.00
C68    C     0.38387   0.98183   0.00724   0.00000  Uiso   1.00
C69    C     0.30742   0.93460   0.90367   0.00000  Uiso   1.00
H70    H     0.39175   0.21315   0.65498   0.00000  Uiso   1.00
H71    H     0.25478   0.33423   0.81378   0.00000  Uiso   1.00
H72    H     0.64142   0.23914   0.52438   0.00000  Uiso   1.00
H73    H     0.26757   0.07537   0.58469   0.00000  Uiso   1.00
H74    H     0.12121   0.45382   0.05613   0.00000  Uiso   1.00
H75    H     0.93647   0.25330   0.44589   0.00000  Uiso   1.00
H76    H     0.14813   0.90794   0.57304   0.00000  Uiso   1.00
H77    H     0.53238   0.10009   0.16584   0.00000  Uiso   1.00
H78    H     0.40312   0.21497   0.35268   0.00000  Uiso   1.00
H79    H     0.78976   0.11988   0.06328   0.00000  Uiso   1.00
H80    H     0.41591   0.95611   0.12358   0.00000  Uiso   1.00
H81    H     0.24161   0.35702   0.49352   0.00000  Uiso   1.00
H82    H     0.05687   0.15650   0.88327   0.00000  Uiso   1.00
H83    H     0.26853   0.81114   0.01043   0.00000  Uiso   1.00
O84    O     0.09388   0.48305   0.38851   0.00000  Uiso   1.00
O85    O     0.16346   0.21996   0.58788   0.00000  Uiso   1.00
O86    O     0.12917   0.76686   0.75471   0.00000  Uiso   1.00
N87    N     0.16726   0.41526   0.13343   0.00000  Uiso   1.00
N88    N     0.92948   0.22780   0.56290   0.00000  Uiso   1.00
N89    N     0.19248   0.90491   0.68176   0.00000  Uiso   1.00
N90    N     0.23205   0.36317   0.36879   0.00000  Uiso   1.00
N91    N     0.99427   0.17571   0.79826   0.00000  Uiso   1.00
N92    N     0.25726   0.85283   0.91711   0.00000  Uiso   1.00
