data_job_02551
_audit_creation_date              2018-12-19
_audit_creation_method            'Materials Studio'
_symmetry_space_group_name_H-M    'P1'
_symmetry_Int_Tables_number       1
_symmetry_cell_setting            triclinic
loop_
_symmetry_equiv_pos_as_xyz
  x,y,z
_cell_length_a                    22.4104
_cell_length_b                    22.4104
_cell_length_c                    11.5594
_cell_angle_alpha                 90.0000
_cell_angle_beta                  90.0000
_cell_angle_gamma                 120.0000
loop_
_atom_site_label
_atom_site_type_symbol
_atom_site_fract_x
_atom_site_fract_y
_atom_site_fract_z
_atom_site_U_iso_or_equiv
_atom_site_adp_type
_atom_site_occupancy
C1     C     0.80881   0.20895   0.85992   0.00000  Uiso   1.00
C2     C     0.77118   0.21736   0.96300   0.00000  Uiso   1.00
C3     C     0.79412   0.22846   0.07671   0.00000  Uiso   1.00
C4     C     0.75221   0.23478   0.15843   0.00000  Uiso   1.00
C5     C     0.70329   0.24851   0.32322   0.00000  Uiso   1.00
C6     C     0.75847   0.13984   0.80513   0.00000  Uiso   1.00
C7     C     0.77074   0.08575   0.78608   0.00000  Uiso   1.00
C8     C     0.71813   0.02681   0.73489   0.00000  Uiso   1.00
C9     C     0.64950   0.92020   0.65450   0.00000  Uiso   1.00
C10    C     0.81779   0.26381   0.77252   0.00000  Uiso   1.00
C11    C     0.87993   0.31396   0.72602   0.00000  Uiso   1.00
C12    C     0.87726   0.35938   0.64734   0.00000  Uiso   1.00
C13    C     0.90074   0.44526   0.51632   0.00000  Uiso   1.00
C14    C     0.69357   0.20044   0.80285   0.00000  Uiso   1.00
C15    C     0.70859   0.21274   0.93200   0.00000  Uiso   1.00
C16    C     0.66663   0.21904   0.01357   0.00000  Uiso   1.00
C17    C     0.68951   0.23015   0.12738   0.00000  Uiso   1.00
C18    C     0.69588   0.13521   0.77413   0.00000  Uiso   1.00
C19    C     0.64325   0.07633   0.72295   0.00000  Uiso   1.00
C20    C     0.65543   0.02217   0.70384   0.00000  Uiso   1.00
C21    C     0.75520   0.25919   0.74152   0.00000  Uiso   1.00
C22    C     0.75244   0.30454   0.66289   0.00000  Uiso   1.00
C23    C     0.81456   0.35475   0.61629   0.00000  Uiso   1.00
H24    H     0.85753   0.21255   0.88405   0.00000  Uiso   1.00
H25    H     0.84256   0.23203   0.10067   0.00000  Uiso   1.00
H26    H     0.81918   0.08935   0.81007   0.00000  Uiso   1.00
H27    H     0.92835   0.31752   0.75003   0.00000  Uiso   1.00
H28    H     0.79835   0.25157   0.32716   0.00000  Uiso   1.00
H29    H     0.74906   0.95072   0.71440   0.00000  Uiso   1.00
H30    H     0.97927   0.43187   0.58777   0.00000  Uiso   1.00
H31    H     0.64484   0.19684   0.77872   0.00000  Uiso   1.00
H32    H     0.61820   0.21546   0.98956   0.00000  Uiso   1.00
H33    H     0.59482   0.07278   0.69897   0.00000  Uiso   1.00
H34    H     0.70399   0.30095   0.63892   0.00000  Uiso   1.00
H35    H     0.61625   0.23811   0.23699   0.00000  Uiso   1.00
H36    H     0.56696   0.93727   0.62422   0.00000  Uiso   1.00
H37    H     0.79717   0.41841   0.49760   0.00000  Uiso   1.00
O38    O     0.69360   0.25735   0.42268   0.00000  Uiso   1.00
O39    O     0.62894   0.86266   0.61874   0.00000  Uiso   1.00
O40    O     0.93097   0.49391   0.45262   0.00000  Uiso   1.00
N41    N     0.75915   0.24586   0.27700   0.00000  Uiso   1.00
N42    N     0.71307   0.96458   0.70412   0.00000  Uiso   1.00
N43    N     0.92830   0.41440   0.58571   0.00000  Uiso   1.00
N44    N     0.66117   0.23862   0.22848   0.00000  Uiso   1.00
N45    N     0.61508   0.95735   0.65560   0.00000  Uiso   1.00
N46    N     0.83031   0.40716   0.53719   0.00000  Uiso   1.00
C47    C     0.79105   0.59985   0.85992   0.00000  Uiso   1.00
C48    C     0.78264   0.55382   0.96300   0.00000  Uiso   1.00
C49    C     0.77154   0.56566   0.07671   0.00000  Uiso   1.00
C50    C     0.76522   0.51743   0.15843   0.00000  Uiso   1.00
C51    C     0.75149   0.45478   0.32322   0.00000  Uiso   1.00
C52    C     0.86016   0.61864   0.80513   0.00000  Uiso   1.00
C53    C     0.91425   0.68498   0.78608   0.00000  Uiso   1.00
C54    C     0.97319   0.69132   0.73489   0.00000  Uiso   1.00
C55    C     0.07980   0.72931   0.65450   0.00000  Uiso   1.00
C56    C     0.73619   0.55398   0.77252   0.00000  Uiso   1.00
C57    C     0.68604   0.56597   0.72602   0.00000  Uiso   1.00
C58    C     0.64062   0.51788   0.64734   0.00000  Uiso   1.00
C59    C     0.55474   0.45547   0.51632   0.00000  Uiso   1.00
C60    C     0.79956   0.49314   0.80285   0.00000  Uiso   1.00
C61    C     0.78726   0.49585   0.93200   0.00000  Uiso   1.00
C62    C     0.78096   0.44759   0.01357   0.00000  Uiso   1.00
C63    C     0.76985   0.45936   0.12738   0.00000  Uiso   1.00
C64    C     0.86479   0.56068   0.77413   0.00000  Uiso   1.00
C65    C     0.92367   0.56691   0.72295   0.00000  Uiso   1.00
C66    C     0.97783   0.63325   0.70384   0.00000  Uiso   1.00
C67    C     0.74081   0.49601   0.74152   0.00000  Uiso   1.00
C68    C     0.69546   0.44790   0.66289   0.00000  Uiso   1.00
C69    C     0.64525   0.45981   0.61629   0.00000  Uiso   1.00
H70    H     0.78745   0.64498   0.88405   0.00000  Uiso   1.00
H71    H     0.76797   0.61053   0.10067   0.00000  Uiso   1.00
H72    H     0.91065   0.72983   0.81007   0.00000  Uiso   1.00
H73    H     0.68248   0.61083   0.75003   0.00000  Uiso   1.00
H74    H     0.74843   0.54678   0.32716   0.00000  Uiso   1.00
H75    H     0.04928   0.79833   0.71440   0.00000  Uiso   1.00
H76    H     0.56813   0.54741   0.58777   0.00000  Uiso   1.00
H77    H     0.80316   0.44801   0.77872   0.00000  Uiso   1.00
H78    H     0.78454   0.40274   0.98956   0.00000  Uiso   1.00
H79    H     0.92722   0.52204   0.69897   0.00000  Uiso   1.00
H80    H     0.69905   0.40305   0.63892   0.00000  Uiso   1.00
H81    H     0.76189   0.37813   0.23699   0.00000  Uiso   1.00
H82    H     0.06273   0.62969   0.62422   0.00000  Uiso   1.00
H83    H     0.58159   0.37876   0.49760   0.00000  Uiso   1.00
O84    O     0.74265   0.43625   0.42268   0.00000  Uiso   1.00
O85    O     0.13734   0.76628   0.61874   0.00000  Uiso   1.00
O86    O     0.50609   0.43706   0.45262   0.00000  Uiso   1.00
N87    N     0.75414   0.51329   0.27700   0.00000  Uiso   1.00
N88    N     0.03542   0.74848   0.70412   0.00000  Uiso   1.00
N89    N     0.58560   0.51390   0.58571   0.00000  Uiso   1.00
N90    N     0.76138   0.42255   0.22848   0.00000  Uiso   1.00
N91    N     0.04265   0.65773   0.65560   0.00000  Uiso   1.00
N92    N     0.59284   0.42315   0.53719   0.00000  Uiso   1.00
C93    C     0.40015   0.19119   0.85992   0.00000  Uiso   1.00
C94    C     0.44618   0.22882   0.96300   0.00000  Uiso   1.00
C95    C     0.43434   0.20588   0.07671   0.00000  Uiso   1.00
C96    C     0.48257   0.24779   0.15843   0.00000  Uiso   1.00
C97    C     0.54522   0.29671   0.32322   0.00000  Uiso   1.00
C98    C     0.38136   0.24153   0.80513   0.00000  Uiso   1.00
C99    C     0.31502   0.22926   0.78608   0.00000  Uiso   1.00
C100   C     0.30868   0.28187   0.73489   0.00000  Uiso   1.00
C101   C     0.27069   0.35050   0.65450   0.00000  Uiso   1.00
C102   C     0.44602   0.18221   0.77252   0.00000  Uiso   1.00
C103   C     0.43403   0.12007   0.72602   0.00000  Uiso   1.00
C104   C     0.48212   0.12274   0.64734   0.00000  Uiso   1.00
C105   C     0.54453   0.09926   0.51632   0.00000  Uiso   1.00
C106   C     0.50686   0.30643   0.80285   0.00000  Uiso   1.00
C107   C     0.50415   0.29141   0.93200   0.00000  Uiso   1.00
C108   C     0.55241   0.33337   0.01357   0.00000  Uiso   1.00
C109   C     0.54064   0.31049   0.12738   0.00000  Uiso   1.00
C110   C     0.43932   0.30412   0.77413   0.00000  Uiso   1.00
C111   C     0.43309   0.35675   0.72295   0.00000  Uiso   1.00
C112   C     0.36675   0.34457   0.70384   0.00000  Uiso   1.00
C113   C     0.50399   0.24480   0.74152   0.00000  Uiso   1.00
C114   C     0.55210   0.24756   0.66289   0.00000  Uiso   1.00
C115   C     0.54019   0.18544   0.61629   0.00000  Uiso   1.00
H116   H     0.35502   0.14247   0.88405   0.00000  Uiso   1.00
H117   H     0.38947   0.15744   0.10067   0.00000  Uiso   1.00
H118   H     0.27017   0.18082   0.81007   0.00000  Uiso   1.00
H119   H     0.38917   0.07165   0.75003   0.00000  Uiso   1.00
H120   H     0.45322   0.20165   0.32716   0.00000  Uiso   1.00
H121   H     0.20167   0.25094   0.71440   0.00000  Uiso   1.00
H122   H     0.45259   0.02073   0.58777   0.00000  Uiso   1.00
H123   H     0.55199   0.35516   0.77872   0.00000  Uiso   1.00
H124   H     0.59726   0.38180   0.98956   0.00000  Uiso   1.00
H125   H     0.47796   0.40518   0.69897   0.00000  Uiso   1.00
H126   H     0.59695   0.29601   0.63892   0.00000  Uiso   1.00
H127   H     0.62187   0.38375   0.23699   0.00000  Uiso   1.00
H128   H     0.37031   0.43304   0.62422   0.00000  Uiso   1.00
H129   H     0.62124   0.20283   0.49760   0.00000  Uiso   1.00
O130   O     0.56375   0.30640   0.42268   0.00000  Uiso   1.00
O131   O     0.23372   0.37106   0.61874   0.00000  Uiso   1.00
O132   O     0.56294   0.06903   0.45262   0.00000  Uiso   1.00
N133   N     0.48671   0.24085   0.27700   0.00000  Uiso   1.00
N134   N     0.25152   0.28693   0.70412   0.00000  Uiso   1.00
N135   N     0.48610   0.07170   0.58571   0.00000  Uiso   1.00
N136   N     0.57745   0.33883   0.22848   0.00000  Uiso   1.00
N137   N     0.34227   0.38492   0.65560   0.00000  Uiso   1.00
N138   N     0.57685   0.16969   0.53719   0.00000  Uiso   1.00
C139   C     0.19119   0.79105   0.14008   0.00000  Uiso   1.00
C140   C     0.22882   0.78264   0.03700   0.00000  Uiso   1.00
C141   C     0.20588   0.77154   0.92329   0.00000  Uiso   1.00
C142   C     0.24779   0.76522   0.84157   0.00000  Uiso   1.00
C143   C     0.29671   0.75149   0.67678   0.00000  Uiso   1.00
C144   C     0.24153   0.86016   0.19487   0.00000  Uiso   1.00
C145   C     0.22926   0.91425   0.21392   0.00000  Uiso   1.00
C146   C     0.28187   0.97319   0.26511   0.00000  Uiso   1.00
C147   C     0.35050   0.07980   0.34550   0.00000  Uiso   1.00
C148   C     0.18221   0.73619   0.22748   0.00000  Uiso   1.00
C149   C     0.12007   0.68604   0.27398   0.00000  Uiso   1.00
C150   C     0.12274   0.64062   0.35266   0.00000  Uiso   1.00
C151   C     0.09926   0.55474   0.48368   0.00000  Uiso   1.00
C152   C     0.30643   0.79956   0.19715   0.00000  Uiso   1.00
C153   C     0.29141   0.78726   0.06800   0.00000  Uiso   1.00
C154   C     0.33337   0.78096   0.98643   0.00000  Uiso   1.00
C155   C     0.31049   0.76985   0.87262   0.00000  Uiso   1.00
C156   C     0.30412   0.86479   0.22587   0.00000  Uiso   1.00
C157   C     0.35675   0.92367   0.27705   0.00000  Uiso   1.00
C158   C     0.34457   0.97783   0.29616   0.00000  Uiso   1.00
C159   C     0.24480   0.74081   0.25848   0.00000  Uiso   1.00
C160   C     0.24756   0.69546   0.33711   0.00000  Uiso   1.00
C161   C     0.18544   0.64525   0.38371   0.00000  Uiso   1.00
H162   H     0.14247   0.78745   0.11595   0.00000  Uiso   1.00
H163   H     0.15744   0.76797   0.89933   0.00000  Uiso   1.00
H164   H     0.18082   0.91065   0.18993   0.00000  Uiso   1.00
H165   H     0.07165   0.68248   0.24997   0.00000  Uiso   1.00
H166   H     0.20165   0.74843   0.67284   0.00000  Uiso   1.00
H167   H     0.25094   0.04928   0.28560   0.00000  Uiso   1.00
H168   H     0.02073   0.56813   0.41223   0.00000  Uiso   1.00
H169   H     0.35516   0.80316   0.22128   0.00000  Uiso   1.00
H170   H     0.38180   0.78454   0.01044   0.00000  Uiso   1.00
H171   H     0.40518   0.92722   0.30103   0.00000  Uiso   1.00
H172   H     0.29601   0.69905   0.36108   0.00000  Uiso   1.00
H173   H     0.38375   0.76189   0.76301   0.00000  Uiso   1.00
H174   H     0.43304   0.06273   0.37578   0.00000  Uiso   1.00
H175   H     0.20283   0.58159   0.50240   0.00000  Uiso   1.00
O176   O     0.30640   0.74265   0.57732   0.00000  Uiso   1.00
O177   O     0.37106   0.13734   0.38126   0.00000  Uiso   1.00
O178   O     0.06903   0.50609   0.54738   0.00000  Uiso   1.00
N179   N     0.24085   0.75414   0.72300   0.00000  Uiso   1.00
N180   N     0.28693   0.03542   0.29588   0.00000  Uiso   1.00
N181   N     0.07170   0.58560   0.41429   0.00000  Uiso   1.00
N182   N     0.33883   0.76138   0.77152   0.00000  Uiso   1.00
N183   N     0.38492   0.04265   0.34440   0.00000  Uiso   1.00
N184   N     0.16969   0.59284   0.46281   0.00000  Uiso   1.00
C185   C     0.20895   0.40015   0.14008   0.00000  Uiso   1.00
C186   C     0.21736   0.44618   0.03700   0.00000  Uiso   1.00
C187   C     0.22846   0.43434   0.92329   0.00000  Uiso   1.00
C188   C     0.23478   0.48257   0.84157   0.00000  Uiso   1.00
C189   C     0.24851   0.54522   0.67678   0.00000  Uiso   1.00
C190   C     0.13984   0.38136   0.19487   0.00000  Uiso   1.00
C191   C     0.08575   0.31502   0.21392   0.00000  Uiso   1.00
C192   C     0.02681   0.30868   0.26511   0.00000  Uiso   1.00
C193   C     0.92020   0.27069   0.34550   0.00000  Uiso   1.00
C194   C     0.26381   0.44602   0.22748   0.00000  Uiso   1.00
C195   C     0.31396   0.43403   0.27398   0.00000  Uiso   1.00
C196   C     0.35938   0.48212   0.35266   0.00000  Uiso   1.00
C197   C     0.44526   0.54453   0.48368   0.00000  Uiso   1.00
C198   C     0.20044   0.50686   0.19715   0.00000  Uiso   1.00
C199   C     0.21274   0.50415   0.06800   0.00000  Uiso   1.00
C200   C     0.21904   0.55241   0.98643   0.00000  Uiso   1.00
C201   C     0.23015   0.54064   0.87262   0.00000  Uiso   1.00
C202   C     0.13521   0.43932   0.22587   0.00000  Uiso   1.00
C203   C     0.07633   0.43309   0.27705   0.00000  Uiso   1.00
C204   C     0.02217   0.36675   0.29616   0.00000  Uiso   1.00
C205   C     0.25919   0.50399   0.25848   0.00000  Uiso   1.00
C206   C     0.30454   0.55210   0.33711   0.00000  Uiso   1.00
C207   C     0.35475   0.54019   0.38371   0.00000  Uiso   1.00
H208   H     0.21255   0.35502   0.11595   0.00000  Uiso   1.00
H209   H     0.23203   0.38947   0.89933   0.00000  Uiso   1.00
H210   H     0.08935   0.27017   0.18993   0.00000  Uiso   1.00
H211   H     0.31752   0.38917   0.24997   0.00000  Uiso   1.00
H212   H     0.25157   0.45322   0.67284   0.00000  Uiso   1.00
H213   H     0.95072   0.20167   0.28560   0.00000  Uiso   1.00
H214   H     0.43187   0.45259   0.41223   0.00000  Uiso   1.00
H215   H     0.19684   0.55199   0.22128   0.00000  Uiso   1.00
H216   H     0.21546   0.59726   0.01044   0.00000  Uiso   1.00
H217   H     0.07278   0.47796   0.30103   0.00000  Uiso   1.00
H218   H     0.30095   0.59695   0.36108   0.00000  Uiso   1.00
H219   H     0.23811   0.62187   0.76301   0.00000  Uiso   1.00
H220   H     0.93727   0.37031   0.37578   0.00000  Uiso   1.00
H221   H     0.41841   0.62124   0.50240   0.00000  Uiso   1.00
O222   O     0.25735   0.56375   0.57732   0.00000  Uiso   1.00
O223   O     0.86266   0.23372   0.38126   0.00000  Uiso   1.00
O224   O     0.49391   0.56294   0.54738   0.00000  Uiso   1.00
N225   N     0.24586   0.48671   0.72300   0.00000  Uiso   1.00
N226   N     0.96458   0.25152   0.29588   0.00000  Uiso   1.00
N227   N     0.41440   0.48610   0.41429   0.00000  Uiso   1.00
N228   N     0.23862   0.57745   0.77152   0.00000  Uiso   1.00
N229   N     0.95735   0.34227   0.34440   0.00000  Uiso   1.00
N230   N     0.40716   0.57685   0.46281   0.00000  Uiso   1.00
C231   C     0.59985   0.80881   0.14008   0.00000  Uiso   1.00
C232   C     0.55382   0.77118   0.03700   0.00000  Uiso   1.00
C233   C     0.56566   0.79412   0.92329   0.00000  Uiso   1.00
C234   C     0.51743   0.75221   0.84157   0.00000  Uiso   1.00
C235   C     0.45478   0.70329   0.67678   0.00000  Uiso   1.00
C236   C     0.61864   0.75847   0.19487   0.00000  Uiso   1.00
C237   C     0.68498   0.77074   0.21392   0.00000  Uiso   1.00
C238   C     0.69132   0.71813   0.26511   0.00000  Uiso   1.00
C239   C     0.72931   0.64950   0.34550   0.00000  Uiso   1.00
C240   C     0.55398   0.81779   0.22748   0.00000  Uiso   1.00
C241   C     0.56597   0.87993   0.27398   0.00000  Uiso   1.00
C242   C     0.51788   0.87726   0.35266   0.00000  Uiso   1.00
C243   C     0.45547   0.90074   0.48368   0.00000  Uiso   1.00
C244   C     0.49314   0.69357   0.19715   0.00000  Uiso   1.00
C245   C     0.49585   0.70859   0.06800   0.00000  Uiso   1.00
C246   C     0.44759   0.66663   0.98643   0.00000  Uiso   1.00
C247   C     0.45936   0.68951   0.87262   0.00000  Uiso   1.00
C248   C     0.56068   0.69588   0.22587   0.00000  Uiso   1.00
C249   C     0.56691   0.64325   0.27705   0.00000  Uiso   1.00
C250   C     0.63325   0.65543   0.29616   0.00000  Uiso   1.00
C251   C     0.49601   0.75520   0.25848   0.00000  Uiso   1.00
C252   C     0.44790   0.75244   0.33711   0.00000  Uiso   1.00
C253   C     0.45981   0.81456   0.38371   0.00000  Uiso   1.00
H254   H     0.64498   0.85753   0.11595   0.00000  Uiso   1.00
H255   H     0.61053   0.84256   0.89933   0.00000  Uiso   1.00
H256   H     0.72983   0.81918   0.18993   0.00000  Uiso   1.00
H257   H     0.61083   0.92835   0.24997   0.00000  Uiso   1.00
H258   H     0.54678   0.79835   0.67284   0.00000  Uiso   1.00
H259   H     0.79833   0.74906   0.28560   0.00000  Uiso   1.00
H260   H     0.54741   0.97927   0.41223   0.00000  Uiso   1.00
H261   H     0.44801   0.64484   0.22128   0.00000  Uiso   1.00
H262   H     0.40274   0.61820   0.01044   0.00000  Uiso   1.00
H263   H     0.52204   0.59482   0.30103   0.00000  Uiso   1.00
H264   H     0.40305   0.70399   0.36108   0.00000  Uiso   1.00
H265   H     0.37813   0.61625   0.76301   0.00000  Uiso   1.00
H266   H     0.62969   0.56696   0.37578   0.00000  Uiso   1.00
H267   H     0.37876   0.79717   0.50240   0.00000  Uiso   1.00
O268   O     0.43625   0.69360   0.57732   0.00000  Uiso   1.00
O269   O     0.76628   0.62894   0.38126   0.00000  Uiso   1.00
O270   O     0.43706   0.93097   0.54738   0.00000  Uiso   1.00
N271   N     0.51329   0.75915   0.72300   0.00000  Uiso   1.00
N272   N     0.74848   0.71307   0.29588   0.00000  Uiso   1.00
N273   N     0.51390   0.92830   0.41429   0.00000  Uiso   1.00
N274   N     0.42255   0.66117   0.77152   0.00000  Uiso   1.00
N275   N     0.65773   0.61508   0.34440   0.00000  Uiso   1.00
N276   N     0.42315   0.83031   0.46281   0.00000  Uiso   1.00
