data_job_04406
_audit_creation_date              2018-12-19
_audit_creation_method            'Materials Studio'
_symmetry_space_group_name_H-M    'P1'
_symmetry_Int_Tables_number       1
_symmetry_cell_setting            triclinic
loop_
_symmetry_equiv_pos_as_xyz
  x,y,z
_cell_length_a                    23.9894
_cell_length_b                    7.0672
_cell_length_c                    27.1435
_cell_angle_alpha                 90.0000
_cell_angle_beta                  90.0000
_cell_angle_gamma                 90.0000
loop_
_atom_site_label
_atom_site_type_symbol
_atom_site_fract_x
_atom_site_fract_y
_atom_site_fract_z
_atom_site_U_iso_or_equiv
_atom_site_adp_type
_atom_site_occupancy
C1     C     0.47953   0.28966   0.91446   0.00000  Uiso   1.00
C2     C     0.52894   0.23193   0.88247   0.00000  Uiso   1.00
C3     C     0.57230   0.34938   0.86797   0.00000  Uiso   1.00
C4     C     0.61354   0.26967   0.83871   0.00000  Uiso   1.00
C5     C     0.69056   0.20901   0.79117   0.00000  Uiso   1.00
C6     C     0.42746   0.24230   0.88469   0.00000  Uiso   1.00
C7     C     0.38549   0.36849   0.87207   0.00000  Uiso   1.00
C8     C     0.34131   0.29749   0.84468   0.00000  Uiso   1.00
C9     C     0.26077   0.25291   0.80063   0.00000  Uiso   1.00
C10    C     0.47955   0.15460   0.95828   0.00000  Uiso   1.00
C11    C     0.48137   0.20704   0.00752   0.00000  Uiso   1.00
C12    C     0.48104   0.06220   0.04208   0.00000  Uiso   1.00
C13    C     0.48138   0.88145   0.11228   0.00000  Uiso   1.00
C14    C     0.47568   0.93922   0.88827   0.00000  Uiso   1.00
C15    C     0.52684   0.04158   0.86825   0.00000  Uiso   1.00
C16    C     0.56804   0.96166   0.83900   0.00000  Uiso   1.00
C17    C     0.61145   0.07898   0.82446   0.00000  Uiso   1.00
C18    C     0.42537   0.05197   0.87047   0.00000  Uiso   1.00
C19    C     0.38124   0.98077   0.84309   0.00000  Uiso   1.00
C20    C     0.33922   0.10681   0.83043   0.00000  Uiso   1.00
C21    C     0.47746   0.96426   0.94405   0.00000  Uiso   1.00
C22    C     0.47712   0.81932   0.97854   0.00000  Uiso   1.00
C23    C     0.47895   0.87152   0.02783   0.00000  Uiso   1.00
H24    H     0.48115   0.43785   0.92554   0.00000  Uiso   1.00
H25    H     0.57389   0.49669   0.87898   0.00000  Uiso   1.00
H26    H     0.38712   0.51577   0.88309   0.00000  Uiso   1.00
H27    H     0.48299   0.35435   0.01852   0.00000  Uiso   1.00
H28    H     0.67579   0.47799   0.82108   0.00000  Uiso   1.00
H29    H     0.28195   0.51822   0.82975   0.00000  Uiso   1.00
H30    H     0.48411   0.17783   0.11533   0.00000  Uiso   1.00
H31    H     0.47405   0.79102   0.87720   0.00000  Uiso   1.00
H32    H     0.56641   0.81436   0.82799   0.00000  Uiso   1.00
H33    H     0.37963   0.83346   0.83209   0.00000  Uiso   1.00
H34    H     0.47550   0.67203   0.96752   0.00000  Uiso   1.00
H35    H     0.66971   0.92420   0.77969   0.00000  Uiso   1.00
H36    H     0.27587   0.96443   0.78836   0.00000  Uiso   1.00
H37    H     0.47803   0.62404   0.07394   0.00000  Uiso   1.00
O38    O     0.73362   0.22813   0.76888   0.00000  Uiso   1.00
O39    O     0.21692   0.28091   0.78025   0.00000  Uiso   1.00
O40    O     0.48215   0.83433   0.15493   0.00000  Uiso   1.00
N41    N     0.66169   0.34444   0.81810   0.00000  Uiso   1.00
N42    N     0.29348   0.38207   0.82620   0.00000  Uiso   1.00
N43    N     0.48247   0.06383   0.09319   0.00000  Uiso   1.00
N44    N     0.65842   0.04645   0.79583   0.00000  Uiso   1.00
N45    N     0.29021   0.08407   0.80393   0.00000  Uiso   1.00
N46    N     0.47920   0.76584   0.07092   0.00000  Uiso   1.00
C47    C     0.22494   0.21605   0.62359   0.00000  Uiso   1.00
C48    C     0.27553   0.26573   0.65505   0.00000  Uiso   1.00
C49    C     0.31784   0.14212   0.66846   0.00000  Uiso   1.00
C50    C     0.36047   0.21494   0.69739   0.00000  Uiso   1.00
C51    C     0.43898   0.26322   0.74398   0.00000  Uiso   1.00
C52    C     0.17398   0.26819   0.65431   0.00000  Uiso   1.00
C53    C     0.13091   0.14665   0.66710   0.00000  Uiso   1.00
C54    C     0.08805   0.22156   0.69541   0.00000  Uiso   1.00
C55    C     0.00888   0.27368   0.74082   0.00000  Uiso   1.00
C56    C     0.22562   0.35349   0.58029   0.00000  Uiso   1.00
C57    C     0.22595   0.30367   0.53083   0.00000  Uiso   1.00
C58    C     0.22656   0.45040   0.49682   0.00000  Uiso   1.00
C59    C     0.22757   0.63495   0.42730   0.00000  Uiso   1.00
C60    C     0.22541   0.56521   0.65113   0.00000  Uiso   1.00
C61    C     0.27579   0.45538   0.67000   0.00000  Uiso   1.00
C62    C     0.31837   0.52842   0.69892   0.00000  Uiso   1.00
C63    C     0.36073   0.40493   0.71237   0.00000  Uiso   1.00
C64    C     0.17424   0.45783   0.66927   0.00000  Uiso   1.00
C65    C     0.13143   0.53294   0.69756   0.00000  Uiso   1.00
C66    C     0.08831   0.41154   0.71039   0.00000  Uiso   1.00
C67    C     0.22588   0.54314   0.59524   0.00000  Uiso   1.00
C68    C     0.22648   0.68997   0.56130   0.00000  Uiso   1.00
C69    C     0.22682   0.64038   0.51180   0.00000  Uiso   1.00
H70    H     0.22473   0.06840   0.61195   0.00000  Uiso   1.00
H71    H     0.31762   0.99536   0.65688   0.00000  Uiso   1.00
H72    H     0.13072   0.99990   0.65551   0.00000  Uiso   1.00
H73    H     0.22575   0.15690   0.51927   0.00000  Uiso   1.00
H74    H     0.42071   0.99799   0.71331   0.00000  Uiso   1.00
H75    H     0.02660   0.00758   0.71041   0.00000  Uiso   1.00
H76    H     0.22700   0.33864   0.42312   0.00000  Uiso   1.00
H77    H     0.22561   0.71286   0.66277   0.00000  Uiso   1.00
H78    H     0.31856   0.67518   0.71049   0.00000  Uiso   1.00
H79    H     0.13165   0.67971   0.70913   0.00000  Uiso   1.00
H80    H     0.22668   0.83671   0.57289   0.00000  Uiso   1.00
H81    H     0.42147   0.54976   0.75682   0.00000  Uiso   1.00
H82    H     0.02735   0.55934   0.75392   0.00000  Uiso   1.00
H83    H     0.22776   0.89040   0.46664   0.00000  Uiso   1.00
O84    O     0.48220   0.23745   0.76555   0.00000  Uiso   1.00
O85    O     0.96514   0.25003   0.76174   0.00000  Uiso   1.00
O86    O     0.22806   0.68437   0.38483   0.00000  Uiso   1.00
N87    N     0.40814   0.13303   0.71699   0.00000  Uiso   1.00
N88    N     0.03967   0.14198   0.71429   0.00000  Uiso   1.00
N89    N     0.22702   0.45150   0.44570   0.00000  Uiso   1.00
N90    N     0.40855   0.42993   0.74041   0.00000  Uiso   1.00
N91    N     0.04008   0.43889   0.73770   0.00000  Uiso   1.00
N92    N     0.22742   0.74840   0.46911   0.00000  Uiso   1.00
C93    C     0.52047   0.71034   0.41446   0.00000  Uiso   1.00
C94    C     0.47106   0.76807   0.38247   0.00000  Uiso   1.00
C95    C     0.42770   0.65062   0.36797   0.00000  Uiso   1.00
C96    C     0.38646   0.73033   0.33871   0.00000  Uiso   1.00
C97    C     0.30944   0.79099   0.29117   0.00000  Uiso   1.00
C98    C     0.57254   0.75770   0.38469   0.00000  Uiso   1.00
C99    C     0.61451   0.63151   0.37207   0.00000  Uiso   1.00
C100   C     0.65869   0.70251   0.34468   0.00000  Uiso   1.00
C101   C     0.73923   0.74709   0.30063   0.00000  Uiso   1.00
C102   C     0.52045   0.84540   0.45828   0.00000  Uiso   1.00
C103   C     0.51863   0.79296   0.50752   0.00000  Uiso   1.00
C104   C     0.51896   0.93780   0.54208   0.00000  Uiso   1.00
C105   C     0.51862   0.11855   0.61228   0.00000  Uiso   1.00
C106   C     0.52432   0.06078   0.38827   0.00000  Uiso   1.00
C107   C     0.47316   0.95842   0.36825   0.00000  Uiso   1.00
C108   C     0.43196   0.03834   0.33900   0.00000  Uiso   1.00
C109   C     0.38855   0.92102   0.32446   0.00000  Uiso   1.00
C110   C     0.57463   0.94803   0.37047   0.00000  Uiso   1.00
C111   C     0.61876   0.01923   0.34309   0.00000  Uiso   1.00
C112   C     0.66078   0.89319   0.33043   0.00000  Uiso   1.00
C113   C     0.52254   0.03574   0.44405   0.00000  Uiso   1.00
C114   C     0.52288   0.18068   0.47854   0.00000  Uiso   1.00
C115   C     0.52105   0.12848   0.52783   0.00000  Uiso   1.00
H116   H     0.51885   0.56215   0.42554   0.00000  Uiso   1.00
H117   H     0.42611   0.50331   0.37898   0.00000  Uiso   1.00
H118   H     0.61288   0.48423   0.38309   0.00000  Uiso   1.00
H119   H     0.51701   0.64565   0.51852   0.00000  Uiso   1.00
H120   H     0.32421   0.52201   0.32108   0.00000  Uiso   1.00
H121   H     0.71805   0.48178   0.32975   0.00000  Uiso   1.00
H122   H     0.51589   0.82217   0.61533   0.00000  Uiso   1.00
H123   H     0.52595   0.20898   0.37720   0.00000  Uiso   1.00
H124   H     0.43359   0.18564   0.32799   0.00000  Uiso   1.00
H125   H     0.62037   0.16654   0.33209   0.00000  Uiso   1.00
H126   H     0.52450   0.32797   0.46752   0.00000  Uiso   1.00
H127   H     0.33029   0.07580   0.27969   0.00000  Uiso   1.00
H128   H     0.72413   0.03557   0.28836   0.00000  Uiso   1.00
H129   H     0.52197   0.37596   0.57394   0.00000  Uiso   1.00
O130   O     0.26638   0.77187   0.26888   0.00000  Uiso   1.00
O131   O     0.78308   0.71909   0.28025   0.00000  Uiso   1.00
O132   O     0.51785   0.16567   0.65493   0.00000  Uiso   1.00
N133   N     0.33831   0.65556   0.31810   0.00000  Uiso   1.00
N134   N     0.70652   0.61793   0.32620   0.00000  Uiso   1.00
N135   N     0.51753   0.93617   0.59319   0.00000  Uiso   1.00
N136   N     0.34158   0.95355   0.29583   0.00000  Uiso   1.00
N137   N     0.70979   0.91593   0.30393   0.00000  Uiso   1.00
N138   N     0.52080   0.23416   0.57092   0.00000  Uiso   1.00
C139   C     0.77506   0.78395   0.12359   0.00000  Uiso   1.00
C140   C     0.72447   0.73427   0.15505   0.00000  Uiso   1.00
C141   C     0.68216   0.85788   0.16846   0.00000  Uiso   1.00
C142   C     0.63953   0.78506   0.19739   0.00000  Uiso   1.00
C143   C     0.56102   0.73678   0.24398   0.00000  Uiso   1.00
C144   C     0.82602   0.73181   0.15431   0.00000  Uiso   1.00
C145   C     0.86909   0.85335   0.16710   0.00000  Uiso   1.00
C146   C     0.91195   0.77844   0.19541   0.00000  Uiso   1.00
C147   C     0.99112   0.72632   0.24082   0.00000  Uiso   1.00
C148   C     0.77438   0.64651   0.08029   0.00000  Uiso   1.00
C149   C     0.77405   0.69633   0.03083   0.00000  Uiso   1.00
C150   C     0.77344   0.54960   0.99682   0.00000  Uiso   1.00
C151   C     0.77243   0.36505   0.92730   0.00000  Uiso   1.00
C152   C     0.77459   0.43479   0.15113   0.00000  Uiso   1.00
C153   C     0.72421   0.54462   0.17000   0.00000  Uiso   1.00
C154   C     0.68163   0.47158   0.19892   0.00000  Uiso   1.00
C155   C     0.63927   0.59507   0.21237   0.00000  Uiso   1.00
C156   C     0.82576   0.54217   0.16927   0.00000  Uiso   1.00
C157   C     0.86857   0.46706   0.19756   0.00000  Uiso   1.00
C158   C     0.91169   0.58846   0.21039   0.00000  Uiso   1.00
C159   C     0.77412   0.45686   0.09524   0.00000  Uiso   1.00
C160   C     0.77352   0.31003   0.06130   0.00000  Uiso   1.00
C161   C     0.77318   0.35962   0.01180   0.00000  Uiso   1.00
H162   H     0.77527   0.93160   0.11195   0.00000  Uiso   1.00
H163   H     0.68238   0.00464   0.15688   0.00000  Uiso   1.00
H164   H     0.86928   0.00010   0.15551   0.00000  Uiso   1.00
H165   H     0.77425   0.84310   0.01927   0.00000  Uiso   1.00
H166   H     0.57929   0.00201   0.21331   0.00000  Uiso   1.00
H167   H     0.97340   0.99242   0.21041   0.00000  Uiso   1.00
H168   H     0.77300   0.66136   0.92312   0.00000  Uiso   1.00
H169   H     0.77439   0.28714   0.16277   0.00000  Uiso   1.00
H170   H     0.68144   0.32482   0.21049   0.00000  Uiso   1.00
H171   H     0.86835   0.32029   0.20913   0.00000  Uiso   1.00
H172   H     0.77332   0.16329   0.07289   0.00000  Uiso   1.00
H173   H     0.57853   0.45024   0.25682   0.00000  Uiso   1.00
H174   H     0.97265   0.44066   0.25392   0.00000  Uiso   1.00
H175   H     0.77224   0.10960   0.96664   0.00000  Uiso   1.00
O176   O     0.51780   0.76255   0.26555   0.00000  Uiso   1.00
O177   O     0.03486   0.74997   0.26174   0.00000  Uiso   1.00
O178   O     0.77194   0.31563   0.88483   0.00000  Uiso   1.00
N179   N     0.59186   0.86697   0.21699   0.00000  Uiso   1.00
N180   N     0.96033   0.85802   0.21429   0.00000  Uiso   1.00
N181   N     0.77298   0.54850   0.94570   0.00000  Uiso   1.00
N182   N     0.59145   0.57007   0.24041   0.00000  Uiso   1.00
N183   N     0.95992   0.56111   0.23770   0.00000  Uiso   1.00
N184   N     0.77258   0.25160   0.96911   0.00000  Uiso   1.00
C185   C     0.97953   0.71034   0.91446   0.00000  Uiso   1.00
C186   C     0.02894   0.76807   0.88247   0.00000  Uiso   1.00
C187   C     0.07230   0.65062   0.86797   0.00000  Uiso   1.00
C188   C     0.11354   0.73033   0.83871   0.00000  Uiso   1.00
C189   C     0.19056   0.79099   0.79117   0.00000  Uiso   1.00
C190   C     0.92746   0.75770   0.88469   0.00000  Uiso   1.00
C191   C     0.88549   0.63151   0.87207   0.00000  Uiso   1.00
C192   C     0.84131   0.70251   0.84468   0.00000  Uiso   1.00
C193   C     0.76077   0.74709   0.80063   0.00000  Uiso   1.00
C194   C     0.97955   0.84540   0.95828   0.00000  Uiso   1.00
C195   C     0.98137   0.79296   0.00752   0.00000  Uiso   1.00
C196   C     0.98104   0.93780   0.04208   0.00000  Uiso   1.00
C197   C     0.98138   0.11855   0.11228   0.00000  Uiso   1.00
C198   C     0.97568   0.06078   0.88827   0.00000  Uiso   1.00
C199   C     0.02684   0.95842   0.86825   0.00000  Uiso   1.00
C200   C     0.06804   0.03834   0.83900   0.00000  Uiso   1.00
C201   C     0.11145   0.92102   0.82446   0.00000  Uiso   1.00
C202   C     0.92537   0.94803   0.87047   0.00000  Uiso   1.00
C203   C     0.88124   0.01923   0.84309   0.00000  Uiso   1.00
C204   C     0.83922   0.89319   0.83043   0.00000  Uiso   1.00
C205   C     0.97746   0.03574   0.94405   0.00000  Uiso   1.00
C206   C     0.97712   0.18068   0.97854   0.00000  Uiso   1.00
C207   C     0.97895   0.12848   0.02783   0.00000  Uiso   1.00
H208   H     0.98115   0.56215   0.92554   0.00000  Uiso   1.00
H209   H     0.07389   0.50331   0.87898   0.00000  Uiso   1.00
H210   H     0.88712   0.48423   0.88309   0.00000  Uiso   1.00
H211   H     0.98299   0.64565   0.01852   0.00000  Uiso   1.00
H212   H     0.17579   0.52201   0.82108   0.00000  Uiso   1.00
H213   H     0.78195   0.48178   0.82975   0.00000  Uiso   1.00
H214   H     0.98411   0.82217   0.11533   0.00000  Uiso   1.00
H215   H     0.97405   0.20898   0.87720   0.00000  Uiso   1.00
H216   H     0.06641   0.18564   0.82799   0.00000  Uiso   1.00
H217   H     0.87963   0.16654   0.83209   0.00000  Uiso   1.00
H218   H     0.97550   0.32797   0.96752   0.00000  Uiso   1.00
H219   H     0.16971   0.07580   0.77969   0.00000  Uiso   1.00
H220   H     0.77587   0.03557   0.78836   0.00000  Uiso   1.00
H221   H     0.97803   0.37596   0.07394   0.00000  Uiso   1.00
O222   O     0.23362   0.77187   0.76888   0.00000  Uiso   1.00
O223   O     0.71692   0.71909   0.78025   0.00000  Uiso   1.00
O224   O     0.98215   0.16567   0.15493   0.00000  Uiso   1.00
N225   N     0.16169   0.65556   0.81810   0.00000  Uiso   1.00
N226   N     0.79348   0.61793   0.82620   0.00000  Uiso   1.00
N227   N     0.98247   0.93617   0.09319   0.00000  Uiso   1.00
N228   N     0.15842   0.95355   0.79583   0.00000  Uiso   1.00
N229   N     0.79021   0.91593   0.80393   0.00000  Uiso   1.00
N230   N     0.97920   0.23416   0.07092   0.00000  Uiso   1.00
C231   C     0.72494   0.78395   0.62359   0.00000  Uiso   1.00
C232   C     0.77553   0.73427   0.65505   0.00000  Uiso   1.00
C233   C     0.81784   0.85788   0.66846   0.00000  Uiso   1.00
C234   C     0.86047   0.78506   0.69739   0.00000  Uiso   1.00
C235   C     0.93898   0.73678   0.74398   0.00000  Uiso   1.00
C236   C     0.67398   0.73181   0.65431   0.00000  Uiso   1.00
C237   C     0.63091   0.85335   0.66710   0.00000  Uiso   1.00
C238   C     0.58805   0.77844   0.69541   0.00000  Uiso   1.00
C239   C     0.50888   0.72632   0.74082   0.00000  Uiso   1.00
C240   C     0.72562   0.64651   0.58029   0.00000  Uiso   1.00
C241   C     0.72595   0.69633   0.53083   0.00000  Uiso   1.00
C242   C     0.72656   0.54960   0.49682   0.00000  Uiso   1.00
C243   C     0.72757   0.36505   0.42730   0.00000  Uiso   1.00
C244   C     0.72541   0.43479   0.65113   0.00000  Uiso   1.00
C245   C     0.77579   0.54462   0.67000   0.00000  Uiso   1.00
C246   C     0.81837   0.47158   0.69892   0.00000  Uiso   1.00
C247   C     0.86073   0.59507   0.71237   0.00000  Uiso   1.00
C248   C     0.67424   0.54217   0.66927   0.00000  Uiso   1.00
C249   C     0.63143   0.46706   0.69756   0.00000  Uiso   1.00
C250   C     0.58831   0.58846   0.71039   0.00000  Uiso   1.00
C251   C     0.72588   0.45686   0.59524   0.00000  Uiso   1.00
C252   C     0.72648   0.31003   0.56130   0.00000  Uiso   1.00
C253   C     0.72682   0.35962   0.51180   0.00000  Uiso   1.00
H254   H     0.72473   0.93160   0.61195   0.00000  Uiso   1.00
H255   H     0.81762   0.00464   0.65688   0.00000  Uiso   1.00
H256   H     0.63072   0.00010   0.65551   0.00000  Uiso   1.00
H257   H     0.72575   0.84310   0.51927   0.00000  Uiso   1.00
H258   H     0.92071   0.00201   0.71331   0.00000  Uiso   1.00
H259   H     0.52660   0.99242   0.71041   0.00000  Uiso   1.00
H260   H     0.72700   0.66136   0.42312   0.00000  Uiso   1.00
H261   H     0.72561   0.28714   0.66277   0.00000  Uiso   1.00
H262   H     0.81856   0.32482   0.71049   0.00000  Uiso   1.00
H263   H     0.63165   0.32029   0.70913   0.00000  Uiso   1.00
H264   H     0.72668   0.16329   0.57289   0.00000  Uiso   1.00
H265   H     0.92147   0.45024   0.75682   0.00000  Uiso   1.00
H266   H     0.52735   0.44066   0.75392   0.00000  Uiso   1.00
H267   H     0.72776   0.10960   0.46664   0.00000  Uiso   1.00
O268   O     0.98220   0.76255   0.76555   0.00000  Uiso   1.00
O269   O     0.46514   0.74997   0.76174   0.00000  Uiso   1.00
O270   O     0.72806   0.31563   0.38483   0.00000  Uiso   1.00
N271   N     0.90814   0.86697   0.71699   0.00000  Uiso   1.00
N272   N     0.53967   0.85802   0.71429   0.00000  Uiso   1.00
N273   N     0.72702   0.54850   0.44570   0.00000  Uiso   1.00
N274   N     0.90855   0.57007   0.74041   0.00000  Uiso   1.00
N275   N     0.54008   0.56111   0.73770   0.00000  Uiso   1.00
N276   N     0.72742   0.25160   0.46911   0.00000  Uiso   1.00
C277   C     0.02047   0.28966   0.41446   0.00000  Uiso   1.00
C278   C     0.97106   0.23193   0.38247   0.00000  Uiso   1.00
C279   C     0.92770   0.34938   0.36797   0.00000  Uiso   1.00
C280   C     0.88646   0.26967   0.33871   0.00000  Uiso   1.00
C281   C     0.80944   0.20901   0.29117   0.00000  Uiso   1.00
C282   C     0.07254   0.24230   0.38469   0.00000  Uiso   1.00
C283   C     0.11451   0.36849   0.37207   0.00000  Uiso   1.00
C284   C     0.15869   0.29749   0.34468   0.00000  Uiso   1.00
C285   C     0.23923   0.25291   0.30063   0.00000  Uiso   1.00
C286   C     0.02045   0.15460   0.45828   0.00000  Uiso   1.00
C287   C     0.01863   0.20704   0.50752   0.00000  Uiso   1.00
C288   C     0.01896   0.06220   0.54208   0.00000  Uiso   1.00
C289   C     0.01862   0.88145   0.61228   0.00000  Uiso   1.00
C290   C     0.02432   0.93922   0.38827   0.00000  Uiso   1.00
C291   C     0.97316   0.04158   0.36825   0.00000  Uiso   1.00
C292   C     0.93196   0.96166   0.33900   0.00000  Uiso   1.00
C293   C     0.88855   0.07898   0.32446   0.00000  Uiso   1.00
C294   C     0.07463   0.05197   0.37047   0.00000  Uiso   1.00
C295   C     0.11876   0.98077   0.34309   0.00000  Uiso   1.00
C296   C     0.16078   0.10681   0.33043   0.00000  Uiso   1.00
C297   C     0.02254   0.96426   0.44405   0.00000  Uiso   1.00
C298   C     0.02288   0.81932   0.47854   0.00000  Uiso   1.00
C299   C     0.02105   0.87152   0.52783   0.00000  Uiso   1.00
H300   H     0.01885   0.43785   0.42554   0.00000  Uiso   1.00
H301   H     0.92611   0.49669   0.37898   0.00000  Uiso   1.00
H302   H     0.11288   0.51577   0.38309   0.00000  Uiso   1.00
H303   H     0.01701   0.35435   0.51852   0.00000  Uiso   1.00
H304   H     0.82421   0.47799   0.32108   0.00000  Uiso   1.00
H305   H     0.21805   0.51822   0.32975   0.00000  Uiso   1.00
H306   H     0.01589   0.17783   0.61533   0.00000  Uiso   1.00
H307   H     0.02595   0.79102   0.37720   0.00000  Uiso   1.00
H308   H     0.93359   0.81436   0.32799   0.00000  Uiso   1.00
H309   H     0.12037   0.83346   0.33209   0.00000  Uiso   1.00
H310   H     0.02450   0.67203   0.46752   0.00000  Uiso   1.00
H311   H     0.83029   0.92420   0.27969   0.00000  Uiso   1.00
H312   H     0.22413   0.96443   0.28836   0.00000  Uiso   1.00
H313   H     0.02197   0.62404   0.57394   0.00000  Uiso   1.00
O314   O     0.76638   0.22813   0.26888   0.00000  Uiso   1.00
O315   O     0.28308   0.28091   0.28025   0.00000  Uiso   1.00
O316   O     0.01785   0.83433   0.65493   0.00000  Uiso   1.00
N317   N     0.83831   0.34444   0.31810   0.00000  Uiso   1.00
N318   N     0.20652   0.38207   0.32620   0.00000  Uiso   1.00
N319   N     0.01753   0.06383   0.59319   0.00000  Uiso   1.00
N320   N     0.84158   0.04645   0.29583   0.00000  Uiso   1.00
N321   N     0.20979   0.08407   0.30393   0.00000  Uiso   1.00
N322   N     0.02080   0.76584   0.57092   0.00000  Uiso   1.00
C323   C     0.27506   0.21605   0.12359   0.00000  Uiso   1.00
C324   C     0.22447   0.26573   0.15505   0.00000  Uiso   1.00
C325   C     0.18216   0.14212   0.16846   0.00000  Uiso   1.00
C326   C     0.13953   0.21494   0.19739   0.00000  Uiso   1.00
C327   C     0.06102   0.26322   0.24398   0.00000  Uiso   1.00
C328   C     0.32602   0.26819   0.15431   0.00000  Uiso   1.00
C329   C     0.36909   0.14665   0.16710   0.00000  Uiso   1.00
C330   C     0.41195   0.22156   0.19541   0.00000  Uiso   1.00
C331   C     0.49112   0.27368   0.24082   0.00000  Uiso   1.00
C332   C     0.27438   0.35349   0.08029   0.00000  Uiso   1.00
C333   C     0.27405   0.30367   0.03083   0.00000  Uiso   1.00
C334   C     0.27344   0.45040   0.99682   0.00000  Uiso   1.00
C335   C     0.27243   0.63495   0.92730   0.00000  Uiso   1.00
C336   C     0.27459   0.56521   0.15113   0.00000  Uiso   1.00
C337   C     0.22421   0.45538   0.17000   0.00000  Uiso   1.00
C338   C     0.18163   0.52842   0.19892   0.00000  Uiso   1.00
C339   C     0.13927   0.40493   0.21237   0.00000  Uiso   1.00
C340   C     0.32576   0.45783   0.16927   0.00000  Uiso   1.00
C341   C     0.36857   0.53294   0.19756   0.00000  Uiso   1.00
C342   C     0.41169   0.41154   0.21039   0.00000  Uiso   1.00
C343   C     0.27412   0.54314   0.09524   0.00000  Uiso   1.00
C344   C     0.27352   0.68997   0.06130   0.00000  Uiso   1.00
C345   C     0.27318   0.64038   0.01180   0.00000  Uiso   1.00
H346   H     0.27527   0.06840   0.11195   0.00000  Uiso   1.00
H347   H     0.18238   0.99536   0.15688   0.00000  Uiso   1.00
H348   H     0.36928   0.99990   0.15551   0.00000  Uiso   1.00
H349   H     0.27425   0.15690   0.01927   0.00000  Uiso   1.00
H350   H     0.07929   0.99799   0.21331   0.00000  Uiso   1.00
H351   H     0.47340   0.00758   0.21041   0.00000  Uiso   1.00
H352   H     0.27300   0.33864   0.92312   0.00000  Uiso   1.00
H353   H     0.27439   0.71286   0.16277   0.00000  Uiso   1.00
H354   H     0.18144   0.67518   0.21049   0.00000  Uiso   1.00
H355   H     0.36835   0.67971   0.20913   0.00000  Uiso   1.00
H356   H     0.27332   0.83671   0.07289   0.00000  Uiso   1.00
H357   H     0.07853   0.54976   0.25682   0.00000  Uiso   1.00
H358   H     0.47265   0.55934   0.25392   0.00000  Uiso   1.00
H359   H     0.27224   0.89040   0.96664   0.00000  Uiso   1.00
O360   O     0.01780   0.23745   0.26555   0.00000  Uiso   1.00
O361   O     0.53486   0.25003   0.26174   0.00000  Uiso   1.00
O362   O     0.27194   0.68437   0.88483   0.00000  Uiso   1.00
N363   N     0.09186   0.13303   0.21699   0.00000  Uiso   1.00
N364   N     0.46033   0.14198   0.21429   0.00000  Uiso   1.00
N365   N     0.27298   0.45150   0.94570   0.00000  Uiso   1.00
N366   N     0.09145   0.42993   0.24041   0.00000  Uiso   1.00
N367   N     0.45992   0.43889   0.23770   0.00000  Uiso   1.00
N368   N     0.27258   0.74840   0.96911   0.00000  Uiso   1.00
