data_job_07096
_audit_creation_date              2018-12-19
_audit_creation_method            'Materials Studio'
_symmetry_space_group_name_H-M    'P1'
_symmetry_Int_Tables_number       1
_symmetry_cell_setting            triclinic
loop_
_symmetry_equiv_pos_as_xyz
  x,y,z
_cell_length_a                    19.9145
_cell_length_b                    18.5327
_cell_length_c                    24.6848
_cell_angle_alpha                 91.4489
_cell_angle_beta                  89.7803
_cell_angle_gamma                 96.1386
loop_
_atom_site_label
_atom_site_type_symbol
_atom_site_fract_x
_atom_site_fract_y
_atom_site_fract_z
_atom_site_U_iso_or_equiv
_atom_site_adp_type
_atom_site_occupancy
C1     C     0.38588   0.04752   0.53150   0.00000  Uiso   1.00
C2     C     0.44633   0.10261   0.51971   0.00000  Uiso   1.00
C3     C     0.46531   0.12852   0.46904   0.00000  Uiso   1.00
C4     C     0.52217   0.17872   0.46675   0.00000  Uiso   1.00
C5     C     0.61049   0.26067   0.44133   0.00000  Uiso   1.00
C6     C     0.41408   0.98551   0.56034   0.00000  Uiso   1.00
C7     C     0.40594   0.91296   0.54384   0.00000  Uiso   1.00
C8     C     0.43565   0.86458   0.57576   0.00000  Uiso   1.00
C9     C     0.47386   0.76472   0.61344   0.00000  Uiso   1.00
C10    C     0.34332   0.08395   0.57341   0.00000  Uiso   1.00
C11    C     0.27567   0.09416   0.56791   0.00000  Uiso   1.00
C12    C     0.24580   0.12865   0.61084   0.00000  Uiso   1.00
C13    C     0.17414   0.18164   0.66882   0.00000  Uiso   1.00
C14    C     0.45310   0.09059   0.61754   0.00000  Uiso   1.00
C15    C     0.48284   0.12600   0.56644   0.00000  Uiso   1.00
C16    C     0.53968   0.17617   0.56423   0.00000  Uiso   1.00
C17    C     0.55875   0.20215   0.51357   0.00000  Uiso   1.00
C18    C     0.45059   0.00890   0.60707   0.00000  Uiso   1.00
C19    C     0.48031   0.96061   0.63903   0.00000  Uiso   1.00
C20    C     0.47223   0.88801   0.62258   0.00000  Uiso   1.00
C21    C     0.37983   0.10735   0.62015   0.00000  Uiso   1.00
C22    C     0.35005   0.14182   0.66310   0.00000  Uiso   1.00
C23    C     0.28238   0.15208   0.65766   0.00000  Uiso   1.00
H24    H     0.35746   0.02931   0.49511   0.00000  Uiso   1.00
H25    H     0.43704   0.11040   0.43288   0.00000  Uiso   1.00
H26    H     0.37768   0.89487   0.50767   0.00000  Uiso   1.00
H27    H     0.24744   0.07605   0.53174   0.00000  Uiso   1.00
H28    H     0.54140   0.21061   0.38448   0.00000  Uiso   1.00
H29    H     0.41620   0.75615   0.54220   0.00000  Uiso   1.00
H30    H     0.14155   0.13820   0.59294   0.00000  Uiso   1.00
H31    H     0.48153   0.10880   0.65393   0.00000  Uiso   1.00
H32    H     0.56793   0.19426   0.60040   0.00000  Uiso   1.00
H33    H     0.50856   0.97873   0.67519   0.00000  Uiso   1.00
H34    H     0.37832   0.15991   0.69926   0.00000  Uiso   1.00
H35    H     0.64763   0.27867   0.52045   0.00000  Uiso   1.00
H36    H     0.52243   0.82421   0.67817   0.00000  Uiso   1.00
H37    H     0.24779   0.20626   0.72891   0.00000  Uiso   1.00
O38    O     0.64912   0.29940   0.41439   0.00000  Uiso   1.00
O39    O     0.48485   0.70318   0.62131   0.00000  Uiso   1.00
O40    O     0.12453   0.20442   0.68789   0.00000  Uiso   1.00
N41    N     0.55453   0.21491   0.42383   0.00000  Uiso   1.00
N42    N     0.43749   0.79002   0.57128   0.00000  Uiso   1.00
N43    N     0.18072   0.14719   0.61873   0.00000  Uiso   1.00
N44    N     0.61169   0.25153   0.49699   0.00000  Uiso   1.00
N45    N     0.49465   0.82665   0.64444   0.00000  Uiso   1.00
N46    N     0.23788   0.18381   0.69189   0.00000  Uiso   1.00
C47    C     0.52845   0.24919   0.22669   0.00000  Uiso   1.00
C48    C     0.51433   0.30799   0.26824   0.00000  Uiso   1.00
C49    C     0.45208   0.33306   0.27797   0.00000  Uiso   1.00
C50    C     0.44963   0.38714   0.31767   0.00000  Uiso   1.00
C51    C     0.41892   0.47420   0.37778   0.00000  Uiso   1.00
C52    C     0.58431   0.28350   0.19014   0.00000  Uiso   1.00
C53    C     0.58090   0.28797   0.13420   0.00000  Uiso   1.00
C54    C     0.63737   0.32143   0.10816   0.00000  Uiso   1.00
C55    C     0.71533   0.37043   0.04702   0.00000  Uiso   1.00
C56    C     0.55961   0.19135   0.25815   0.00000  Uiso   1.00
C57    C     0.53544   0.11834   0.25937   0.00000  Uiso   1.00
C58    C     0.57113   0.07420   0.29057   0.00000  Uiso   1.00
C59    C     0.61073   0.98013   0.33501   0.00000  Uiso   1.00
C60    C     0.63482   0.30063   0.27991   0.00000  Uiso   1.00
C61    C     0.57210   0.33593   0.29715   0.00000  Uiso   1.00
C62    C     0.56975   0.38997   0.33685   0.00000  Uiso   1.00
C63    C     0.50751   0.41513   0.34664   0.00000  Uiso   1.00
C64    C     0.64208   0.31144   0.21905   0.00000  Uiso   1.00
C65    C     0.69858   0.34489   0.19309   0.00000  Uiso   1.00
C66    C     0.69525   0.34942   0.13712   0.00000  Uiso   1.00
C67    C     0.61738   0.21929   0.28706   0.00000  Uiso   1.00
C68    C     0.65312   0.17525   0.31826   0.00000  Uiso   1.00
C69    C     0.62901   0.10219   0.31953   0.00000  Uiso   1.00
H70    H     0.48348   0.22744   0.20418   0.00000  Uiso   1.00
H71    H     0.40738   0.31143   0.25558   0.00000  Uiso   1.00
H72    H     0.53619   0.26634   0.11184   0.00000  Uiso   1.00
H73    H     0.49074   0.09674   0.23699   0.00000  Uiso   1.00
H74    H     0.34849   0.41689   0.32531   0.00000  Uiso   1.00
H75    H     0.62010   0.32180   0.02222   0.00000  Uiso   1.00
H76    H     0.52426   0.96415   0.28613   0.00000  Uiso   1.00
H77    H     0.67980   0.32238   0.30242   0.00000  Uiso   1.00
H78    H     0.61447   0.41158   0.35922   0.00000  Uiso   1.00
H79    H     0.74328   0.36650   0.21547   0.00000  Uiso   1.00
H80    H     0.69783   0.19689   0.34062   0.00000  Uiso   1.00
H81    H     0.51657   0.49818   0.40942   0.00000  Uiso   1.00
H82    H     0.78818   0.40308   0.10633   0.00000  Uiso   1.00
H83    H     0.69234   0.04544   0.37024   0.00000  Uiso   1.00
O84    O     0.38602   0.51452   0.40295   0.00000  Uiso   1.00
O85    O     0.74236   0.38974   0.00530   0.00000  Uiso   1.00
O86    O     0.61661   0.92052   0.35154   0.00000  Uiso   1.00
N87    N     0.39701   0.42377   0.33732   0.00000  Uiso   1.00
N88    N     0.65094   0.33487   0.05395   0.00000  Uiso   1.00
N89    N     0.56135   0.00050   0.30067   0.00000  Uiso   1.00
N90    N     0.48746   0.46751   0.38258   0.00000  Uiso   1.00
N91    N     0.74139   0.37861   0.09921   0.00000  Uiso   1.00
N92    N     0.65179   0.04424   0.34593   0.00000  Uiso   1.00
C93    C     0.08191   0.45177   0.41996   0.00000  Uiso   1.00
C94    C     0.11269   0.37986   0.41787   0.00000  Uiso   1.00
C95    C     0.07706   0.31150   0.41253   0.00000  Uiso   1.00
C96    C     0.11451   0.25244   0.41146   0.00000  Uiso   1.00
C97    C     0.15157   0.13941   0.40761   0.00000  Uiso   1.00
C98    C     0.10653   0.49011   0.47273   0.00000  Uiso   1.00
C99    C     0.06572   0.51445   0.51351   0.00000  Uiso   1.00
C100   C     0.09798   0.54820   0.55861   0.00000  Uiso   1.00
C101   C     0.12548   0.60637   0.63991   0.00000  Uiso   1.00
C102   C     0.11549   0.49678   0.37449   0.00000  Uiso   1.00
C103   C     0.08222   0.52675   0.33267   0.00000  Uiso   1.00
C104   C     0.12203   0.56613   0.29506   0.00000  Uiso   1.00
C105   C     0.16344   0.63466   0.22384   0.00000  Uiso   1.00
C106   C     0.21176   0.46845   0.42755   0.00000  Uiso   1.00
C107   C     0.18322   0.38893   0.42200   0.00000  Uiso   1.00
C108   C     0.22073   0.32996   0.42093   0.00000  Uiso   1.00
C109   C     0.18516   0.26152   0.41558   0.00000  Uiso   1.00
C110   C     0.17706   0.49917   0.47685   0.00000  Uiso   1.00
C111   C     0.20939   0.53290   0.52190   0.00000  Uiso   1.00
C112   C     0.16864   0.55728   0.56274   0.00000  Uiso   1.00
C113   C     0.18602   0.50584   0.37861   0.00000  Uiso   1.00
C114   C     0.22589   0.54519   0.34107   0.00000  Uiso   1.00
C115   C     0.19269   0.57521   0.29919   0.00000  Uiso   1.00
H116   H     0.02700   0.44472   0.41676   0.00000  Uiso   1.00
H117   H     0.02248   0.30451   0.40935   0.00000  Uiso   1.00
H118   H     0.01114   0.50743   0.51030   0.00000  Uiso   1.00
H119   H     0.02764   0.51972   0.32949   0.00000  Uiso   1.00
H120   H     0.04857   0.15306   0.40297   0.00000  Uiso   1.00
H121   H     0.02467   0.58095   0.61583   0.00000  Uiso   1.00
H122   H     0.05946   0.60687   0.23456   0.00000  Uiso   1.00
H123   H     0.26668   0.47551   0.43076   0.00000  Uiso   1.00
H124   H     0.27531   0.33698   0.42412   0.00000  Uiso   1.00
H125   H     0.26397   0.53990   0.52508   0.00000  Uiso   1.00
H126   H     0.28047   0.55219   0.34427   0.00000  Uiso   1.00
H127   H     0.25378   0.17941   0.41496   0.00000  Uiso   1.00
H128   H     0.22987   0.60730   0.62782   0.00000  Uiso   1.00
H129   H     0.26466   0.63322   0.24655   0.00000  Uiso   1.00
O130   O     0.15253   0.07455   0.40436   0.00000  Uiso   1.00
O131   O     0.12117   0.63594   0.68362   0.00000  Uiso   1.00
O132   O     0.16681   0.66994   0.18341   0.00000  Uiso   1.00
N133   N     0.09568   0.17827   0.40669   0.00000  Uiso   1.00
N134   N     0.07333   0.57831   0.60571   0.00000  Uiso   1.00
N135   N     0.10586   0.60256   0.24926   0.00000  Uiso   1.00
N136   N     0.20610   0.19245   0.41314   0.00000  Uiso   1.00
N137   N     0.18375   0.59249   0.61216   0.00000  Uiso   1.00
N138   N     0.21628   0.61674   0.25572   0.00000  Uiso   1.00
C139   C     0.76544   0.94733   0.70004   0.00000  Uiso   1.00
C140   C     0.78098   0.89645   0.74483   0.00000  Uiso   1.00
C141   C     0.76454   0.82176   0.74418   0.00000  Uiso   1.00
C142   C     0.78317   0.78490   0.78907   0.00000  Uiso   1.00
C143   C     0.80218   0.70033   0.85194   0.00000  Uiso   1.00
C144   C     0.83303   0.98776   0.68398   0.00000  Uiso   1.00
C145   C     0.86035   0.98984   0.63217   0.00000  Uiso   1.00
C146   C     0.92278   0.02986   0.62584   0.00000  Uiso   1.00
C147   C     0.02258   0.08708   0.59422   0.00000  Uiso   1.00
C148   C     0.72501   0.00396   0.72672   0.00000  Uiso   1.00
C149   C     0.66151   0.01968   0.71083   0.00000  Uiso   1.00
C150   C     0.63301   0.07336   0.74048   0.00000  Uiso   1.00
C151   C     0.56510   0.15574   0.77522   0.00000  Uiso   1.00
C152   C     0.82774   0.01472   0.78092   0.00000  Uiso   1.00
C153   C     0.81482   0.93306   0.78877   0.00000  Uiso   1.00
C154   C     0.83348   0.89631   0.83367   0.00000  Uiso   1.00
C155   C     0.81707   0.82157   0.83309   0.00000  Uiso   1.00
C156   C     0.86687   0.02436   0.72792   0.00000  Uiso   1.00
C157   C     0.92928   0.06440   0.72166   0.00000  Uiso   1.00
C158   C     0.95669   0.06653   0.66985   0.00000  Uiso   1.00
C159   C     0.75885   0.04057   0.77066   0.00000  Uiso   1.00
C160   C     0.73045   0.09424   0.80033   0.00000  Uiso   1.00
C161   C     0.66692   0.11003   0.78449   0.00000  Uiso   1.00
H162   H     0.73909   0.91884   0.66583   0.00000  Uiso   1.00
H163   H     0.73836   0.79345   0.71017   0.00000  Uiso   1.00
H164   H     0.83414   0.96151   0.59818   0.00000  Uiso   1.00
H165   H     0.63534   0.99134   0.67683   0.00000  Uiso   1.00
H166   H     0.75249   0.67057   0.77870   0.00000  Uiso   1.00
H167   H     0.95444   0.02496   0.54255   0.00000  Uiso   1.00
H168   H     0.53523   0.08787   0.70840   0.00000  Uiso   1.00
H169   H     0.85409   0.04322   0.81513   0.00000  Uiso   1.00
H170   H     0.85967   0.92465   0.86767   0.00000  Uiso   1.00
H171   H     0.95545   0.09272   0.75567   0.00000  Uiso   1.00
H172   H     0.75665   0.12255   0.83432   0.00000  Uiso   1.00
H173   H     0.85095   0.77706   0.90653   0.00000  Uiso   1.00
H174   H     0.05291   0.13145   0.67037   0.00000  Uiso   1.00
H175   H     0.63369   0.19436   0.83623   0.00000  Uiso   1.00
O176   O     0.80333   0.64357   0.87447   0.00000  Uiso   1.00
O177   O     0.06828   0.10853   0.56465   0.00000  Uiso   1.00
O178   O     0.51828   0.19106   0.78225   0.00000  Uiso   1.00
N179   N     0.77488   0.71190   0.80158   0.00000  Uiso   1.00
N180   N     0.96371   0.04323   0.58079   0.00000  Uiso   1.00
N181   N     0.57178   0.10206   0.73584   0.00000  Uiso   1.00
N182   N     0.82786   0.76921   0.87036   0.00000  Uiso   1.00
N183   N     0.01669   0.10053   0.64957   0.00000  Uiso   1.00
N184   N     0.62477   0.15936   0.80463   0.00000  Uiso   1.00
C185   C     0.06854   0.42591   0.89278   0.00000  Uiso   1.00
C186   C     0.99741   0.44550   0.88209   0.00000  Uiso   1.00
C187   C     0.94187   0.39687   0.86830   0.00000  Uiso   1.00
C188   C     0.88119   0.42556   0.86020   0.00000  Uiso   1.00
C189   C     0.77148   0.44462   0.84279   0.00000  Uiso   1.00
C190   C     0.08727   0.45599   0.94943   0.00000  Uiso   1.00
C191   C     0.10729   0.41618   0.99225   0.00000  Uiso   1.00
C192   C     0.12226   0.45371   0.04085   0.00000  Uiso   1.00
C193   C     0.15211   0.48906   0.12797   0.00000  Uiso   1.00
C194   C     0.11476   0.47043   0.85380   0.00000  Uiso   1.00
C195   C     0.15792   0.44276   0.81622   0.00000  Uiso   1.00
C196   C     0.19605   0.49245   0.78430   0.00000  Uiso   1.00
C197   C     0.26859   0.55021   0.72293   0.00000  Uiso   1.00
C198   C     0.05954   0.56335   0.90294   0.00000  Uiso   1.00
C199   C     0.99253   0.52015   0.88761   0.00000  Uiso   1.00
C200   C     0.93192   0.54893   0.87954   0.00000  Uiso   1.00
C201   C     0.87629   0.50035   0.86573   0.00000  Uiso   1.00
C202   C     0.08239   0.53064   0.95495   0.00000  Uiso   1.00
C203   C     0.09734   0.56824   0.00349   0.00000  Uiso   1.00
C204   C     0.11737   0.52850   0.04638   0.00000  Uiso   1.00
C205   C     0.10988   0.54508   0.85931   0.00000  Uiso   1.00
C206   C     0.14796   0.59482   0.82745   0.00000  Uiso   1.00
C207   C     0.19115   0.56723   0.78983   0.00000  Uiso   1.00
H208   H     0.07234   0.36779   0.88849   0.00000  Uiso   1.00
H209   H     0.94567   0.33910   0.86404   0.00000  Uiso   1.00
H210   H     0.11107   0.35841   0.98797   0.00000  Uiso   1.00
H211   H     0.16168   0.38499   0.81196   0.00000  Uiso   1.00
H212   H     0.80307   0.34020   0.83937   0.00000  Uiso   1.00
H213   H     0.15185   0.38093   0.10069   0.00000  Uiso   1.00
H214   H     0.25858   0.43697   0.72954   0.00000  Uiso   1.00
H215   H     0.05574   0.62147   0.90724   0.00000  Uiso   1.00
H216   H     0.92815   0.60670   0.88381   0.00000  Uiso   1.00
H217   H     0.09355   0.62601   0.00775   0.00000  Uiso   1.00
H218   H     0.14416   0.65258   0.83174   0.00000  Uiso   1.00
H219   H     0.78885   0.55740   0.85543   0.00000  Uiso   1.00
H220   H     0.13763   0.59812   0.11674   0.00000  Uiso   1.00
H221   H     0.24436   0.65416   0.74559   0.00000  Uiso   1.00
O222   O     0.71232   0.43450   0.83166   0.00000  Uiso   1.00
O223   O     0.16992   0.48794   0.17450   0.00000  Uiso   1.00
O224   O     0.30994   0.56146   0.68755   0.00000  Uiso   1.00
N225   N     0.81723   0.39335   0.84636   0.00000  Uiso   1.00
N226   N     0.14331   0.43142   0.09068   0.00000  Uiso   1.00
N227   N     0.24311   0.48382   0.74369   0.00000  Uiso   1.00
N228   N     0.80958   0.51022   0.85499   0.00000  Uiso   1.00
N229   N     0.13566   0.54829   0.09931   0.00000  Uiso   1.00
N230   N     0.23546   0.60069   0.75232   0.00000  Uiso   1.00
C231   C     0.63173   0.68038   0.99629   0.00000  Uiso   1.00
C232   C     0.63153   0.72750   0.94654   0.00000  Uiso   1.00
C233   C     0.58922   0.71420   0.90205   0.00000  Uiso   1.00
C234   C     0.59694   0.76379   0.86068   0.00000  Uiso   1.00
C235   C     0.58925   0.82774   0.78298   0.00000  Uiso   1.00
C236   C     0.62105   0.73028   0.04492   0.00000  Uiso   1.00
C237   C     0.56993   0.71930   0.08314   0.00000  Uiso   1.00
C238   C     0.56883   0.77124   0.12459   0.00000  Uiso   1.00
C239   C     0.54489   0.83947   0.19964   0.00000  Uiso   1.00
C240   C     0.70358   0.65994   0.00127   0.00000  Uiso   1.00
C241   C     0.72185   0.58983   0.00281   0.00000  Uiso   1.00
C242   C     0.79024   0.58254   0.00751   0.00000  Uiso   1.00
C243   C     0.89445   0.54156   0.01479   0.00000  Uiso   1.00
C244   C     0.72068   0.79211   0.00192   0.00000  Uiso   1.00
C245   C     0.67984   0.78819   0.94961   0.00000  Uiso   1.00
C246   C     0.68763   0.83781   0.90828   0.00000  Uiso   1.00
C247   C     0.64534   0.82459   0.86374   0.00000  Uiso   1.00
C248   C     0.66936   0.79096   0.04798   0.00000  Uiso   1.00
C249   C     0.66834   0.84292   0.08938   0.00000  Uiso   1.00
C250   C     0.61723   0.83203   0.12765   0.00000  Uiso   1.00
C251   C     0.75189   0.72063   0.00433   0.00000  Uiso   1.00
C252   C     0.82027   0.71345   0.00904   0.00000  Uiso   1.00
C253   C     0.83864   0.64334   0.01058   0.00000  Uiso   1.00
H254   H     0.59412   0.63314   0.99391   0.00000  Uiso   1.00
H255   H     0.55183   0.66723   0.89970   0.00000  Uiso   1.00
H256   H     0.53255   0.67233   0.08077   0.00000  Uiso   1.00
H257   H     0.68445   0.54288   0.00044   0.00000  Uiso   1.00
H258   H     0.52624   0.73180   0.79661   0.00000  Uiso   1.00
H259   H     0.48559   0.74255   0.17841   0.00000  Uiso   1.00
H260   H     0.80591   0.46957   0.00902   0.00000  Uiso   1.00
H261   H     0.75830   0.83936   0.00431   0.00000  Uiso   1.00
H262   H     0.72502   0.88477   0.91066   0.00000  Uiso   1.00
H263   H     0.70574   0.88988   0.09173   0.00000  Uiso   1.00
H264   H     0.85764   0.76042   0.01140   0.00000  Uiso   1.00
H265   H     0.66680   0.90837   0.80551   0.00000  Uiso   1.00
H266   H     0.62616   0.91912   0.18731   0.00000  Uiso   1.00
H267   H     0.94647   0.64614   0.01792   0.00000  Uiso   1.00
O268   O     0.57165   0.84625   0.73928   0.00000  Uiso   1.00
O269   O     0.51834   0.86034   0.24019   0.00000  Uiso   1.00
O270   O     0.93858   0.50220   0.01796   0.00000  Uiso   1.00
N271   N     0.56390   0.76712   0.81155   0.00000  Uiso   1.00
N272   N     0.52589   0.77717   0.16851   0.00000  Uiso   1.00
N273   N     0.82536   0.52196   0.01016   0.00000  Uiso   1.00
N274   N     0.63953   0.86213   0.81634   0.00000  Uiso   1.00
N275   N     0.60153   0.87218   0.17330   0.00000  Uiso   1.00
N276   N     0.90099   0.61697   0.01495   0.00000  Uiso   1.00
C277   C     0.64963   0.65989   0.55134   0.00000  Uiso   1.00
C278   C     0.61337   0.62966   0.60175   0.00000  Uiso   1.00
C279   C     0.62747   0.65298   0.65475   0.00000  Uiso   1.00
C280   C     0.58858   0.61840   0.69519   0.00000  Uiso   1.00
C281   C     0.54003   0.57997   0.77531   0.00000  Uiso   1.00
C282   C     0.59496   0.68420   0.51501   0.00000  Uiso   1.00
C283   C     0.59358   0.75338   0.49508   0.00000  Uiso   1.00
C284   C     0.53920   0.76470   0.46250   0.00000  Uiso   1.00
C285   C     0.46209   0.81094   0.40792   0.00000  Uiso   1.00
C286   C     0.67605   0.59531   0.52189   0.00000  Uiso   1.00
C287   C     0.74285   0.58977   0.50774   0.00000  Uiso   1.00
C288   C     0.75673   0.52626   0.48095   0.00000  Uiso   1.00
C289   C     0.80552   0.43449   0.43706   0.00000  Uiso   1.00
C290   C     0.55550   0.55699   0.52891   0.00000  Uiso   1.00
C291   C     0.56224   0.57376   0.58956   0.00000  Uiso   1.00
C292   C     0.52332   0.53913   0.62993   0.00000  Uiso   1.00
C293   C     0.53736   0.56240   0.68299   0.00000  Uiso   1.00
C294   C     0.54383   0.62831   0.50282   0.00000  Uiso   1.00
C295   C     0.48944   0.63953   0.47026   0.00000  Uiso   1.00
C296   C     0.48797   0.70871   0.45029   0.00000  Uiso   1.00
C297   C     0.62492   0.53942   0.50971   0.00000  Uiso   1.00
C298   C     0.63870   0.47591   0.48293   0.00000  Uiso   1.00
C299   C     0.70550   0.47027   0.46874   0.00000  Uiso   1.00
H300   H     0.68943   0.70341   0.56082   0.00000  Uiso   1.00
H301   H     0.66704   0.69624   0.66416   0.00000  Uiso   1.00
H302   H     0.63316   0.79662   0.50451   0.00000  Uiso   1.00
H303   H     0.78240   0.63303   0.51718   0.00000  Uiso   1.00
H304   H     0.61964   0.66367   0.77336   0.00000  Uiso   1.00
H305   H     0.54822   0.87531   0.43671   0.00000  Uiso   1.00
H306   H     0.86292   0.53035   0.46341   0.00000  Uiso   1.00
H307   H     0.51569   0.51347   0.51942   0.00000  Uiso   1.00
H308   H     0.48376   0.49588   0.62049   0.00000  Uiso   1.00
H309   H     0.44988   0.59626   0.46084   0.00000  Uiso   1.00
H310   H     0.59912   0.43267   0.47350   0.00000  Uiso   1.00
H311   H     0.47088   0.50104   0.73791   0.00000  Uiso   1.00
H312   H     0.39947   0.71269   0.40126   0.00000  Uiso   1.00
H313   H     0.71416   0.36773   0.42797   0.00000  Uiso   1.00
O314   O     0.52737   0.57422   0.82287   0.00000  Uiso   1.00
O315   O     0.43369   0.85189   0.38119   0.00000  Uiso   1.00
O316   O     0.84656   0.39931   0.41623   0.00000  Uiso   1.00
N317   N     0.58902   0.62780   0.75115   0.00000  Uiso   1.00
N318   N     0.52224   0.82568   0.43640   0.00000  Uiso   1.00
N319   N     0.81646   0.50317   0.46136   0.00000  Uiso   1.00
N320   N     0.50898   0.54029   0.73207   0.00000  Uiso   1.00
N321   N     0.44220   0.73817   0.41733   0.00000  Uiso   1.00
N322   N     0.73641   0.41567   0.44229   0.00000  Uiso   1.00
C323   C     0.46696   0.52933   0.02345   0.00000  Uiso   1.00
C324   C     0.48894   0.46643   0.98911   0.00000  Uiso   1.00
C325   C     0.55509   0.45213   0.97998   0.00000  Uiso   1.00
C326   C     0.56465   0.39193   0.94738   0.00000  Uiso   1.00
C327   C     0.60709   0.30097   0.89751   0.00000  Uiso   1.00
C328   C     0.41889   0.49517   0.06617   0.00000  Uiso   1.00
C329   C     0.42615   0.50505   0.12184   0.00000  Uiso   1.00
C330   C     0.37675   0.46905   0.15410   0.00000  Uiso   1.00
C331   C     0.31041   0.42277   0.22388   0.00000  Uiso   1.00
C332   C     0.42407   0.57054   0.98651   0.00000  Uiso   1.00
C333   C     0.43568   0.64380   0.97521   0.00000  Uiso   1.00
C334   C     0.39062   0.67127   0.94041   0.00000  Uiso   1.00
C335   C     0.33233   0.74201   0.88651   0.00000  Uiso   1.00
C336   C     0.36630   0.44785   0.98175   0.00000  Uiso   1.00
C337   C     0.43426   0.42217   0.96646   0.00000  Uiso   1.00
C338   C     0.44372   0.36198   0.93385   0.00000  Uiso   1.00
C339   C     0.50988   0.34760   0.92469   0.00000  Uiso   1.00
C340   C     0.36422   0.45091   0.04352   0.00000  Uiso   1.00
C341   C     0.31479   0.41490   0.07571   0.00000  Uiso   1.00
C342   C     0.32197   0.42472   0.13141   0.00000  Uiso   1.00
C343   C     0.36940   0.52629   0.96386   0.00000  Uiso   1.00
C344   C     0.32431   0.55365   0.92908   0.00000  Uiso   1.00
C345   C     0.33585   0.62694   0.91773   0.00000  Uiso   1.00
H346   H     0.50952   0.56378   0.04108   0.00000  Uiso   1.00
H347   H     0.59739   0.48639   0.99752   0.00000  Uiso   1.00
H348   H     0.46847   0.53931   0.13935   0.00000  Uiso   1.00
H349   H     0.47799   0.67803   0.99274   0.00000  Uiso   1.00
H350   H     0.67069   0.38105   0.93925   0.00000  Uiso   1.00
H351   H     0.39884   0.49265   0.23831   0.00000  Uiso   1.00
H352   H     0.41892   0.78519   0.92916   0.00000  Uiso   1.00
H353   H     0.32373   0.41339   0.96412   0.00000  Uiso   1.00
H354   H     0.40140   0.32774   0.91633   0.00000  Uiso   1.00
H355   H     0.27248   0.38066   0.05817   0.00000  Uiso   1.00
H356   H     0.28201   0.51939   0.91156   0.00000  Uiso   1.00
H357   H     0.51162   0.25228   0.87336   0.00000  Uiso   1.00
H358   H     0.23977   0.36389   0.17242   0.00000  Uiso   1.00
H359   H     0.25985   0.65642   0.86327   0.00000  Uiso   1.00
O360   O     0.64560   0.26302   0.87627   0.00000  Uiso   1.00
O361   O     0.28894   0.40945   0.26863   0.00000  Uiso   1.00
O362   O     0.31529   0.79325   0.86302   0.00000  Uiso   1.00
N363   N     0.62259   0.36251   0.93030   0.00000  Uiso   1.00
N364   N     0.36843   0.46684   0.20990   0.00000  Uiso   1.00
N365   N     0.38720   0.74034   0.92088   0.00000  Uiso   1.00
N366   N     0.53700   0.29322   0.89484   0.00000  Uiso   1.00
N367   N     0.28284   0.39755   0.17444   0.00000  Uiso   1.00
N368   N     0.30161   0.67105   0.88542   0.00000  Uiso   1.00
C369   C     0.01118   0.33276   0.70566   0.00000  Uiso   1.00
C370   C     0.97943   0.40374   0.71261   0.00000  Uiso   1.00
C371   C     0.01438   0.47241   0.71825   0.00000  Uiso   1.00
C372   C     0.97609   0.53049   0.72412   0.00000  Uiso   1.00
C373   C     0.93753   0.64227   0.73484   0.00000  Uiso   1.00
C374   C     0.98209   0.29697   0.65332   0.00000  Uiso   1.00
C375   C     0.01928   0.27586   0.60912   0.00000  Uiso   1.00
C376   C     0.98322   0.24404   0.56509   0.00000  Uiso   1.00
C377   C     0.94879   0.19001   0.48378   0.00000  Uiso   1.00
C378   C     0.98284   0.28457   0.75133   0.00000  Uiso   1.00
C379   C     0.02066   0.25301   0.78953   0.00000  Uiso   1.00
C380   C     0.98524   0.21073   0.82800   0.00000  Uiso   1.00
C381   C     0.95199   0.13744   0.89887   0.00000  Uiso   1.00
C382   C     0.88102   0.31378   0.70606   0.00000  Uiso   1.00
C383   C     0.90873   0.39343   0.71282   0.00000  Uiso   1.00
C384   C     0.87037   0.45141   0.71869   0.00000  Uiso   1.00
C385   C     0.90526   0.52016   0.72434   0.00000  Uiso   1.00
C386   C     0.91139   0.28666   0.65353   0.00000  Uiso   1.00
C387   C     0.87527   0.25486   0.60956   0.00000  Uiso   1.00
C388   C     0.91239   0.23371   0.56530   0.00000  Uiso   1.00
C389   C     0.91214   0.27426   0.75154   0.00000  Uiso   1.00
C390   C     0.87666   0.23201   0.78996   0.00000  Uiso   1.00
C391   C     0.91442   0.20040   0.82822   0.00000  Uiso   1.00
H392   H     0.06622   0.34079   0.70549   0.00000  Uiso   1.00
H393   H     0.06909   0.48037   0.71808   0.00000  Uiso   1.00
H394   H     0.07399   0.28384   0.60897   0.00000  Uiso   1.00
H395   H     0.07537   0.26100   0.78935   0.00000  Uiso   1.00
H396   H     0.04109   0.63058   0.73210   0.00000  Uiso   1.00
H397   H     0.05141   0.21617   0.50205   0.00000  Uiso   1.00
H398   H     0.05434   0.16799   0.88241   0.00000  Uiso   1.00
H399   H     0.82598   0.30575   0.70622   0.00000  Uiso   1.00
H400   H     0.81566   0.44342   0.71885   0.00000  Uiso   1.00
H401   H     0.82056   0.24689   0.60974   0.00000  Uiso   1.00
H402   H     0.82195   0.22404   0.79012   0.00000  Uiso   1.00
H403   H     0.83540   0.60059   0.73273   0.00000  Uiso   1.00
H404   H     0.84572   0.18617   0.50267   0.00000  Uiso   1.00
H405   H     0.84865   0.13800   0.88304   0.00000  Uiso   1.00
O406   O     0.93580   0.70678   0.74069   0.00000  Uiso   1.00
O407   O     0.94934   0.16307   0.43888   0.00000  Uiso   1.00
O408   O     0.95317   0.09988   0.93790   0.00000  Uiso   1.00
N409   N     0.99410   0.60463   0.73053   0.00000  Uiso   1.00
N410   N     0.00375   0.21718   0.51544   0.00000  Uiso   1.00
N411   N     0.00648   0.17213   0.87104   0.00000  Uiso   1.00
N412   N     0.88342   0.58849   0.73086   0.00000  Uiso   1.00
N413   N     0.89307   0.20105   0.51578   0.00000  Uiso   1.00
N414   N     0.89580   0.15599   0.87137   0.00000  Uiso   1.00
C415   C     0.09250   0.92316   0.52181   0.00000  Uiso   1.00
C416   C     0.02492   0.92327   0.49300   0.00000  Uiso   1.00
C417   C     0.00261   0.98185   0.46707   0.00000  Uiso   1.00
C418   C     0.93923   0.97098   0.44314   0.00000  Uiso   1.00
C419   C     0.84030   0.98136   0.39812   0.00000  Uiso   1.00
C420   C     0.07576   0.90005   0.57959   0.00000  Uiso   1.00
C421   C     0.09621   0.93909   0.62646   0.00000  Uiso   1.00
C422   C     0.07564   0.90867   0.67542   0.00000  Uiso   1.00
C423   C     0.05567   0.88297   0.76484   0.00000  Uiso   1.00
C424   C     0.12689   0.86157   0.49533   0.00000  Uiso   1.00
C425   C     0.19034   0.86825   0.47137   0.00000  Uiso   1.00
C426   C     0.21282   0.80542   0.44941   0.00000  Uiso   1.00
C427   C     0.27225   0.71998   0.40801   0.00000  Uiso   1.00
C428   C     0.01963   0.79971   0.52543   0.00000  Uiso   1.00
C429   C     0.98534   0.85622   0.49497   0.00000  Uiso   1.00
C430   C     0.92198   0.84526   0.47107   0.00000  Uiso   1.00
C431   C     0.89958   0.90381   0.44510   0.00000  Uiso   1.00
C432   C     0.03618   0.83300   0.58156   0.00000  Uiso   1.00
C433   C     0.01558   0.80251   0.63046   0.00000  Uiso   1.00
C434   C     0.03598   0.84149   0.67739   0.00000  Uiso   1.00
C435   C     0.08731   0.79451   0.49730   0.00000  Uiso   1.00
C436   C     0.10970   0.73167   0.47537   0.00000  Uiso   1.00
C437   C     0.17317   0.73825   0.45138   0.00000  Uiso   1.00
H438   H     0.12332   0.97537   0.52029   0.00000  Uiso   1.00
H439   H     0.03325   0.03373   0.46556   0.00000  Uiso   1.00
H440   H     0.12684   0.99097   0.62493   0.00000  Uiso   1.00
H441   H     0.22095   0.92015   0.46986   0.00000  Uiso   1.00
H442   H     0.91593   0.06888   0.40577   0.00000  Uiso   1.00
H443   H     0.11328   0.97871   0.74180   0.00000  Uiso   1.00
H444   H     0.31174   0.82935   0.41482   0.00000  Uiso   1.00
H445   H     0.98881   0.74751   0.52696   0.00000  Uiso   1.00
H446   H     0.89136   0.79337   0.47259   0.00000  Uiso   1.00
H447   H     0.98495   0.75061   0.63196   0.00000  Uiso   1.00
H448   H     0.07906   0.67979   0.47690   0.00000  Uiso   1.00
H449   H     0.80076   0.87379   0.41148   0.00000  Uiso   1.00
H450   H     0.99812   0.78362   0.74752   0.00000  Uiso   1.00
H451   H     0.19657   0.63427   0.42053   0.00000  Uiso   1.00
O452   O     0.79666   0.00562   0.37276   0.00000  Uiso   1.00
O453   O     0.05559   0.88732   0.81362   0.00000  Uiso   1.00
O454   O     0.31596   0.69137   0.38462   0.00000  Uiso   1.00
N455   N     0.90220   0.01666   0.41456   0.00000  Uiso   1.00
N456   N     0.08671   0.93237   0.72874   0.00000  Uiso   1.00
N457   N     0.27226   0.79273   0.42305   0.00000  Uiso   1.00
N458   N     0.84023   0.91169   0.41764   0.00000  Uiso   1.00
N459   N     0.02474   0.82740   0.73181   0.00000  Uiso   1.00
N460   N     0.21029   0.68776   0.42612   0.00000  Uiso   1.00
C461   C     0.02853   0.29203   0.23620   0.00000  Uiso   1.00
C462   C     0.09089   0.25266   0.24499   0.00000  Uiso   1.00
C463   C     0.15393   0.28491   0.26125   0.00000  Uiso   1.00
C464   C     0.20445   0.23952   0.26698   0.00000  Uiso   1.00
C465   C     0.30313   0.18980   0.28215   0.00000  Uiso   1.00
C466   C     0.00574   0.27330   0.17815   0.00000  Uiso   1.00
C467   C     0.99719   0.32290   0.13822   0.00000  Uiso   1.00
C468   C     0.97601   0.29487   0.08769   0.00000  Uiso   1.00
C469   C     0.94246   0.27719   0.99912   0.00000  Uiso   1.00
C470   C     0.97360   0.25559   0.27260   0.00000  Uiso   1.00
C471   C     0.93802   0.29030   0.31207   0.00000  Uiso   1.00
C472   C     0.88977   0.24737   0.34106   0.00000  Uiso   1.00
C473   C     0.80632   0.20219   0.39912   0.00000  Uiso   1.00
C474   C     0.00612   0.15407   0.21746   0.00000  Uiso   1.00
C475   C     0.07871   0.17773   0.23481   0.00000  Uiso   1.00
C476   C     0.12914   0.13228   0.24052   0.00000  Uiso   1.00
C477   C     0.19225   0.16445   0.25678   0.00000  Uiso   1.00
C478   C     0.99357   0.19837   0.16798   0.00000  Uiso   1.00
C479   C     0.97240   0.17026   0.11750   0.00000  Uiso   1.00
C480   C     0.96382   0.21981   0.07750   0.00000  Uiso   1.00
C481   C     0.96143   0.18065   0.26243   0.00000  Uiso   1.00
C482   C     0.91323   0.13766   0.29135   0.00000  Uiso   1.00
C483   C     0.87758   0.17230   0.33086   0.00000  Uiso   1.00
H484   H     0.03800   0.35037   0.24411   0.00000  Uiso   1.00
H485   H     0.16333   0.34290   0.26911   0.00000  Uiso   1.00
H486   H     0.00660   0.38088   0.14611   0.00000  Uiso   1.00
H487   H     0.94745   0.34829   0.31994   0.00000  Uiso   1.00
H488   H     0.29693   0.30158   0.29232   0.00000  Uiso   1.00
H489   H     0.96643   0.38167   0.03297   0.00000  Uiso   1.00
H490   H     0.84169   0.31294   0.39952   0.00000  Uiso   1.00
H491   H     0.99664   0.09573   0.20954   0.00000  Uiso   1.00
H492   H     0.11971   0.07429   0.23264   0.00000  Uiso   1.00
H493   H     0.96298   0.11227   0.10964   0.00000  Uiso   1.00
H494   H     0.90382   0.07968   0.28346   0.00000  Uiso   1.00
H495   H     0.26152   0.08357   0.26272   0.00000  Uiso   1.00
H496   H     0.93102   0.16365   0.00336   0.00000  Uiso   1.00
H497   H     0.80628   0.09492   0.36991   0.00000  Uiso   1.00
O498   O     0.36093   0.18307   0.29332   0.00000  Uiso   1.00
O499   O     0.92732   0.28814   0.95307   0.00000  Uiso   1.00
O500   O     0.76366   0.19797   0.43397   0.00000  Uiso   1.00
N501   N     0.27170   0.25321   0.28219   0.00000  Uiso   1.00
N502   N     0.96272   0.32809   0.03971   0.00000  Uiso   1.00
N503   N     0.84608   0.26384   0.38239   0.00000  Uiso   1.00
N504   N     0.25265   0.13590   0.26626   0.00000  Uiso   1.00
N505   N     0.94366   0.21077   0.02378   0.00000  Uiso   1.00
N506   N     0.82703   0.14652   0.36646   0.00000  Uiso   1.00
C507   C     0.39683   0.01641   0.08446   0.00000  Uiso   1.00
C508   C     0.37051   0.94550   0.11102   0.00000  Uiso   1.00
C509   C     0.40041   0.91455   0.15415   0.00000  Uiso   1.00
C510   C     0.36851   0.84946   0.17262   0.00000  Uiso   1.00
C511   C     0.33674   0.74434   0.21748   0.00000  Uiso   1.00
C512   C     0.40541   0.99779   0.02447   0.00000  Uiso   1.00
C513   C     0.46464   0.01080   0.99484   0.00000  Uiso   1.00
C514   C     0.46211   0.98975   0.94044   0.00000  Uiso   1.00
C515   C     0.48450   0.96585   0.85093   0.00000  Uiso   1.00
C516   C     0.33931   0.06446   0.08777   0.00000  Uiso   1.00
C517   C     0.34297   0.13355   0.11134   0.00000  Uiso   1.00
C518   C     0.28480   0.16864   0.11023   0.00000  Uiso   1.00
C519   C     0.20458   0.24826   0.11899   0.00000  Uiso   1.00
C520   C     0.28702   0.95588   0.04054   0.00000  Uiso   1.00
C521   C     0.31087   0.91262   0.08717   0.00000  Uiso   1.00
C522   C     0.27892   0.84757   0.10557   0.00000  Uiso   1.00
C523   C     0.30876   0.81653   0.14872   0.00000  Uiso   1.00
C524   C     0.34576   0.96491   0.00062   0.00000  Uiso   1.00
C525   C     0.34315   0.94383   0.94625   0.00000  Uiso   1.00
C526   C     0.40236   0.95681   0.91654   0.00000  Uiso   1.00
C527   C     0.27967   0.03158   0.06392   0.00000  Uiso   1.00
C528   C     0.22148   0.06658   0.06276   0.00000  Uiso   1.00
C529   C     0.22505   0.13570   0.08633   0.00000  Uiso   1.00
H530   H     0.44326   0.04201   0.10302   0.00000  Uiso   1.00
H531   H     0.44657   0.94000   0.17260   0.00000  Uiso   1.00
H532   H     0.51078   0.03626   0.01331   0.00000  Uiso   1.00
H533   H     0.38914   0.15898   0.12980   0.00000  Uiso   1.00
H534   H     0.42394   0.81240   0.23921   0.00000  Uiso   1.00
H535   H     0.55934   0.01537   0.90333   0.00000  Uiso   1.00
H536   H     0.30283   0.27416   0.14897   0.00000  Uiso   1.00
H537   H     0.24058   0.93028   0.02197   0.00000  Uiso   1.00
H538   H     0.23276   0.82214   0.08710   0.00000  Uiso   1.00
H539   H     0.29698   0.91839   0.92781   0.00000  Uiso   1.00
H540   H     0.17534   0.04112   0.04430   0.00000  Uiso   1.00
H541   H     0.25041   0.71673   0.16981   0.00000  Uiso   1.00
H542   H     0.38581   0.91971   0.83393   0.00000  Uiso   1.00
H543   H     0.12930   0.17850   0.07958   0.00000  Uiso   1.00
O544   O     0.33570   0.69543   0.24881   0.00000  Uiso   1.00
O545   O     0.51333   0.96174   0.80814   0.00000  Uiso   1.00
O546   O     0.17680   0.30126   0.13042   0.00000  Uiso   1.00
N547   N     0.38417   0.80473   0.21394   0.00000  Uiso   1.00
N548   N     0.51076   0.99449   0.89992   0.00000  Uiso   1.00
N549   N     0.27095   0.23644   0.12956   0.00000  Uiso   1.00
N550   N     0.29079   0.75326   0.17660   0.00000  Uiso   1.00
N551   N     0.41738   0.94301   0.86258   0.00000  Uiso   1.00
N552   N     0.17757   0.18497   0.09222   0.00000  Uiso   1.00
