data_job_05342
_audit_creation_date              2018-12-19
_audit_creation_method            'Materials Studio'
_symmetry_space_group_name_H-M    'P1'
_symmetry_Int_Tables_number       1
_symmetry_cell_setting            triclinic
loop_
_symmetry_equiv_pos_as_xyz
  x,y,z
_cell_length_a                    10.9949
_cell_length_b                    13.1962
_cell_length_c                    15.9047
_cell_angle_alpha                 96.6595
_cell_angle_beta                  92.6643
_cell_angle_gamma                 88.5342
loop_
_atom_site_label
_atom_site_type_symbol
_atom_site_fract_x
_atom_site_fract_y
_atom_site_fract_z
_atom_site_U_iso_or_equiv
_atom_site_adp_type
_atom_site_occupancy
C1     C     0.43045   0.69169   0.15149   0.00000  Uiso   1.00
C2     C     0.35729   0.69045   0.06755   0.00000  Uiso   1.00
C3     C     0.34513   0.60720   0.00611   0.00000  Uiso   1.00
C4     C     0.27431   0.62157   0.93373   0.00000  Uiso   1.00
C5     C     0.16937   0.60531   0.80496   0.00000  Uiso   1.00
C6     C     0.52110   0.77754   0.15321   0.00000  Uiso   1.00
C7     C     0.64666   0.76751   0.16382   0.00000  Uiso   1.00
C8     C     0.71373   0.85520   0.16355   0.00000  Uiso   1.00
C9     C     0.86310   0.97416   0.16784   0.00000  Uiso   1.00
C10    C     0.34159   0.72603   0.22047   0.00000  Uiso   1.00
C11    C     0.31624   0.67272   0.28764   0.00000  Uiso   1.00
C12    C     0.23220   0.71705   0.34402   0.00000  Uiso   1.00
C13    C     0.10285   0.75605   0.45274   0.00000  Uiso   1.00
C14    C     0.32629   0.86525   0.13218   0.00000  Uiso   1.00
C15    C     0.30072   0.78472   0.05706   0.00000  Uiso   1.00
C16    C     0.22989   0.79922   0.98475   0.00000  Uiso   1.00
C17    C     0.21762   0.71600   0.92322   0.00000  Uiso   1.00
C18    C     0.46453   0.87181   0.14272   0.00000  Uiso   1.00
C19    C     0.53142   0.95953   0.14245   0.00000  Uiso   1.00
C20    C     0.65705   0.94964   0.15304   0.00000  Uiso   1.00
C21    C     0.28501   0.82030   0.20998   0.00000  Uiso   1.00
C22    C     0.20100   0.86474   0.26627   0.00000  Uiso   1.00
C23    C     0.17552   0.81149   0.33351   0.00000  Uiso   1.00
H24    H     0.47450   0.61831   0.15966   0.00000  Uiso   1.00
H25    H     0.38894   0.53426   0.01425   0.00000  Uiso   1.00
H26    H     0.69042   0.69455   0.17194   0.00000  Uiso   1.00
H27    H     0.36004   0.59977   0.29574   0.00000  Uiso   1.00
H28    H     0.26916   0.48266   0.84840   0.00000  Uiso   1.00
H29    H     0.90484   0.82065   0.18092   0.00000  Uiso   1.00
H30    H     0.20819   0.62079   0.44198   0.00000  Uiso   1.00
H31    H     0.28224   0.93865   0.12401   0.00000  Uiso   1.00
H32    H     0.18612   0.87218   0.97665   0.00000  Uiso   1.00
H33    H     0.48761   0.03247   0.13433   0.00000  Uiso   1.00
H34    H     0.15723   0.93769   0.25813   0.00000  Uiso   1.00
H35    H     0.10455   0.75693   0.81788   0.00000  Uiso   1.00
H36    H     0.74024   0.09492   0.15040   0.00000  Uiso   1.00
H37    H     0.04358   0.89506   0.41146   0.00000  Uiso   1.00
O38    O     0.12713   0.57030   0.73683   0.00000  Uiso   1.00
O39    O     0.96112   0.01373   0.17310   0.00000  Uiso   1.00
O40    O     0.04712   0.75151   0.51560   0.00000  Uiso   1.00
N41    N     0.24359   0.55633   0.86145   0.00000  Uiso   1.00
N42    N     0.83792   0.87232   0.17232   0.00000  Uiso   1.00
N43    N     0.18663   0.68548   0.41640   0.00000  Uiso   1.00
N44    N     0.15501   0.70391   0.84503   0.00000  Uiso   1.00
N45    N     0.74934   0.01990   0.15590   0.00000  Uiso   1.00
N46    N     0.09805   0.83306   0.39998   0.00000  Uiso   1.00
C47    C     0.41385   0.32205   0.37899   0.00000  Uiso   1.00
C48    C     0.32857   0.30257   0.44806   0.00000  Uiso   1.00
C49    C     0.30077   0.37102   0.51784   0.00000  Uiso   1.00
C50    C     0.22077   0.33871   0.57380   0.00000  Uiso   1.00
C51    C     0.09605   0.32325   0.68310   0.00000  Uiso   1.00
C52    C     0.51023   0.23669   0.37643   0.00000  Uiso   1.00
C53    C     0.63516   0.24976   0.38598   0.00000  Uiso   1.00
C54    C     0.70806   0.16199   0.38164   0.00000  Uiso   1.00
C55    C     0.86537   0.04426   0.37969   0.00000  Uiso   1.00
C56    C     0.33928   0.30414   0.29555   0.00000  Uiso   1.00
C57    C     0.32049   0.37391   0.23708   0.00000  Uiso   1.00
C58    C     0.24949   0.34292   0.16463   0.00000  Uiso   1.00
C59    C     0.14137   0.32991   0.03710   0.00000  Uiso   1.00
C60    C     0.32120   0.14296   0.35428   0.00000  Uiso   1.00
C61    C     0.27825   0.20530   0.43464   0.00000  Uiso   1.00
C62    C     0.19826   0.17288   0.49050   0.00000  Uiso   1.00
C63    C     0.17035   0.24127   0.56035   0.00000  Uiso   1.00
C64    C     0.45991   0.13942   0.36302   0.00000  Uiso   1.00
C65    C     0.53265   0.05162   0.35865   0.00000  Uiso   1.00
C66    C     0.65765   0.06454   0.36819   0.00000  Uiso   1.00
C67    C     0.28895   0.20687   0.28213   0.00000  Uiso   1.00
C68    C     0.21798   0.17577   0.20975   0.00000  Uiso   1.00
C69    C     0.19908   0.24547   0.15118   0.00000  Uiso   1.00
H70    H     0.45304   0.39777   0.38944   0.00000  Uiso   1.00
H71    H     0.33975   0.44629   0.52820   0.00000  Uiso   1.00
H72    H     0.67407   0.32504   0.39636   0.00000  Uiso   1.00
H73    H     0.35945   0.44917   0.24749   0.00000  Uiso   1.00
H74    H     0.19198   0.45716   0.67615   0.00000  Uiso   1.00
H75    H     0.89693   0.20151   0.39812   0.00000  Uiso   1.00
H76    H     0.23349   0.46327   0.08419   0.00000  Uiso   1.00
H77    H     0.28202   0.06722   0.34384   0.00000  Uiso   1.00
H78    H     0.15934   0.09760   0.48010   0.00000  Uiso   1.00
H79    H     0.49367   0.97636   0.34826   0.00000  Uiso   1.00
H80    H     0.17905   0.10049   0.19939   0.00000  Uiso   1.00
H81    H     0.04556   0.17415   0.63711   0.00000  Uiso   1.00
H82    H     0.75052   0.91850   0.35908   0.00000  Uiso   1.00
H83    H     0.08707   0.18026   0.04515   0.00000  Uiso   1.00
O84    O     0.04118   0.34159   0.74711   0.00000  Uiso   1.00
O85    O     0.96605   0.00619   0.38233   0.00000  Uiso   1.00
O86    O     0.09562   0.34961   0.97047   0.00000  Uiso   1.00
N87    N     0.17434   0.38639   0.64825   0.00000  Uiso   1.00
N88    N     0.83342   0.14738   0.38833   0.00000  Uiso   1.00
N89    N     0.21319   0.39209   0.09482   0.00000  Uiso   1.00
N90    N     0.09555   0.23411   0.62725   0.00000  Uiso   1.00
N91    N     0.75464   0.99509   0.36732   0.00000  Uiso   1.00
N92    N     0.13440   0.23981   0.07381   0.00000  Uiso   1.00
C93    C     0.56168   0.31376   0.88707   0.00000  Uiso   1.00
C94    C     0.65003   0.29101   0.95960   0.00000  Uiso   1.00
C95    C     0.67955   0.35781   0.03117   0.00000  Uiso   1.00
C96    C     0.76230   0.32254   0.09025   0.00000  Uiso   1.00
C97    C     0.89162   0.30217   0.20473   0.00000  Uiso   1.00
C98    C     0.46638   0.23087   0.87957   0.00000  Uiso   1.00
C99    C     0.34150   0.24712   0.88385   0.00000  Uiso   1.00
C100   C     0.26966   0.16122   0.87555   0.00000  Uiso   1.00
C101   C     0.11387   0.04750   0.86573   0.00000  Uiso   1.00
C102   C     0.63336   0.29506   0.80673   0.00000  Uiso   1.00
C103   C     0.64885   0.36528   0.74975   0.00000  Uiso   1.00
C104   C     0.71756   0.33342   0.68011   0.00000  Uiso   1.00
C105   C     0.82103   0.31937   0.55719   0.00000  Uiso   1.00
C106   C     0.65614   0.13232   0.86472   0.00000  Uiso   1.00
C107   C     0.70133   0.19245   0.94745   0.00000  Uiso   1.00
C108   C     0.78406   0.15707   0.00644   0.00000  Uiso   1.00
C109   C     0.81370   0.22381   0.07808   0.00000  Uiso   1.00
C110   C     0.51768   0.13232   0.86743   0.00000  Uiso   1.00
C111   C     0.44601   0.04637   0.85911   0.00000  Uiso   1.00
C112   C     0.32105   0.06249   0.86338   0.00000  Uiso   1.00
C113   C     0.68467   0.19651   0.79459   0.00000  Uiso   1.00
C114   C     0.75336   0.16453   0.72502   0.00000  Uiso   1.00
C115   C     0.76896   0.23468   0.66795   0.00000  Uiso   1.00
H116   H     0.52173   0.39048   0.89653   0.00000  Uiso   1.00
H117   H     0.63982   0.43407   0.04055   0.00000  Uiso   1.00
H118   H     0.30182   0.32339   0.89324   0.00000  Uiso   1.00
H119   H     0.60913   0.44153   0.75917   0.00000  Uiso   1.00
H120   H     0.79333   0.43892   0.19488   0.00000  Uiso   1.00
H121   H     0.08065   0.20555   0.88425   0.00000  Uiso   1.00
H122   H     0.72866   0.45468   0.60153   0.00000  Uiso   1.00
H123   H     0.69608   0.05559   0.85526   0.00000  Uiso   1.00
H124   H     0.82375   0.08080   0.99702   0.00000  Uiso   1.00
H125   H     0.48574   0.97012   0.84971   0.00000  Uiso   1.00
H126   H     0.79305   0.08826   0.71564   0.00000  Uiso   1.00
H127   H     0.94261   0.15218   0.15956   0.00000  Uiso   1.00
H128   H     0.22992   0.91882   0.84892   0.00000  Uiso   1.00
H129   H     0.87794   0.16794   0.56620   0.00000  Uiso   1.00
O130   O     0.94877   0.31816   0.27123   0.00000  Uiso   1.00
O131   O     0.01376   0.01200   0.86367   0.00000  Uiso   1.00
O132   O     0.86394   0.33885   0.49276   0.00000  Uiso   1.00
N133   N     0.81096   0.36798   0.16711   0.00000  Uiso   1.00
N134   N     0.14465   0.14980   0.87669   0.00000  Uiso   1.00
N135   N     0.75045   0.38270   0.61236   0.00000  Uiso   1.00
N136   N     0.89129   0.21369   0.14810   0.00000  Uiso   1.00
N137   N     0.22497   0.99551   0.85769   0.00000  Uiso   1.00
N138   N     0.83078   0.22841   0.59335   0.00000  Uiso   1.00
C139   C     0.54890   0.69392   0.65334   0.00000  Uiso   1.00
C140   C     0.61895   0.68901   0.57239   0.00000  Uiso   1.00
C141   C     0.62844   0.60480   0.51193   0.00000  Uiso   1.00
C142   C     0.69665   0.61569   0.44234   0.00000  Uiso   1.00
C143   C     0.79675   0.59411   0.31794   0.00000  Uiso   1.00
C144   C     0.45863   0.78328   0.65062   0.00000  Uiso   1.00
C145   C     0.33333   0.77833   0.65595   0.00000  Uiso   1.00
C146   C     0.26659   0.86858   0.65223   0.00000  Uiso   1.00
C147   C     0.11781   0.99337   0.64936   0.00000  Uiso   1.00
C148   C     0.64057   0.72533   0.72600   0.00000  Uiso   1.00
C149   C     0.66822   0.67168   0.79473   0.00000  Uiso   1.00
C150   C     0.75465   0.71316   0.85449   0.00000  Uiso   1.00
C151   C     0.88835   0.74798   0.96866   0.00000  Uiso   1.00
C152   C     0.65318   0.86299   0.63728   0.00000  Uiso   1.00
C153   C     0.67558   0.78084   0.56366   0.00000  Uiso   1.00
C154   C     0.74381   0.79186   0.49415   0.00000  Uiso   1.00
C155   C     0.75340   0.70768   0.43360   0.00000  Uiso   1.00
C156   C     0.51526   0.87511   0.64190   0.00000  Uiso   1.00
C157   C     0.44870   0.96538   0.63818   0.00000  Uiso   1.00
C158   C     0.32333   0.96057   0.64349   0.00000  Uiso   1.00
C159   C     0.69721   0.81716   0.71728   0.00000  Uiso   1.00
C160   C     0.78360   0.85873   0.77695   0.00000  Uiso   1.00
C161   C     0.81139   0.80515   0.84575   0.00000  Uiso   1.00
H162   H     0.50480   0.62243   0.66014   0.00000  Uiso   1.00
H163   H     0.58458   0.53375   0.51870   0.00000  Uiso   1.00
H164   H     0.28953   0.70726   0.66271   0.00000  Uiso   1.00
H165   H     0.62438   0.60062   0.80146   0.00000  Uiso   1.00
H166   H     0.69798   0.47595   0.35802   0.00000  Uiso   1.00
H167   H     0.07584   0.84180   0.66171   0.00000  Uiso   1.00
H168   H     0.78193   0.61694   0.95430   0.00000  Uiso   1.00
H169   H     0.69727   0.93448   0.63049   0.00000  Uiso   1.00
H170   H     0.78762   0.86293   0.48742   0.00000  Uiso   1.00
H171   H     0.49256   0.03643   0.63143   0.00000  Uiso   1.00
H172   H     0.82741   0.92980   0.77018   0.00000  Uiso   1.00
H173   H     0.86277   0.74312   0.33263   0.00000  Uiso   1.00
H174   H     0.24063   0.10897   0.63632   0.00000  Uiso   1.00
H175   H     0.94672   0.88411   0.92891   0.00000  Uiso   1.00
O176   O     0.83630   0.55685   0.25174   0.00000  Uiso   1.00
O177   O     0.02009   0.03683   0.65017   0.00000  Uiso   1.00
O178   O     0.94646   0.74181   0.03404   0.00000  Uiso   1.00
N179   N     0.72438   0.54864   0.37169   0.00000  Uiso   1.00
N180   N     0.14272   0.89069   0.65560   0.00000  Uiso   1.00
N181   N     0.80283   0.68047   0.92916   0.00000  Uiso   1.00
N182   N     0.81306   0.69241   0.35803   0.00000  Uiso   1.00
N183   N     0.23139   0.03445   0.64194   0.00000  Uiso   1.00
N184   N     0.89150   0.82424   0.91550   0.00000  Uiso   1.00
