data_job_04765
_audit_creation_date              2018-12-19
_audit_creation_method            'Materials Studio'
_symmetry_space_group_name_H-M    'P1'
_symmetry_Int_Tables_number       1
_symmetry_cell_setting            triclinic
loop_
_symmetry_equiv_pos_as_xyz
  x,y,z
_cell_length_a                    35.2257
_cell_length_b                    8.2214
_cell_length_c                    16.9735
_cell_angle_alpha                 90.0000
_cell_angle_beta                  112.2120
_cell_angle_gamma                 90.0000
loop_
_atom_site_label
_atom_site_type_symbol
_atom_site_fract_x
_atom_site_fract_y
_atom_site_fract_z
_atom_site_U_iso_or_equiv
_atom_site_adp_type
_atom_site_occupancy
C1     C     0.37796   0.92577   0.64126   0.00000  Uiso   1.00
C2     C     0.41932   0.92275   0.63180   0.00000  Uiso   1.00
C3     C     0.44463   0.78805   0.64381   0.00000  Uiso   1.00
C4     C     0.48123   0.81029   0.63212   0.00000  Uiso   1.00
C5     C     0.54380   0.78256   0.62096   0.00000  Uiso   1.00
C6     C     0.38118   0.05800   0.70649   0.00000  Uiso   1.00
C7     C     0.37443   0.03702   0.78128   0.00000  Uiso   1.00
C8     C     0.37891   0.17313   0.83245   0.00000  Uiso   1.00
C9     C     0.38225   0.35541   0.93720   0.00000  Uiso   1.00
C10    C     0.34706   0.98778   0.55665   0.00000  Uiso   1.00
C11    C     0.31162   0.90778   0.50546   0.00000  Uiso   1.00
C12    C     0.28738   0.98478   0.43048   0.00000  Uiso   1.00
C13    C     0.23775   0.05803   0.30258   0.00000  Uiso   1.00
C14    C     0.39792   0.20479   0.59915   0.00000  Uiso   1.00
C15    C     0.43016   0.07431   0.60893   0.00000  Uiso   1.00
C16    C     0.46672   0.09675   0.59722   0.00000  Uiso   1.00
C17    C     0.49209   0.96211   0.60920   0.00000  Uiso   1.00
C18    C     0.39202   0.20955   0.68362   0.00000  Uiso   1.00
C19    C     0.39651   0.34573   0.73469   0.00000  Uiso   1.00
C20    C     0.38977   0.32496   0.80954   0.00000  Uiso   1.00
C21    C     0.35791   0.13933   0.53377   0.00000  Uiso   1.00
C22    C     0.33371   0.21648   0.45887   0.00000  Uiso   1.00
C23    C     0.29824   0.13661   0.40757   0.00000  Uiso   1.00
H24    H     0.36952   0.80779   0.65907   0.00000  Uiso   1.00
H25    H     0.43623   0.67079   0.66152   0.00000  Uiso   1.00
H26    H     0.36603   0.91973   0.79896   0.00000  Uiso   1.00
H27    H     0.30324   0.79050   0.52318   0.00000  Uiso   1.00
H28    H     0.51499   0.58575   0.65417   0.00000  Uiso   1.00
H29    H     0.36696   0.11067   0.94396   0.00000  Uiso   1.00
H30    H     0.23454   0.83817   0.36243   0.00000  Uiso   1.00
H31    H     0.40636   0.32279   0.58134   0.00000  Uiso   1.00
H32    H     0.47510   0.21405   0.57952   0.00000  Uiso   1.00
H33    H     0.40490   0.46299   0.71696   0.00000  Uiso   1.00
H34    H     0.34211   0.33376   0.44119   0.00000  Uiso   1.00
H35    H     0.54654   0.02668   0.58762   0.00000  Uiso   1.00
H36    H     0.39850   0.55160   0.87741   0.00000  Uiso   1.00
H37    H     0.26609   0.27910   0.29588   0.00000  Uiso   1.00
O38    O     0.57533   0.72540   0.62113   0.00000  Uiso   1.00
O39    O     0.38110   0.41407   0.00131   0.00000  Uiso   1.00
O40    O     0.20738   0.05656   0.23835   0.00000  Uiso   1.00
N41    N     0.51298   0.70444   0.63874   0.00000  Uiso   1.00
N42    N     0.37458   0.19520   0.90968   0.00000  Uiso   1.00
N43    N     0.25078   0.94045   0.36601   0.00000  Uiso   1.00
N44    N     0.52995   0.94170   0.60293   0.00000  Uiso   1.00
N45    N     0.39156   0.43246   0.87387   0.00000  Uiso   1.00
N46    N     0.26776   0.17771   0.33020   0.00000  Uiso   1.00
C47    C     0.87796   0.42577   0.64126   0.00000  Uiso   1.00
C48    C     0.91932   0.42275   0.63180   0.00000  Uiso   1.00
C49    C     0.94463   0.28805   0.64381   0.00000  Uiso   1.00
C50    C     0.98123   0.31029   0.63212   0.00000  Uiso   1.00
C51    C     0.04380   0.28256   0.62096   0.00000  Uiso   1.00
C52    C     0.88118   0.55800   0.70649   0.00000  Uiso   1.00
C53    C     0.87443   0.53702   0.78128   0.00000  Uiso   1.00
C54    C     0.87891   0.67313   0.83245   0.00000  Uiso   1.00
C55    C     0.88225   0.85541   0.93720   0.00000  Uiso   1.00
C56    C     0.84706   0.48778   0.55665   0.00000  Uiso   1.00
C57    C     0.81162   0.40778   0.50546   0.00000  Uiso   1.00
C58    C     0.78738   0.48478   0.43048   0.00000  Uiso   1.00
C59    C     0.73775   0.55803   0.30258   0.00000  Uiso   1.00
C60    C     0.89792   0.70479   0.59915   0.00000  Uiso   1.00
C61    C     0.93016   0.57431   0.60893   0.00000  Uiso   1.00
C62    C     0.96672   0.59675   0.59722   0.00000  Uiso   1.00
C63    C     0.99209   0.46211   0.60920   0.00000  Uiso   1.00
C64    C     0.89202   0.70955   0.68362   0.00000  Uiso   1.00
C65    C     0.89651   0.84573   0.73469   0.00000  Uiso   1.00
C66    C     0.88977   0.82496   0.80954   0.00000  Uiso   1.00
C67    C     0.85791   0.63933   0.53377   0.00000  Uiso   1.00
C68    C     0.83371   0.71648   0.45887   0.00000  Uiso   1.00
C69    C     0.79824   0.63661   0.40757   0.00000  Uiso   1.00
H70    H     0.86952   0.30779   0.65907   0.00000  Uiso   1.00
H71    H     0.93623   0.17079   0.66152   0.00000  Uiso   1.00
H72    H     0.86603   0.41973   0.79896   0.00000  Uiso   1.00
H73    H     0.80324   0.29050   0.52318   0.00000  Uiso   1.00
H74    H     0.01499   0.08575   0.65417   0.00000  Uiso   1.00
H75    H     0.86696   0.61067   0.94396   0.00000  Uiso   1.00
H76    H     0.73454   0.33817   0.36243   0.00000  Uiso   1.00
H77    H     0.90636   0.82279   0.58134   0.00000  Uiso   1.00
H78    H     0.97510   0.71405   0.57952   0.00000  Uiso   1.00
H79    H     0.90490   0.96299   0.71696   0.00000  Uiso   1.00
H80    H     0.84211   0.83376   0.44119   0.00000  Uiso   1.00
H81    H     0.04654   0.52668   0.58762   0.00000  Uiso   1.00
H82    H     0.89850   0.05160   0.87741   0.00000  Uiso   1.00
H83    H     0.76609   0.77910   0.29588   0.00000  Uiso   1.00
O84    O     0.07533   0.22540   0.62113   0.00000  Uiso   1.00
O85    O     0.88110   0.91407   0.00131   0.00000  Uiso   1.00
O86    O     0.70738   0.55656   0.23835   0.00000  Uiso   1.00
N87    N     0.01298   0.20444   0.63874   0.00000  Uiso   1.00
N88    N     0.87458   0.69520   0.90968   0.00000  Uiso   1.00
N89    N     0.75078   0.44045   0.36601   0.00000  Uiso   1.00
N90    N     0.02995   0.44170   0.60293   0.00000  Uiso   1.00
N91    N     0.89156   0.93246   0.87387   0.00000  Uiso   1.00
N92    N     0.76776   0.67771   0.33020   0.00000  Uiso   1.00
C93    C     0.62204   0.92577   0.85874   0.00000  Uiso   1.00
C94    C     0.58068   0.92275   0.86820   0.00000  Uiso   1.00
C95    C     0.55537   0.78805   0.85619   0.00000  Uiso   1.00
C96    C     0.51877   0.81029   0.86788   0.00000  Uiso   1.00
C97    C     0.45620   0.78256   0.87904   0.00000  Uiso   1.00
C98    C     0.61882   0.05800   0.79351   0.00000  Uiso   1.00
C99    C     0.62557   0.03702   0.71872   0.00000  Uiso   1.00
C100   C     0.62109   0.17313   0.66755   0.00000  Uiso   1.00
C101   C     0.61775   0.35541   0.56280   0.00000  Uiso   1.00
C102   C     0.65294   0.98778   0.94335   0.00000  Uiso   1.00
C103   C     0.68838   0.90778   0.99454   0.00000  Uiso   1.00
C104   C     0.71262   0.98478   0.06952   0.00000  Uiso   1.00
C105   C     0.76225   0.05803   0.19742   0.00000  Uiso   1.00
C106   C     0.60208   0.20479   0.90085   0.00000  Uiso   1.00
C107   C     0.56984   0.07431   0.89107   0.00000  Uiso   1.00
C108   C     0.53328   0.09675   0.90278   0.00000  Uiso   1.00
C109   C     0.50791   0.96211   0.89080   0.00000  Uiso   1.00
C110   C     0.60798   0.20955   0.81638   0.00000  Uiso   1.00
C111   C     0.60349   0.34573   0.76531   0.00000  Uiso   1.00
C112   C     0.61023   0.32496   0.69046   0.00000  Uiso   1.00
C113   C     0.64209   0.13933   0.96623   0.00000  Uiso   1.00
C114   C     0.66629   0.21648   0.04113   0.00000  Uiso   1.00
C115   C     0.70176   0.13661   0.09243   0.00000  Uiso   1.00
H116   H     0.63048   0.80779   0.84093   0.00000  Uiso   1.00
H117   H     0.56377   0.67079   0.83848   0.00000  Uiso   1.00
H118   H     0.63397   0.91973   0.70104   0.00000  Uiso   1.00
H119   H     0.69676   0.79050   0.97682   0.00000  Uiso   1.00
H120   H     0.48501   0.58575   0.84583   0.00000  Uiso   1.00
H121   H     0.63304   0.11067   0.55604   0.00000  Uiso   1.00
H122   H     0.76546   0.83817   0.13757   0.00000  Uiso   1.00
H123   H     0.59364   0.32279   0.91866   0.00000  Uiso   1.00
H124   H     0.52490   0.21405   0.92048   0.00000  Uiso   1.00
H125   H     0.59510   0.46299   0.78304   0.00000  Uiso   1.00
H126   H     0.65789   0.33376   0.05881   0.00000  Uiso   1.00
H127   H     0.45346   0.02668   0.91238   0.00000  Uiso   1.00
H128   H     0.60150   0.55160   0.62259   0.00000  Uiso   1.00
H129   H     0.73391   0.27910   0.20412   0.00000  Uiso   1.00
O130   O     0.42467   0.72540   0.87887   0.00000  Uiso   1.00
O131   O     0.61890   0.41407   0.49869   0.00000  Uiso   1.00
O132   O     0.79262   0.05656   0.26165   0.00000  Uiso   1.00
N133   N     0.48702   0.70444   0.86126   0.00000  Uiso   1.00
N134   N     0.62542   0.19520   0.59032   0.00000  Uiso   1.00
N135   N     0.74922   0.94045   0.13399   0.00000  Uiso   1.00
N136   N     0.47005   0.94170   0.89707   0.00000  Uiso   1.00
N137   N     0.60844   0.43246   0.62613   0.00000  Uiso   1.00
N138   N     0.73224   0.17771   0.16980   0.00000  Uiso   1.00
C139   C     0.12204   0.42577   0.85874   0.00000  Uiso   1.00
C140   C     0.08068   0.42275   0.86820   0.00000  Uiso   1.00
C141   C     0.05537   0.28805   0.85619   0.00000  Uiso   1.00
C142   C     0.01877   0.31029   0.86788   0.00000  Uiso   1.00
C143   C     0.95620   0.28256   0.87904   0.00000  Uiso   1.00
C144   C     0.11882   0.55800   0.79351   0.00000  Uiso   1.00
C145   C     0.12557   0.53702   0.71872   0.00000  Uiso   1.00
C146   C     0.12109   0.67313   0.66755   0.00000  Uiso   1.00
C147   C     0.11775   0.85541   0.56280   0.00000  Uiso   1.00
C148   C     0.15294   0.48778   0.94335   0.00000  Uiso   1.00
C149   C     0.18838   0.40778   0.99454   0.00000  Uiso   1.00
C150   C     0.21262   0.48478   0.06952   0.00000  Uiso   1.00
C151   C     0.26225   0.55803   0.19742   0.00000  Uiso   1.00
C152   C     0.10208   0.70479   0.90085   0.00000  Uiso   1.00
C153   C     0.06984   0.57431   0.89107   0.00000  Uiso   1.00
C154   C     0.03328   0.59675   0.90278   0.00000  Uiso   1.00
C155   C     0.00791   0.46211   0.89080   0.00000  Uiso   1.00
C156   C     0.10798   0.70955   0.81638   0.00000  Uiso   1.00
C157   C     0.10349   0.84573   0.76531   0.00000  Uiso   1.00
C158   C     0.11023   0.82496   0.69046   0.00000  Uiso   1.00
C159   C     0.14209   0.63933   0.96623   0.00000  Uiso   1.00
C160   C     0.16629   0.71648   0.04113   0.00000  Uiso   1.00
C161   C     0.20176   0.63661   0.09243   0.00000  Uiso   1.00
H162   H     0.13048   0.30779   0.84093   0.00000  Uiso   1.00
H163   H     0.06377   0.17079   0.83848   0.00000  Uiso   1.00
H164   H     0.13397   0.41973   0.70104   0.00000  Uiso   1.00
H165   H     0.19676   0.29050   0.97682   0.00000  Uiso   1.00
H166   H     0.98501   0.08575   0.84583   0.00000  Uiso   1.00
H167   H     0.13304   0.61067   0.55604   0.00000  Uiso   1.00
H168   H     0.26546   0.33817   0.13757   0.00000  Uiso   1.00
H169   H     0.09364   0.82279   0.91866   0.00000  Uiso   1.00
H170   H     0.02490   0.71405   0.92048   0.00000  Uiso   1.00
H171   H     0.09510   0.96299   0.78304   0.00000  Uiso   1.00
H172   H     0.15789   0.83376   0.05881   0.00000  Uiso   1.00
H173   H     0.95346   0.52668   0.91238   0.00000  Uiso   1.00
H174   H     0.10150   0.05160   0.62259   0.00000  Uiso   1.00
H175   H     0.23391   0.77910   0.20412   0.00000  Uiso   1.00
O176   O     0.92467   0.22540   0.87887   0.00000  Uiso   1.00
O177   O     0.11890   0.91407   0.49869   0.00000  Uiso   1.00
O178   O     0.29262   0.55656   0.26165   0.00000  Uiso   1.00
N179   N     0.98702   0.20444   0.86126   0.00000  Uiso   1.00
N180   N     0.12542   0.69520   0.59032   0.00000  Uiso   1.00
N181   N     0.24922   0.44045   0.13399   0.00000  Uiso   1.00
N182   N     0.97005   0.44170   0.89707   0.00000  Uiso   1.00
N183   N     0.10844   0.93246   0.62613   0.00000  Uiso   1.00
N184   N     0.23224   0.67771   0.16980   0.00000  Uiso   1.00
C185   C     0.62204   0.07423   0.35874   0.00000  Uiso   1.00
C186   C     0.58068   0.07725   0.36820   0.00000  Uiso   1.00
C187   C     0.55537   0.21195   0.35619   0.00000  Uiso   1.00
C188   C     0.51877   0.18971   0.36788   0.00000  Uiso   1.00
C189   C     0.45620   0.21744   0.37904   0.00000  Uiso   1.00
C190   C     0.61882   0.94200   0.29351   0.00000  Uiso   1.00
C191   C     0.62557   0.96298   0.21872   0.00000  Uiso   1.00
C192   C     0.62109   0.82687   0.16755   0.00000  Uiso   1.00
C193   C     0.61775   0.64459   0.06280   0.00000  Uiso   1.00
C194   C     0.65294   0.01222   0.44335   0.00000  Uiso   1.00
C195   C     0.68838   0.09222   0.49454   0.00000  Uiso   1.00
C196   C     0.71262   0.01522   0.56952   0.00000  Uiso   1.00
C197   C     0.76225   0.94197   0.69742   0.00000  Uiso   1.00
C198   C     0.60208   0.79521   0.40085   0.00000  Uiso   1.00
C199   C     0.56984   0.92569   0.39107   0.00000  Uiso   1.00
C200   C     0.53328   0.90325   0.40278   0.00000  Uiso   1.00
C201   C     0.50791   0.03789   0.39080   0.00000  Uiso   1.00
C202   C     0.60798   0.79045   0.31638   0.00000  Uiso   1.00
C203   C     0.60349   0.65427   0.26531   0.00000  Uiso   1.00
C204   C     0.61023   0.67504   0.19046   0.00000  Uiso   1.00
C205   C     0.64209   0.86067   0.46623   0.00000  Uiso   1.00
C206   C     0.66629   0.78352   0.54113   0.00000  Uiso   1.00
C207   C     0.70176   0.86339   0.59243   0.00000  Uiso   1.00
H208   H     0.63048   0.19221   0.34093   0.00000  Uiso   1.00
H209   H     0.56377   0.32921   0.33848   0.00000  Uiso   1.00
H210   H     0.63397   0.08027   0.20104   0.00000  Uiso   1.00
H211   H     0.69676   0.20950   0.47682   0.00000  Uiso   1.00
H212   H     0.48501   0.41425   0.34583   0.00000  Uiso   1.00
H213   H     0.63304   0.88933   0.05604   0.00000  Uiso   1.00
H214   H     0.76546   0.16183   0.63757   0.00000  Uiso   1.00
H215   H     0.59364   0.67721   0.41866   0.00000  Uiso   1.00
H216   H     0.52490   0.78595   0.42048   0.00000  Uiso   1.00
H217   H     0.59510   0.53701   0.28304   0.00000  Uiso   1.00
H218   H     0.65789   0.66624   0.55881   0.00000  Uiso   1.00
H219   H     0.45346   0.97332   0.41238   0.00000  Uiso   1.00
H220   H     0.60150   0.44840   0.12259   0.00000  Uiso   1.00
H221   H     0.73391   0.72090   0.70412   0.00000  Uiso   1.00
O222   O     0.42467   0.27460   0.37887   0.00000  Uiso   1.00
O223   O     0.61890   0.58593   0.99869   0.00000  Uiso   1.00
O224   O     0.79262   0.94344   0.76165   0.00000  Uiso   1.00
N225   N     0.48702   0.29556   0.36126   0.00000  Uiso   1.00
N226   N     0.62542   0.80480   0.09032   0.00000  Uiso   1.00
N227   N     0.74922   0.05955   0.63399   0.00000  Uiso   1.00
N228   N     0.47005   0.05830   0.39707   0.00000  Uiso   1.00
N229   N     0.60844   0.56754   0.12613   0.00000  Uiso   1.00
N230   N     0.73224   0.82229   0.66980   0.00000  Uiso   1.00
C231   C     0.12204   0.57423   0.35874   0.00000  Uiso   1.00
C232   C     0.08068   0.57725   0.36820   0.00000  Uiso   1.00
C233   C     0.05537   0.71195   0.35619   0.00000  Uiso   1.00
C234   C     0.01877   0.68971   0.36788   0.00000  Uiso   1.00
C235   C     0.95620   0.71744   0.37904   0.00000  Uiso   1.00
C236   C     0.11882   0.44200   0.29351   0.00000  Uiso   1.00
C237   C     0.12557   0.46298   0.21872   0.00000  Uiso   1.00
C238   C     0.12109   0.32687   0.16755   0.00000  Uiso   1.00
C239   C     0.11775   0.14459   0.06280   0.00000  Uiso   1.00
C240   C     0.15294   0.51222   0.44335   0.00000  Uiso   1.00
C241   C     0.18838   0.59222   0.49454   0.00000  Uiso   1.00
C242   C     0.21262   0.51522   0.56952   0.00000  Uiso   1.00
C243   C     0.26225   0.44197   0.69742   0.00000  Uiso   1.00
C244   C     0.10208   0.29521   0.40085   0.00000  Uiso   1.00
C245   C     0.06984   0.42569   0.39107   0.00000  Uiso   1.00
C246   C     0.03328   0.40325   0.40278   0.00000  Uiso   1.00
C247   C     0.00791   0.53789   0.39080   0.00000  Uiso   1.00
C248   C     0.10798   0.29045   0.31638   0.00000  Uiso   1.00
C249   C     0.10349   0.15427   0.26531   0.00000  Uiso   1.00
C250   C     0.11023   0.17504   0.19046   0.00000  Uiso   1.00
C251   C     0.14209   0.36067   0.46623   0.00000  Uiso   1.00
C252   C     0.16629   0.28352   0.54113   0.00000  Uiso   1.00
C253   C     0.20176   0.36339   0.59243   0.00000  Uiso   1.00
H254   H     0.13048   0.69221   0.34093   0.00000  Uiso   1.00
H255   H     0.06377   0.82921   0.33848   0.00000  Uiso   1.00
H256   H     0.13397   0.58027   0.20104   0.00000  Uiso   1.00
H257   H     0.19676   0.70950   0.47682   0.00000  Uiso   1.00
H258   H     0.98501   0.91425   0.34583   0.00000  Uiso   1.00
H259   H     0.13304   0.38933   0.05604   0.00000  Uiso   1.00
H260   H     0.26546   0.66183   0.63757   0.00000  Uiso   1.00
H261   H     0.09364   0.17721   0.41866   0.00000  Uiso   1.00
H262   H     0.02490   0.28595   0.42048   0.00000  Uiso   1.00
H263   H     0.09510   0.03701   0.28304   0.00000  Uiso   1.00
H264   H     0.15789   0.16624   0.55881   0.00000  Uiso   1.00
H265   H     0.95346   0.47332   0.41238   0.00000  Uiso   1.00
H266   H     0.10150   0.94840   0.12259   0.00000  Uiso   1.00
H267   H     0.23391   0.22090   0.70412   0.00000  Uiso   1.00
O268   O     0.92467   0.77460   0.37887   0.00000  Uiso   1.00
O269   O     0.11890   0.08593   0.99869   0.00000  Uiso   1.00
O270   O     0.29262   0.44344   0.76165   0.00000  Uiso   1.00
N271   N     0.98702   0.79556   0.36126   0.00000  Uiso   1.00
N272   N     0.12542   0.30480   0.09032   0.00000  Uiso   1.00
N273   N     0.24922   0.55955   0.63399   0.00000  Uiso   1.00
N274   N     0.97005   0.55830   0.39707   0.00000  Uiso   1.00
N275   N     0.10844   0.06754   0.12613   0.00000  Uiso   1.00
N276   N     0.23224   0.32229   0.66980   0.00000  Uiso   1.00
C277   C     0.37796   0.07423   0.14126   0.00000  Uiso   1.00
C278   C     0.41932   0.07725   0.13180   0.00000  Uiso   1.00
C279   C     0.44463   0.21195   0.14381   0.00000  Uiso   1.00
C280   C     0.48123   0.18971   0.13212   0.00000  Uiso   1.00
C281   C     0.54380   0.21744   0.12096   0.00000  Uiso   1.00
C282   C     0.38118   0.94200   0.20649   0.00000  Uiso   1.00
C283   C     0.37443   0.96298   0.28128   0.00000  Uiso   1.00
C284   C     0.37891   0.82687   0.33245   0.00000  Uiso   1.00
C285   C     0.38225   0.64459   0.43720   0.00000  Uiso   1.00
C286   C     0.34706   0.01222   0.05665   0.00000  Uiso   1.00
C287   C     0.31162   0.09222   0.00546   0.00000  Uiso   1.00
C288   C     0.28738   0.01522   0.93048   0.00000  Uiso   1.00
C289   C     0.23775   0.94197   0.80258   0.00000  Uiso   1.00
C290   C     0.39792   0.79521   0.09915   0.00000  Uiso   1.00
C291   C     0.43016   0.92569   0.10893   0.00000  Uiso   1.00
C292   C     0.46672   0.90325   0.09722   0.00000  Uiso   1.00
C293   C     0.49209   0.03789   0.10920   0.00000  Uiso   1.00
C294   C     0.39202   0.79045   0.18362   0.00000  Uiso   1.00
C295   C     0.39651   0.65427   0.23469   0.00000  Uiso   1.00
C296   C     0.38977   0.67504   0.30954   0.00000  Uiso   1.00
C297   C     0.35791   0.86067   0.03377   0.00000  Uiso   1.00
C298   C     0.33371   0.78352   0.95887   0.00000  Uiso   1.00
C299   C     0.29824   0.86339   0.90757   0.00000  Uiso   1.00
H300   H     0.36952   0.19221   0.15907   0.00000  Uiso   1.00
H301   H     0.43623   0.32921   0.16152   0.00000  Uiso   1.00
H302   H     0.36603   0.08027   0.29896   0.00000  Uiso   1.00
H303   H     0.30324   0.20950   0.02318   0.00000  Uiso   1.00
H304   H     0.51499   0.41425   0.15417   0.00000  Uiso   1.00
H305   H     0.36696   0.88933   0.44396   0.00000  Uiso   1.00
H306   H     0.23454   0.16183   0.86243   0.00000  Uiso   1.00
H307   H     0.40636   0.67721   0.08134   0.00000  Uiso   1.00
H308   H     0.47510   0.78595   0.07952   0.00000  Uiso   1.00
H309   H     0.40490   0.53701   0.21696   0.00000  Uiso   1.00
H310   H     0.34211   0.66624   0.94119   0.00000  Uiso   1.00
H311   H     0.54654   0.97332   0.08762   0.00000  Uiso   1.00
H312   H     0.39850   0.44840   0.37741   0.00000  Uiso   1.00
H313   H     0.26609   0.72090   0.79588   0.00000  Uiso   1.00
O314   O     0.57533   0.27460   0.12113   0.00000  Uiso   1.00
O315   O     0.38110   0.58593   0.50131   0.00000  Uiso   1.00
O316   O     0.20738   0.94344   0.73835   0.00000  Uiso   1.00
N317   N     0.51298   0.29556   0.13874   0.00000  Uiso   1.00
N318   N     0.37458   0.80480   0.40968   0.00000  Uiso   1.00
N319   N     0.25078   0.05955   0.86601   0.00000  Uiso   1.00
N320   N     0.52995   0.05830   0.10293   0.00000  Uiso   1.00
N321   N     0.39156   0.56754   0.37387   0.00000  Uiso   1.00
N322   N     0.26776   0.82229   0.83020   0.00000  Uiso   1.00
C323   C     0.87796   0.57423   0.14126   0.00000  Uiso   1.00
C324   C     0.91932   0.57725   0.13180   0.00000  Uiso   1.00
C325   C     0.94463   0.71195   0.14381   0.00000  Uiso   1.00
C326   C     0.98123   0.68971   0.13212   0.00000  Uiso   1.00
C327   C     0.04380   0.71744   0.12096   0.00000  Uiso   1.00
C328   C     0.88118   0.44200   0.20649   0.00000  Uiso   1.00
C329   C     0.87443   0.46298   0.28128   0.00000  Uiso   1.00
C330   C     0.87891   0.32687   0.33245   0.00000  Uiso   1.00
C331   C     0.88225   0.14459   0.43720   0.00000  Uiso   1.00
C332   C     0.84706   0.51222   0.05665   0.00000  Uiso   1.00
C333   C     0.81162   0.59222   0.00546   0.00000  Uiso   1.00
C334   C     0.78738   0.51522   0.93048   0.00000  Uiso   1.00
C335   C     0.73775   0.44197   0.80258   0.00000  Uiso   1.00
C336   C     0.89792   0.29521   0.09915   0.00000  Uiso   1.00
C337   C     0.93016   0.42569   0.10893   0.00000  Uiso   1.00
C338   C     0.96672   0.40325   0.09722   0.00000  Uiso   1.00
C339   C     0.99209   0.53789   0.10920   0.00000  Uiso   1.00
C340   C     0.89202   0.29045   0.18362   0.00000  Uiso   1.00
C341   C     0.89651   0.15427   0.23469   0.00000  Uiso   1.00
C342   C     0.88977   0.17504   0.30954   0.00000  Uiso   1.00
C343   C     0.85791   0.36067   0.03377   0.00000  Uiso   1.00
C344   C     0.83371   0.28352   0.95887   0.00000  Uiso   1.00
C345   C     0.79824   0.36339   0.90757   0.00000  Uiso   1.00
H346   H     0.86952   0.69221   0.15907   0.00000  Uiso   1.00
H347   H     0.93623   0.82921   0.16152   0.00000  Uiso   1.00
H348   H     0.86603   0.58027   0.29896   0.00000  Uiso   1.00
H349   H     0.80324   0.70950   0.02318   0.00000  Uiso   1.00
H350   H     0.01499   0.91425   0.15417   0.00000  Uiso   1.00
H351   H     0.86696   0.38933   0.44396   0.00000  Uiso   1.00
H352   H     0.73454   0.66183   0.86243   0.00000  Uiso   1.00
H353   H     0.90636   0.17721   0.08134   0.00000  Uiso   1.00
H354   H     0.97510   0.28595   0.07952   0.00000  Uiso   1.00
H355   H     0.90490   0.03701   0.21696   0.00000  Uiso   1.00
H356   H     0.84211   0.16624   0.94119   0.00000  Uiso   1.00
H357   H     0.04654   0.47332   0.08762   0.00000  Uiso   1.00
H358   H     0.89850   0.94840   0.37741   0.00000  Uiso   1.00
H359   H     0.76609   0.22090   0.79588   0.00000  Uiso   1.00
O360   O     0.07533   0.77460   0.12113   0.00000  Uiso   1.00
O361   O     0.88110   0.08593   0.50131   0.00000  Uiso   1.00
O362   O     0.70738   0.44344   0.73835   0.00000  Uiso   1.00
N363   N     0.01298   0.79556   0.13874   0.00000  Uiso   1.00
N364   N     0.87458   0.30480   0.40968   0.00000  Uiso   1.00
N365   N     0.75078   0.55955   0.86601   0.00000  Uiso   1.00
N366   N     0.02995   0.55830   0.10293   0.00000  Uiso   1.00
N367   N     0.89156   0.06754   0.37387   0.00000  Uiso   1.00
N368   N     0.76776   0.32229   0.83020   0.00000  Uiso   1.00
