data_job_03453
_audit_creation_date              2018-12-19
_audit_creation_method            'Materials Studio'
_symmetry_space_group_name_H-M    'P1'
_symmetry_Int_Tables_number       1
_symmetry_cell_setting            triclinic
loop_
_symmetry_equiv_pos_as_xyz
  x,y,z
_cell_length_a                    48.4983
_cell_length_b                    7.4810
_cell_length_c                    22.7487
_cell_angle_alpha                 90.0000
_cell_angle_beta                  110.8380
_cell_angle_gamma                 90.0000
loop_
_atom_site_label
_atom_site_type_symbol
_atom_site_fract_x
_atom_site_fract_y
_atom_site_fract_z
_atom_site_U_iso_or_equiv
_atom_site_adp_type
_atom_site_occupancy
C1     C     0.63812   0.71064   0.16201   0.00000  Uiso   1.00
C2     C     0.65348   0.77337   0.22962   0.00000  Uiso   1.00
C3     C     0.65551   0.67757   0.28324   0.00000  Uiso   1.00
C4     C     0.67047   0.75825   0.34076   0.00000  Uiso   1.00
C5     C     0.69241   0.82979   0.44518   0.00000  Uiso   1.00
C6     C     0.61534   0.85379   0.13002   0.00000  Uiso   1.00
C7     C     0.58530   0.82559   0.09989   0.00000  Uiso   1.00
C8     C     0.56816   0.97397   0.07356   0.00000  Uiso   1.00
C9     C     0.53088   0.17033   0.02331   0.00000  Uiso   1.00
C10    C     0.66129   0.71969   0.13106   0.00000  Uiso   1.00
C11    C     0.66988   0.57875   0.10179   0.00000  Uiso   1.00
C12    C     0.69142   0.61423   0.07632   0.00000  Uiso   1.00
C13    C     0.72548   0.60238   0.02768   0.00000  Uiso   1.00
C14    C     0.66109   0.02428   0.16881   0.00000  Uiso   1.00
C15    C     0.66595   0.94374   0.23331   0.00000  Uiso   1.00
C16    C     0.68092   0.02458   0.29077   0.00000  Uiso   1.00
C17    C     0.68297   0.92891   0.34447   0.00000  Uiso   1.00
C18    C     0.62781   0.02414   0.13371   0.00000  Uiso   1.00
C19    C     0.61071   0.17260   0.10742   0.00000  Uiso   1.00
C20    C     0.58066   0.14463   0.07726   0.00000  Uiso   1.00
C21    C     0.67376   0.89005   0.13475   0.00000  Uiso   1.00
C22    C     0.69529   0.92576   0.10932   0.00000  Uiso   1.00
C23    C     0.70391   0.78490   0.08002   0.00000  Uiso   1.00
H24    H     0.62841   0.57801   0.15913   0.00000  Uiso   1.00
H25    H     0.64585   0.54574   0.28036   0.00000  Uiso   1.00
H26    H     0.57565   0.69374   0.09704   0.00000  Uiso   1.00
H27    H     0.66022   0.44694   0.09894   0.00000  Uiso   1.00
H28    H     0.67068   0.58512   0.41640   0.00000  Uiso   1.00
H29    H     0.52267   0.89717   0.02982   0.00000  Uiso   1.00
H30    H     0.70099   0.37674   0.03383   0.00000  Uiso   1.00
H31    H     0.67080   0.15692   0.17169   0.00000  Uiso   1.00
H32    H     0.69057   0.15641   0.29361   0.00000  Uiso   1.00
H33    H     0.62038   0.30441   0.11028   0.00000  Uiso   1.00
H34    H     0.70494   0.05761   0.11219   0.00000  Uiso   1.00
H35    H     0.70697   0.08077   0.42715   0.00000  Uiso   1.00
H36    H     0.55897   0.39281   0.04057   0.00000  Uiso   1.00
H37    H     0.73728   0.87239   0.04458   0.00000  Uiso   1.00
O38    O     0.70106   0.82219   0.50175   0.00000  Uiso   1.00
O39    O     0.50688   0.23157   0.99457   0.00000  Uiso   1.00
O40    O     0.74083   0.54878   0.99983   0.00000  Uiso   1.00
N41    N     0.67651   0.70183   0.40219   0.00000  Uiso   1.00
N42    N     0.53813   0.99357   0.04078   0.00000  Uiso   1.00
N43    N     0.70484   0.50703   0.04451   0.00000  Uiso   1.00
N44    N     0.69604   0.96853   0.40798   0.00000  Uiso   1.00
N45    N     0.55766   0.26028   0.04657   0.00000  Uiso   1.00
N46    N     0.72437   0.77373   0.05030   0.00000  Uiso   1.00
C47    C     0.13812   0.21064   0.16201   0.00000  Uiso   1.00
C48    C     0.15348   0.27337   0.22962   0.00000  Uiso   1.00
C49    C     0.15551   0.17757   0.28324   0.00000  Uiso   1.00
C50    C     0.17047   0.25825   0.34076   0.00000  Uiso   1.00
C51    C     0.19241   0.32979   0.44518   0.00000  Uiso   1.00
C52    C     0.11534   0.35379   0.13002   0.00000  Uiso   1.00
C53    C     0.08530   0.32559   0.09989   0.00000  Uiso   1.00
C54    C     0.06816   0.47397   0.07356   0.00000  Uiso   1.00
C55    C     0.03088   0.67033   0.02331   0.00000  Uiso   1.00
C56    C     0.16129   0.21969   0.13106   0.00000  Uiso   1.00
C57    C     0.16988   0.07875   0.10179   0.00000  Uiso   1.00
C58    C     0.19142   0.11423   0.07632   0.00000  Uiso   1.00
C59    C     0.22548   0.10238   0.02768   0.00000  Uiso   1.00
C60    C     0.16109   0.52428   0.16881   0.00000  Uiso   1.00
C61    C     0.16595   0.44374   0.23331   0.00000  Uiso   1.00
C62    C     0.18092   0.52458   0.29077   0.00000  Uiso   1.00
C63    C     0.18297   0.42891   0.34447   0.00000  Uiso   1.00
C64    C     0.12781   0.52414   0.13371   0.00000  Uiso   1.00
C65    C     0.11071   0.67260   0.10742   0.00000  Uiso   1.00
C66    C     0.08066   0.64463   0.07726   0.00000  Uiso   1.00
C67    C     0.17376   0.39005   0.13475   0.00000  Uiso   1.00
C68    C     0.19529   0.42576   0.10932   0.00000  Uiso   1.00
C69    C     0.20391   0.28490   0.08002   0.00000  Uiso   1.00
H70    H     0.12841   0.07801   0.15913   0.00000  Uiso   1.00
H71    H     0.14585   0.04574   0.28036   0.00000  Uiso   1.00
H72    H     0.07565   0.19374   0.09704   0.00000  Uiso   1.00
H73    H     0.16022   0.94694   0.09894   0.00000  Uiso   1.00
H74    H     0.17068   0.08512   0.41640   0.00000  Uiso   1.00
H75    H     0.02267   0.39717   0.02982   0.00000  Uiso   1.00
H76    H     0.20099   0.87674   0.03383   0.00000  Uiso   1.00
H77    H     0.17080   0.65692   0.17169   0.00000  Uiso   1.00
H78    H     0.19057   0.65641   0.29361   0.00000  Uiso   1.00
H79    H     0.12038   0.80441   0.11028   0.00000  Uiso   1.00
H80    H     0.20494   0.55761   0.11219   0.00000  Uiso   1.00
H81    H     0.20697   0.58077   0.42715   0.00000  Uiso   1.00
H82    H     0.05897   0.89281   0.04057   0.00000  Uiso   1.00
H83    H     0.23728   0.37239   0.04458   0.00000  Uiso   1.00
O84    O     0.20106   0.32219   0.50175   0.00000  Uiso   1.00
O85    O     0.00688   0.73157   0.99457   0.00000  Uiso   1.00
O86    O     0.24083   0.04878   0.99983   0.00000  Uiso   1.00
N87    N     0.17651   0.20183   0.40219   0.00000  Uiso   1.00
N88    N     0.03813   0.49357   0.04078   0.00000  Uiso   1.00
N89    N     0.20484   0.00703   0.04451   0.00000  Uiso   1.00
N90    N     0.19604   0.46853   0.40798   0.00000  Uiso   1.00
N91    N     0.05766   0.76028   0.04657   0.00000  Uiso   1.00
N92    N     0.22437   0.27373   0.05030   0.00000  Uiso   1.00
C93    C     0.36188   0.71064   0.33799   0.00000  Uiso   1.00
C94    C     0.34652   0.77337   0.27038   0.00000  Uiso   1.00
C95    C     0.34449   0.67757   0.21676   0.00000  Uiso   1.00
C96    C     0.32953   0.75825   0.15924   0.00000  Uiso   1.00
C97    C     0.30759   0.82979   0.05482   0.00000  Uiso   1.00
C98    C     0.38466   0.85379   0.36998   0.00000  Uiso   1.00
C99    C     0.41470   0.82559   0.40011   0.00000  Uiso   1.00
C100   C     0.43184   0.97397   0.42644   0.00000  Uiso   1.00
C101   C     0.46912   0.17033   0.47669   0.00000  Uiso   1.00
C102   C     0.33871   0.71969   0.36894   0.00000  Uiso   1.00
C103   C     0.33012   0.57875   0.39821   0.00000  Uiso   1.00
C104   C     0.30858   0.61423   0.42368   0.00000  Uiso   1.00
C105   C     0.27452   0.60238   0.47232   0.00000  Uiso   1.00
C106   C     0.33891   0.02428   0.33119   0.00000  Uiso   1.00
C107   C     0.33405   0.94374   0.26669   0.00000  Uiso   1.00
C108   C     0.31908   0.02458   0.20923   0.00000  Uiso   1.00
C109   C     0.31703   0.92891   0.15553   0.00000  Uiso   1.00
C110   C     0.37219   0.02414   0.36629   0.00000  Uiso   1.00
C111   C     0.38929   0.17260   0.39258   0.00000  Uiso   1.00
C112   C     0.41934   0.14463   0.42274   0.00000  Uiso   1.00
C113   C     0.32624   0.89005   0.36525   0.00000  Uiso   1.00
C114   C     0.30471   0.92576   0.39068   0.00000  Uiso   1.00
C115   C     0.29609   0.78490   0.41998   0.00000  Uiso   1.00
H116   H     0.37159   0.57801   0.34087   0.00000  Uiso   1.00
H117   H     0.35415   0.54574   0.21964   0.00000  Uiso   1.00
H118   H     0.42435   0.69374   0.40296   0.00000  Uiso   1.00
H119   H     0.33978   0.44694   0.40106   0.00000  Uiso   1.00
H120   H     0.32932   0.58512   0.08360   0.00000  Uiso   1.00
H121   H     0.47733   0.89717   0.47018   0.00000  Uiso   1.00
H122   H     0.29901   0.37674   0.46617   0.00000  Uiso   1.00
H123   H     0.32920   0.15692   0.32831   0.00000  Uiso   1.00
H124   H     0.30943   0.15641   0.20639   0.00000  Uiso   1.00
H125   H     0.37962   0.30441   0.38972   0.00000  Uiso   1.00
H126   H     0.29506   0.05761   0.38781   0.00000  Uiso   1.00
H127   H     0.29303   0.08077   0.07285   0.00000  Uiso   1.00
H128   H     0.44103   0.39281   0.45943   0.00000  Uiso   1.00
H129   H     0.26272   0.87239   0.45542   0.00000  Uiso   1.00
O130   O     0.29894   0.82219   0.99825   0.00000  Uiso   1.00
O131   O     0.49312   0.23157   0.50543   0.00000  Uiso   1.00
O132   O     0.25917   0.54878   0.50017   0.00000  Uiso   1.00
N133   N     0.32349   0.70183   0.09781   0.00000  Uiso   1.00
N134   N     0.46187   0.99357   0.45922   0.00000  Uiso   1.00
N135   N     0.29516   0.50703   0.45549   0.00000  Uiso   1.00
N136   N     0.30396   0.96853   0.09202   0.00000  Uiso   1.00
N137   N     0.44234   0.26028   0.45343   0.00000  Uiso   1.00
N138   N     0.27563   0.77373   0.44970   0.00000  Uiso   1.00
C139   C     0.86188   0.21064   0.33799   0.00000  Uiso   1.00
C140   C     0.84652   0.27337   0.27038   0.00000  Uiso   1.00
C141   C     0.84449   0.17757   0.21676   0.00000  Uiso   1.00
C142   C     0.82953   0.25825   0.15924   0.00000  Uiso   1.00
C143   C     0.80759   0.32979   0.05482   0.00000  Uiso   1.00
C144   C     0.88466   0.35379   0.36998   0.00000  Uiso   1.00
C145   C     0.91470   0.32559   0.40011   0.00000  Uiso   1.00
C146   C     0.93184   0.47397   0.42644   0.00000  Uiso   1.00
C147   C     0.96912   0.67033   0.47669   0.00000  Uiso   1.00
C148   C     0.83871   0.21969   0.36894   0.00000  Uiso   1.00
C149   C     0.83012   0.07875   0.39821   0.00000  Uiso   1.00
C150   C     0.80858   0.11423   0.42368   0.00000  Uiso   1.00
C151   C     0.77452   0.10238   0.47232   0.00000  Uiso   1.00
C152   C     0.83891   0.52428   0.33119   0.00000  Uiso   1.00
C153   C     0.83405   0.44374   0.26669   0.00000  Uiso   1.00
C154   C     0.81908   0.52458   0.20923   0.00000  Uiso   1.00
C155   C     0.81703   0.42891   0.15553   0.00000  Uiso   1.00
C156   C     0.87219   0.52414   0.36629   0.00000  Uiso   1.00
C157   C     0.88929   0.67260   0.39258   0.00000  Uiso   1.00
C158   C     0.91934   0.64463   0.42274   0.00000  Uiso   1.00
C159   C     0.82624   0.39005   0.36525   0.00000  Uiso   1.00
C160   C     0.80471   0.42576   0.39068   0.00000  Uiso   1.00
C161   C     0.79609   0.28490   0.41998   0.00000  Uiso   1.00
H162   H     0.87159   0.07801   0.34087   0.00000  Uiso   1.00
H163   H     0.85415   0.04574   0.21964   0.00000  Uiso   1.00
H164   H     0.92435   0.19374   0.40296   0.00000  Uiso   1.00
H165   H     0.83978   0.94694   0.40106   0.00000  Uiso   1.00
H166   H     0.82932   0.08512   0.08361   0.00000  Uiso   1.00
H167   H     0.97733   0.39717   0.47018   0.00000  Uiso   1.00
H168   H     0.79901   0.87674   0.46617   0.00000  Uiso   1.00
H169   H     0.82920   0.65692   0.32831   0.00000  Uiso   1.00
H170   H     0.80943   0.65641   0.20639   0.00000  Uiso   1.00
H171   H     0.87962   0.80441   0.38972   0.00000  Uiso   1.00
H172   H     0.79506   0.55761   0.38781   0.00000  Uiso   1.00
H173   H     0.79303   0.58077   0.07285   0.00000  Uiso   1.00
H174   H     0.94103   0.89281   0.45943   0.00000  Uiso   1.00
H175   H     0.76272   0.37239   0.45542   0.00000  Uiso   1.00
O176   O     0.79894   0.32219   0.99825   0.00000  Uiso   1.00
O177   O     0.99312   0.73157   0.50543   0.00000  Uiso   1.00
O178   O     0.75917   0.04878   0.50017   0.00000  Uiso   1.00
N179   N     0.82349   0.20183   0.09781   0.00000  Uiso   1.00
N180   N     0.96187   0.49357   0.45922   0.00000  Uiso   1.00
N181   N     0.79516   0.00703   0.45549   0.00000  Uiso   1.00
N182   N     0.80396   0.46853   0.09202   0.00000  Uiso   1.00
N183   N     0.94234   0.76028   0.45343   0.00000  Uiso   1.00
N184   N     0.77563   0.27373   0.44970   0.00000  Uiso   1.00
C185   C     0.36188   0.28936   0.83799   0.00000  Uiso   1.00
C186   C     0.34652   0.22663   0.77038   0.00000  Uiso   1.00
C187   C     0.34449   0.32243   0.71676   0.00000  Uiso   1.00
C188   C     0.32953   0.24175   0.65924   0.00000  Uiso   1.00
C189   C     0.30759   0.17021   0.55482   0.00000  Uiso   1.00
C190   C     0.38466   0.14621   0.86998   0.00000  Uiso   1.00
C191   C     0.41470   0.17441   0.90011   0.00000  Uiso   1.00
C192   C     0.43184   0.02603   0.92644   0.00000  Uiso   1.00
C193   C     0.46912   0.82967   0.97669   0.00000  Uiso   1.00
C194   C     0.33871   0.28031   0.86894   0.00000  Uiso   1.00
C195   C     0.33012   0.42125   0.89821   0.00000  Uiso   1.00
C196   C     0.30858   0.38577   0.92368   0.00000  Uiso   1.00
C197   C     0.27452   0.39762   0.97232   0.00000  Uiso   1.00
C198   C     0.33891   0.97572   0.83119   0.00000  Uiso   1.00
C199   C     0.33405   0.05626   0.76669   0.00000  Uiso   1.00
C200   C     0.31908   0.97542   0.70923   0.00000  Uiso   1.00
C201   C     0.31703   0.07109   0.65553   0.00000  Uiso   1.00
C202   C     0.37219   0.97586   0.86629   0.00000  Uiso   1.00
C203   C     0.38929   0.82740   0.89258   0.00000  Uiso   1.00
C204   C     0.41934   0.85537   0.92274   0.00000  Uiso   1.00
C205   C     0.32624   0.10995   0.86525   0.00000  Uiso   1.00
C206   C     0.30471   0.07424   0.89068   0.00000  Uiso   1.00
C207   C     0.29609   0.21510   0.91998   0.00000  Uiso   1.00
H208   H     0.37159   0.42199   0.84087   0.00000  Uiso   1.00
H209   H     0.35415   0.45426   0.71964   0.00000  Uiso   1.00
H210   H     0.42435   0.30626   0.90296   0.00000  Uiso   1.00
H211   H     0.33978   0.55306   0.90106   0.00000  Uiso   1.00
H212   H     0.32932   0.41488   0.58360   0.00000  Uiso   1.00
H213   H     0.47733   0.10283   0.97018   0.00000  Uiso   1.00
H214   H     0.29901   0.62326   0.96617   0.00000  Uiso   1.00
H215   H     0.32920   0.84308   0.82831   0.00000  Uiso   1.00
H216   H     0.30943   0.84359   0.70639   0.00000  Uiso   1.00
H217   H     0.37962   0.69559   0.88972   0.00000  Uiso   1.00
H218   H     0.29506   0.94239   0.88781   0.00000  Uiso   1.00
H219   H     0.29303   0.91923   0.57285   0.00000  Uiso   1.00
H220   H     0.44103   0.60719   0.95943   0.00000  Uiso   1.00
H221   H     0.26272   0.12761   0.95542   0.00000  Uiso   1.00
O222   O     0.29894   0.17781   0.49825   0.00000  Uiso   1.00
O223   O     0.49312   0.76843   0.00543   0.00000  Uiso   1.00
O224   O     0.25917   0.45122   0.00017   0.00000  Uiso   1.00
N225   N     0.32349   0.29817   0.59781   0.00000  Uiso   1.00
N226   N     0.46187   0.00643   0.95922   0.00000  Uiso   1.00
N227   N     0.29516   0.49297   0.95549   0.00000  Uiso   1.00
N228   N     0.30396   0.03147   0.59202   0.00000  Uiso   1.00
N229   N     0.44234   0.73972   0.95343   0.00000  Uiso   1.00
N230   N     0.27563   0.22627   0.94970   0.00000  Uiso   1.00
C231   C     0.86188   0.78936   0.83799   0.00000  Uiso   1.00
C232   C     0.84652   0.72663   0.77038   0.00000  Uiso   1.00
C233   C     0.84449   0.82243   0.71676   0.00000  Uiso   1.00
C234   C     0.82953   0.74175   0.65924   0.00000  Uiso   1.00
C235   C     0.80759   0.67021   0.55482   0.00000  Uiso   1.00
C236   C     0.88466   0.64621   0.86998   0.00000  Uiso   1.00
C237   C     0.91470   0.67441   0.90011   0.00000  Uiso   1.00
C238   C     0.93184   0.52603   0.92644   0.00000  Uiso   1.00
C239   C     0.96912   0.32967   0.97669   0.00000  Uiso   1.00
C240   C     0.83871   0.78031   0.86894   0.00000  Uiso   1.00
C241   C     0.83012   0.92125   0.89821   0.00000  Uiso   1.00
C242   C     0.80858   0.88577   0.92368   0.00000  Uiso   1.00
C243   C     0.77452   0.89762   0.97232   0.00000  Uiso   1.00
C244   C     0.83891   0.47572   0.83119   0.00000  Uiso   1.00
C245   C     0.83405   0.55626   0.76669   0.00000  Uiso   1.00
C246   C     0.81908   0.47542   0.70923   0.00000  Uiso   1.00
C247   C     0.81703   0.57109   0.65553   0.00000  Uiso   1.00
C248   C     0.87219   0.47586   0.86629   0.00000  Uiso   1.00
C249   C     0.88929   0.32740   0.89258   0.00000  Uiso   1.00
C250   C     0.91934   0.35537   0.92274   0.00000  Uiso   1.00
C251   C     0.82624   0.60995   0.86525   0.00000  Uiso   1.00
C252   C     0.80471   0.57424   0.89068   0.00000  Uiso   1.00
C253   C     0.79609   0.71510   0.91998   0.00000  Uiso   1.00
H254   H     0.87159   0.92199   0.84087   0.00000  Uiso   1.00
H255   H     0.85415   0.95426   0.71964   0.00000  Uiso   1.00
H256   H     0.92435   0.80626   0.90296   0.00000  Uiso   1.00
H257   H     0.83978   0.05306   0.90106   0.00000  Uiso   1.00
H258   H     0.82932   0.91488   0.58360   0.00000  Uiso   1.00
H259   H     0.97733   0.60283   0.97018   0.00000  Uiso   1.00
H260   H     0.79901   0.12326   0.96617   0.00000  Uiso   1.00
H261   H     0.82920   0.34308   0.82831   0.00000  Uiso   1.00
H262   H     0.80943   0.34359   0.70639   0.00000  Uiso   1.00
H263   H     0.87962   0.19559   0.88972   0.00000  Uiso   1.00
H264   H     0.79506   0.44239   0.88781   0.00000  Uiso   1.00
H265   H     0.79303   0.41923   0.57285   0.00000  Uiso   1.00
H266   H     0.94103   0.10719   0.95943   0.00000  Uiso   1.00
H267   H     0.76272   0.62761   0.95542   0.00000  Uiso   1.00
O268   O     0.79894   0.67781   0.49825   0.00000  Uiso   1.00
O269   O     0.99312   0.26843   0.00543   0.00000  Uiso   1.00
O270   O     0.75917   0.95122   0.00017   0.00000  Uiso   1.00
N271   N     0.82349   0.79817   0.59781   0.00000  Uiso   1.00
N272   N     0.96187   0.50643   0.95922   0.00000  Uiso   1.00
N273   N     0.79516   0.99297   0.95549   0.00000  Uiso   1.00
N274   N     0.80396   0.53147   0.59202   0.00000  Uiso   1.00
N275   N     0.94234   0.23972   0.95343   0.00000  Uiso   1.00
N276   N     0.77563   0.72627   0.94970   0.00000  Uiso   1.00
C277   C     0.63812   0.28936   0.66201   0.00000  Uiso   1.00
C278   C     0.65348   0.22663   0.72962   0.00000  Uiso   1.00
C279   C     0.65551   0.32243   0.78324   0.00000  Uiso   1.00
C280   C     0.67047   0.24175   0.84076   0.00000  Uiso   1.00
C281   C     0.69241   0.17021   0.94518   0.00000  Uiso   1.00
C282   C     0.61534   0.14621   0.63002   0.00000  Uiso   1.00
C283   C     0.58530   0.17441   0.59989   0.00000  Uiso   1.00
C284   C     0.56816   0.02603   0.57356   0.00000  Uiso   1.00
C285   C     0.53088   0.82967   0.52331   0.00000  Uiso   1.00
C286   C     0.66129   0.28031   0.63106   0.00000  Uiso   1.00
C287   C     0.66988   0.42125   0.60179   0.00000  Uiso   1.00
C288   C     0.69142   0.38577   0.57632   0.00000  Uiso   1.00
C289   C     0.72548   0.39762   0.52768   0.00000  Uiso   1.00
C290   C     0.66109   0.97572   0.66881   0.00000  Uiso   1.00
C291   C     0.66595   0.05626   0.73331   0.00000  Uiso   1.00
C292   C     0.68092   0.97542   0.79077   0.00000  Uiso   1.00
C293   C     0.68297   0.07109   0.84447   0.00000  Uiso   1.00
C294   C     0.62781   0.97586   0.63371   0.00000  Uiso   1.00
C295   C     0.61071   0.82740   0.60742   0.00000  Uiso   1.00
C296   C     0.58066   0.85537   0.57726   0.00000  Uiso   1.00
C297   C     0.67376   0.10995   0.63475   0.00000  Uiso   1.00
C298   C     0.69529   0.07424   0.60932   0.00000  Uiso   1.00
C299   C     0.70391   0.21510   0.58002   0.00000  Uiso   1.00
H300   H     0.62841   0.42199   0.65913   0.00000  Uiso   1.00
H301   H     0.64585   0.45426   0.78036   0.00000  Uiso   1.00
H302   H     0.57565   0.30626   0.59704   0.00000  Uiso   1.00
H303   H     0.66022   0.55306   0.59894   0.00000  Uiso   1.00
H304   H     0.67068   0.41488   0.91640   0.00000  Uiso   1.00
H305   H     0.52267   0.10283   0.52982   0.00000  Uiso   1.00
H306   H     0.70099   0.62326   0.53383   0.00000  Uiso   1.00
H307   H     0.67080   0.84308   0.67169   0.00000  Uiso   1.00
H308   H     0.69057   0.84359   0.79361   0.00000  Uiso   1.00
H309   H     0.62038   0.69559   0.61028   0.00000  Uiso   1.00
H310   H     0.70494   0.94239   0.61219   0.00000  Uiso   1.00
H311   H     0.70697   0.91923   0.92715   0.00000  Uiso   1.00
H312   H     0.55897   0.60719   0.54057   0.00000  Uiso   1.00
H313   H     0.73728   0.12761   0.54458   0.00000  Uiso   1.00
O314   O     0.70106   0.17781   0.00175   0.00000  Uiso   1.00
O315   O     0.50688   0.76843   0.49457   0.00000  Uiso   1.00
O316   O     0.74083   0.45122   0.49983   0.00000  Uiso   1.00
N317   N     0.67651   0.29817   0.90219   0.00000  Uiso   1.00
N318   N     0.53813   0.00643   0.54078   0.00000  Uiso   1.00
N319   N     0.70484   0.49297   0.54451   0.00000  Uiso   1.00
N320   N     0.69604   0.03147   0.90798   0.00000  Uiso   1.00
N321   N     0.55766   0.73972   0.54657   0.00000  Uiso   1.00
N322   N     0.72437   0.22627   0.55030   0.00000  Uiso   1.00
C323   C     0.13812   0.78936   0.66201   0.00000  Uiso   1.00
C324   C     0.15348   0.72663   0.72962   0.00000  Uiso   1.00
C325   C     0.15551   0.82243   0.78324   0.00000  Uiso   1.00
C326   C     0.17047   0.74175   0.84076   0.00000  Uiso   1.00
C327   C     0.19241   0.67021   0.94518   0.00000  Uiso   1.00
C328   C     0.11534   0.64621   0.63002   0.00000  Uiso   1.00
C329   C     0.08530   0.67441   0.59989   0.00000  Uiso   1.00
C330   C     0.06816   0.52603   0.57356   0.00000  Uiso   1.00
C331   C     0.03088   0.32967   0.52331   0.00000  Uiso   1.00
C332   C     0.16129   0.78031   0.63106   0.00000  Uiso   1.00
C333   C     0.16988   0.92125   0.60179   0.00000  Uiso   1.00
C334   C     0.19142   0.88577   0.57632   0.00000  Uiso   1.00
C335   C     0.22548   0.89762   0.52768   0.00000  Uiso   1.00
C336   C     0.16109   0.47572   0.66881   0.00000  Uiso   1.00
C337   C     0.16595   0.55626   0.73331   0.00000  Uiso   1.00
C338   C     0.18092   0.47542   0.79077   0.00000  Uiso   1.00
C339   C     0.18297   0.57109   0.84447   0.00000  Uiso   1.00
C340   C     0.12781   0.47586   0.63371   0.00000  Uiso   1.00
C341   C     0.11071   0.32740   0.60742   0.00000  Uiso   1.00
C342   C     0.08066   0.35537   0.57726   0.00000  Uiso   1.00
C343   C     0.17376   0.60995   0.63475   0.00000  Uiso   1.00
C344   C     0.19529   0.57424   0.60932   0.00000  Uiso   1.00
C345   C     0.20391   0.71510   0.58002   0.00000  Uiso   1.00
H346   H     0.12841   0.92199   0.65913   0.00000  Uiso   1.00
H347   H     0.14585   0.95426   0.78036   0.00000  Uiso   1.00
H348   H     0.07565   0.80626   0.59704   0.00000  Uiso   1.00
H349   H     0.16022   0.05306   0.59894   0.00000  Uiso   1.00
H350   H     0.17068   0.91488   0.91640   0.00000  Uiso   1.00
H351   H     0.02267   0.60283   0.52982   0.00000  Uiso   1.00
H352   H     0.20099   0.12326   0.53383   0.00000  Uiso   1.00
H353   H     0.17080   0.34308   0.67169   0.00000  Uiso   1.00
H354   H     0.19057   0.34359   0.79361   0.00000  Uiso   1.00
H355   H     0.12038   0.19559   0.61028   0.00000  Uiso   1.00
H356   H     0.20494   0.44239   0.61219   0.00000  Uiso   1.00
H357   H     0.20697   0.41923   0.92715   0.00000  Uiso   1.00
H358   H     0.05897   0.10719   0.54057   0.00000  Uiso   1.00
H359   H     0.23728   0.62761   0.54458   0.00000  Uiso   1.00
O360   O     0.20106   0.67781   0.00175   0.00000  Uiso   1.00
O361   O     0.00688   0.26843   0.49457   0.00000  Uiso   1.00
O362   O     0.24083   0.95122   0.49983   0.00000  Uiso   1.00
N363   N     0.17651   0.79817   0.90219   0.00000  Uiso   1.00
N364   N     0.03813   0.50643   0.54078   0.00000  Uiso   1.00
N365   N     0.20484   0.99297   0.54451   0.00000  Uiso   1.00
N366   N     0.19604   0.53147   0.90798   0.00000  Uiso   1.00
N367   N     0.05766   0.23972   0.54657   0.00000  Uiso   1.00
N368   N     0.22437   0.72627   0.55030   0.00000  Uiso   1.00
