data_job_02917
_audit_creation_date              2018-12-19
_audit_creation_method            'Materials Studio'
_symmetry_space_group_name_H-M    'P1'
_symmetry_Int_Tables_number       1
_symmetry_cell_setting            triclinic
loop_
_symmetry_equiv_pos_as_xyz
  x,y,z
_cell_length_a                    18.1397
_cell_length_b                    16.8305
_cell_length_c                    14.8293
_cell_angle_alpha                 90.0000
_cell_angle_beta                  90.0000
_cell_angle_gamma                 90.0000
loop_
_atom_site_label
_atom_site_type_symbol
_atom_site_fract_x
_atom_site_fract_y
_atom_site_fract_z
_atom_site_U_iso_or_equiv
_atom_site_adp_type
_atom_site_occupancy
C1     C     0.23050   0.71958   0.69290   0.00000  Uiso   1.00
C2     C     0.28686   0.66023   0.72875   0.00000  Uiso   1.00
C3     C     0.30841   0.59054   0.68624   0.00000  Uiso   1.00
C4     C     0.36069   0.54429   0.73006   0.00000  Uiso   1.00
C5     C     0.44366   0.44867   0.77308   0.00000  Uiso   1.00
C6     C     0.17201   0.72764   0.76620   0.00000  Uiso   1.00
C7     C     0.09700   0.71464   0.75516   0.00000  Uiso   1.00
C8     C     0.05260   0.72514   0.83049   0.00000  Uiso   1.00
C9     C     0.95728   0.73423   0.93162   0.00000  Uiso   1.00
C10    C     0.26999   0.79948   0.68888   0.00000  Uiso   1.00
C11    C     0.27734   0.84690   0.61284   0.00000  Uiso   1.00
C12    C     0.31542   0.91789   0.62308   0.00000  Uiso   1.00
C13    C     0.37221   0.03852   0.60416   0.00000  Uiso   1.00
C14    C     0.28503   0.76136   0.84630   0.00000  Uiso   1.00
C15    C     0.31647   0.68293   0.81208   0.00000  Uiso   1.00
C16    C     0.36874   0.63677   0.85596   0.00000  Uiso   1.00
C17    C     0.39036   0.56702   0.81353   0.00000  Uiso   1.00
C18    C     0.20163   0.75033   0.84951   0.00000  Uiso   1.00
C19    C     0.15733   0.76086   0.92488   0.00000  Uiso   1.00
C20    C     0.08227   0.74787   0.91397   0.00000  Uiso   1.00
C21    C     0.29961   0.82217   0.77220   0.00000  Uiso   1.00
C22    C     0.33767   0.89311   0.78256   0.00000  Uiso   1.00
C23    C     0.34509   0.94062   0.70655   0.00000  Uiso   1.00
H24    H     0.20743   0.70191   0.62803   0.00000  Uiso   1.00
H25    H     0.28547   0.57300   0.62177   0.00000  Uiso   1.00
H26    H     0.07410   0.69709   0.69067   0.00000  Uiso   1.00
H27    H     0.25441   0.82932   0.54837   0.00000  Uiso   1.00
H28    H     0.38502   0.44007   0.65158   0.00000  Uiso   1.00
H29    H     0.93933   0.70174   0.79686   0.00000  Uiso   1.00
H30    H     0.31956   0.98057   0.49679   0.00000  Uiso   1.00
H31    H     0.30809   0.77902   0.91117   0.00000  Uiso   1.00
H32    H     0.39165   0.65434   0.92044   0.00000  Uiso   1.00
H33    H     0.18027   0.77843   0.98935   0.00000  Uiso   1.00
H34    H     0.36059   0.91065   0.84705   0.00000  Uiso   1.00
H35    H     0.47120   0.50609   0.89400   0.00000  Uiso   1.00
H36    H     0.02550   0.76776   0.03928   0.00000  Uiso   1.00
H37    H     0.40574   0.04659   0.73921   0.00000  Uiso   1.00
O38    O     0.48124   0.38965   0.77379   0.00000  Uiso   1.00
O39    O     0.89651   0.73297   0.96439   0.00000  Uiso   1.00
O40    O     0.39537   0.09879   0.57071   0.00000  Uiso   1.00
N41    N     0.39385   0.47273   0.70735   0.00000  Uiso   1.00
N42    N     0.97715   0.71736   0.84318   0.00000  Uiso   1.00
N43    N     0.33262   0.97806   0.56265   0.00000  Uiso   1.00
N44    N     0.44022   0.50825   0.83780   0.00000  Uiso   1.00
N45    N     0.02352   0.75288   0.97363   0.00000  Uiso   1.00
N46    N     0.37899   0.01358   0.69310   0.00000  Uiso   1.00
C47    C     0.26950   0.28042   0.19290   0.00000  Uiso   1.00
C48    C     0.21314   0.33977   0.22875   0.00000  Uiso   1.00
C49    C     0.19159   0.40946   0.18624   0.00000  Uiso   1.00
C50    C     0.13931   0.45571   0.23006   0.00000  Uiso   1.00
C51    C     0.05634   0.55133   0.27308   0.00000  Uiso   1.00
C52    C     0.32799   0.27236   0.26620   0.00000  Uiso   1.00
C53    C     0.40300   0.28536   0.25516   0.00000  Uiso   1.00
C54    C     0.44740   0.27486   0.33049   0.00000  Uiso   1.00
C55    C     0.54272   0.26577   0.43162   0.00000  Uiso   1.00
C56    C     0.23001   0.20052   0.18888   0.00000  Uiso   1.00
C57    C     0.22266   0.15310   0.11284   0.00000  Uiso   1.00
C58    C     0.18458   0.08211   0.12308   0.00000  Uiso   1.00
C59    C     0.12779   0.96148   0.10416   0.00000  Uiso   1.00
C60    C     0.21497   0.23864   0.34630   0.00000  Uiso   1.00
C61    C     0.18353   0.31707   0.31208   0.00000  Uiso   1.00
C62    C     0.13126   0.36323   0.35596   0.00000  Uiso   1.00
C63    C     0.10964   0.43298   0.31353   0.00000  Uiso   1.00
C64    C     0.29837   0.24967   0.34951   0.00000  Uiso   1.00
C65    C     0.34267   0.23914   0.42488   0.00000  Uiso   1.00
C66    C     0.41773   0.25213   0.41397   0.00000  Uiso   1.00
C67    C     0.20039   0.17783   0.27220   0.00000  Uiso   1.00
C68    C     0.16233   0.10689   0.28256   0.00000  Uiso   1.00
C69    C     0.15491   0.05938   0.20655   0.00000  Uiso   1.00
H70    H     0.29257   0.29809   0.12803   0.00000  Uiso   1.00
H71    H     0.21453   0.42700   0.12177   0.00000  Uiso   1.00
H72    H     0.42590   0.30291   0.19067   0.00000  Uiso   1.00
H73    H     0.24559   0.17068   0.04837   0.00000  Uiso   1.00
H74    H     0.11498   0.55993   0.15158   0.00000  Uiso   1.00
H75    H     0.56067   0.29826   0.29686   0.00000  Uiso   1.00
H76    H     0.18044   0.01943   0.99679   0.00000  Uiso   1.00
H77    H     0.19191   0.22098   0.41117   0.00000  Uiso   1.00
H78    H     0.10835   0.34566   0.42044   0.00000  Uiso   1.00
H79    H     0.31973   0.22157   0.48935   0.00000  Uiso   1.00
H80    H     0.13941   0.08935   0.34705   0.00000  Uiso   1.00
H81    H     0.02880   0.49391   0.39400   0.00000  Uiso   1.00
H82    H     0.47450   0.23224   0.53928   0.00000  Uiso   1.00
H83    H     0.09426   0.95341   0.23921   0.00000  Uiso   1.00
O84    O     0.01876   0.61035   0.27379   0.00000  Uiso   1.00
O85    O     0.60349   0.26703   0.46439   0.00000  Uiso   1.00
O86    O     0.10463   0.90121   0.07071   0.00000  Uiso   1.00
N87    N     0.10615   0.52727   0.20735   0.00000  Uiso   1.00
N88    N     0.52285   0.28264   0.34318   0.00000  Uiso   1.00
N89    N     0.16738   0.02194   0.06265   0.00000  Uiso   1.00
N90    N     0.05978   0.49175   0.33780   0.00000  Uiso   1.00
N91    N     0.47648   0.24712   0.47363   0.00000  Uiso   1.00
N92    N     0.12101   0.98642   0.19310   0.00000  Uiso   1.00
C93    C     0.76950   0.21958   0.80710   0.00000  Uiso   1.00
C94    C     0.71314   0.16023   0.77125   0.00000  Uiso   1.00
C95    C     0.69159   0.09054   0.81376   0.00000  Uiso   1.00
C96    C     0.63931   0.04429   0.76994   0.00000  Uiso   1.00
C97    C     0.55634   0.94867   0.72692   0.00000  Uiso   1.00
C98    C     0.82799   0.22764   0.73380   0.00000  Uiso   1.00
C99    C     0.90300   0.21464   0.74484   0.00000  Uiso   1.00
C100   C     0.94740   0.22514   0.66951   0.00000  Uiso   1.00
C101   C     0.04272   0.23423   0.56838   0.00000  Uiso   1.00
C102   C     0.73001   0.29948   0.81112   0.00000  Uiso   1.00
C103   C     0.72266   0.34690   0.88716   0.00000  Uiso   1.00
C104   C     0.68458   0.41789   0.87692   0.00000  Uiso   1.00
C105   C     0.62779   0.53852   0.89584   0.00000  Uiso   1.00
C106   C     0.71497   0.26136   0.65370   0.00000  Uiso   1.00
C107   C     0.68353   0.18293   0.68792   0.00000  Uiso   1.00
C108   C     0.63126   0.13677   0.64404   0.00000  Uiso   1.00
C109   C     0.60964   0.06702   0.68647   0.00000  Uiso   1.00
C110   C     0.79837   0.25033   0.65049   0.00000  Uiso   1.00
C111   C     0.84267   0.26086   0.57512   0.00000  Uiso   1.00
C112   C     0.91773   0.24787   0.58603   0.00000  Uiso   1.00
C113   C     0.70039   0.32217   0.72780   0.00000  Uiso   1.00
C114   C     0.66233   0.39311   0.71744   0.00000  Uiso   1.00
C115   C     0.65491   0.44062   0.79345   0.00000  Uiso   1.00
H116   H     0.79257   0.20191   0.87197   0.00000  Uiso   1.00
H117   H     0.71453   0.07300   0.87823   0.00000  Uiso   1.00
H118   H     0.92590   0.19709   0.80933   0.00000  Uiso   1.00
H119   H     0.74559   0.32932   0.95163   0.00000  Uiso   1.00
H120   H     0.61498   0.94007   0.84842   0.00000  Uiso   1.00
H121   H     0.06067   0.20174   0.70314   0.00000  Uiso   1.00
H122   H     0.68044   0.48057   0.00321   0.00000  Uiso   1.00
H123   H     0.69191   0.27902   0.58883   0.00000  Uiso   1.00
H124   H     0.60835   0.15434   0.57956   0.00000  Uiso   1.00
H125   H     0.81973   0.27843   0.51065   0.00000  Uiso   1.00
H126   H     0.63941   0.41065   0.65295   0.00000  Uiso   1.00
H127   H     0.52880   0.00609   0.60600   0.00000  Uiso   1.00
H128   H     0.97450   0.26776   0.46072   0.00000  Uiso   1.00
H129   H     0.59426   0.54659   0.76079   0.00000  Uiso   1.00
O130   O     0.51876   0.88965   0.72621   0.00000  Uiso   1.00
O131   O     0.10349   0.23297   0.53561   0.00000  Uiso   1.00
O132   O     0.60463   0.59879   0.92929   0.00000  Uiso   1.00
N133   N     0.60615   0.97273   0.79265   0.00000  Uiso   1.00
N134   N     0.02285   0.21736   0.65682   0.00000  Uiso   1.00
N135   N     0.66738   0.47806   0.93735   0.00000  Uiso   1.00
N136   N     0.55978   0.00825   0.66220   0.00000  Uiso   1.00
N137   N     0.97648   0.25288   0.52637   0.00000  Uiso   1.00
N138   N     0.62101   0.51358   0.80690   0.00000  Uiso   1.00
C139   C     0.73050   0.78042   0.30710   0.00000  Uiso   1.00
C140   C     0.78686   0.83977   0.27125   0.00000  Uiso   1.00
C141   C     0.80841   0.90946   0.31376   0.00000  Uiso   1.00
C142   C     0.86069   0.95571   0.26994   0.00000  Uiso   1.00
C143   C     0.94366   0.05133   0.22692   0.00000  Uiso   1.00
C144   C     0.67201   0.77236   0.23380   0.00000  Uiso   1.00
C145   C     0.59700   0.78536   0.24484   0.00000  Uiso   1.00
C146   C     0.55260   0.77486   0.16951   0.00000  Uiso   1.00
C147   C     0.45728   0.76577   0.06838   0.00000  Uiso   1.00
C148   C     0.76999   0.70052   0.31112   0.00000  Uiso   1.00
C149   C     0.77734   0.65310   0.38716   0.00000  Uiso   1.00
C150   C     0.81542   0.58211   0.37692   0.00000  Uiso   1.00
C151   C     0.87221   0.46148   0.39584   0.00000  Uiso   1.00
C152   C     0.78503   0.73864   0.15370   0.00000  Uiso   1.00
C153   C     0.81647   0.81707   0.18792   0.00000  Uiso   1.00
C154   C     0.86874   0.86323   0.14404   0.00000  Uiso   1.00
C155   C     0.89036   0.93298   0.18647   0.00000  Uiso   1.00
C156   C     0.70163   0.74967   0.15049   0.00000  Uiso   1.00
C157   C     0.65733   0.73914   0.07512   0.00000  Uiso   1.00
C158   C     0.58227   0.75213   0.08603   0.00000  Uiso   1.00
C159   C     0.79961   0.67783   0.22780   0.00000  Uiso   1.00
C160   C     0.83767   0.60689   0.21744   0.00000  Uiso   1.00
C161   C     0.84509   0.55938   0.29345   0.00000  Uiso   1.00
H162   H     0.70743   0.79809   0.37197   0.00000  Uiso   1.00
H163   H     0.78547   0.92700   0.37823   0.00000  Uiso   1.00
H164   H     0.57410   0.80291   0.30933   0.00000  Uiso   1.00
H165   H     0.75441   0.67068   0.45163   0.00000  Uiso   1.00
H166   H     0.88502   0.05993   0.34842   0.00000  Uiso   1.00
H167   H     0.43933   0.79826   0.20314   0.00000  Uiso   1.00
H168   H     0.81956   0.51943   0.50321   0.00000  Uiso   1.00
H169   H     0.80809   0.72098   0.08883   0.00000  Uiso   1.00
H170   H     0.89165   0.84566   0.07956   0.00000  Uiso   1.00
H171   H     0.68027   0.72157   0.01065   0.00000  Uiso   1.00
H172   H     0.86059   0.58935   0.15295   0.00000  Uiso   1.00
H173   H     0.97120   0.99391   0.10600   0.00000  Uiso   1.00
H174   H     0.52550   0.73224   0.96072   0.00000  Uiso   1.00
H175   H     0.90574   0.45341   0.26079   0.00000  Uiso   1.00
O176   O     0.98124   0.11035   0.22621   0.00000  Uiso   1.00
O177   O     0.39651   0.76703   0.03561   0.00000  Uiso   1.00
O178   O     0.89537   0.40121   0.42929   0.00000  Uiso   1.00
N179   N     0.89385   0.02727   0.29265   0.00000  Uiso   1.00
N180   N     0.47715   0.78264   0.15682   0.00000  Uiso   1.00
N181   N     0.83262   0.52194   0.43735   0.00000  Uiso   1.00
N182   N     0.94022   0.99175   0.16220   0.00000  Uiso   1.00
N183   N     0.52352   0.74712   0.02637   0.00000  Uiso   1.00
N184   N     0.87899   0.48642   0.30690   0.00000  Uiso   1.00
C185   C     0.76950   0.28042   0.30710   0.00000  Uiso   1.00
C186   C     0.71314   0.33977   0.27125   0.00000  Uiso   1.00
C187   C     0.69159   0.40946   0.31376   0.00000  Uiso   1.00
C188   C     0.63931   0.45571   0.26994   0.00000  Uiso   1.00
C189   C     0.55634   0.55133   0.22692   0.00000  Uiso   1.00
C190   C     0.82799   0.27236   0.23380   0.00000  Uiso   1.00
C191   C     0.90300   0.28536   0.24484   0.00000  Uiso   1.00
C192   C     0.94740   0.27486   0.16951   0.00000  Uiso   1.00
C193   C     0.04272   0.26577   0.06838   0.00000  Uiso   1.00
C194   C     0.73001   0.20052   0.31112   0.00000  Uiso   1.00
C195   C     0.72266   0.15310   0.38716   0.00000  Uiso   1.00
C196   C     0.68458   0.08211   0.37692   0.00000  Uiso   1.00
C197   C     0.62779   0.96148   0.39584   0.00000  Uiso   1.00
C198   C     0.71497   0.23864   0.15370   0.00000  Uiso   1.00
C199   C     0.68353   0.31707   0.18792   0.00000  Uiso   1.00
C200   C     0.63126   0.36323   0.14404   0.00000  Uiso   1.00
C201   C     0.60964   0.43298   0.18647   0.00000  Uiso   1.00
C202   C     0.79837   0.24967   0.15049   0.00000  Uiso   1.00
C203   C     0.84267   0.23914   0.07512   0.00000  Uiso   1.00
C204   C     0.91773   0.25213   0.08603   0.00000  Uiso   1.00
C205   C     0.70039   0.17783   0.22780   0.00000  Uiso   1.00
C206   C     0.66233   0.10689   0.21744   0.00000  Uiso   1.00
C207   C     0.65491   0.05938   0.29345   0.00000  Uiso   1.00
H208   H     0.79257   0.29809   0.37197   0.00000  Uiso   1.00
H209   H     0.71453   0.42700   0.37823   0.00000  Uiso   1.00
H210   H     0.92590   0.30291   0.30933   0.00000  Uiso   1.00
H211   H     0.74559   0.17068   0.45163   0.00000  Uiso   1.00
H212   H     0.61498   0.55993   0.34842   0.00000  Uiso   1.00
H213   H     0.06067   0.29826   0.20314   0.00000  Uiso   1.00
H214   H     0.68044   0.01943   0.50321   0.00000  Uiso   1.00
H215   H     0.69191   0.22098   0.08883   0.00000  Uiso   1.00
H216   H     0.60835   0.34566   0.07956   0.00000  Uiso   1.00
H217   H     0.81973   0.22157   0.01065   0.00000  Uiso   1.00
H218   H     0.63941   0.08935   0.15295   0.00000  Uiso   1.00
H219   H     0.52880   0.49391   0.10600   0.00000  Uiso   1.00
H220   H     0.97450   0.23224   0.96072   0.00000  Uiso   1.00
H221   H     0.59426   0.95341   0.26079   0.00000  Uiso   1.00
O222   O     0.51876   0.61035   0.22621   0.00000  Uiso   1.00
O223   O     0.10349   0.26703   0.03561   0.00000  Uiso   1.00
O224   O     0.60463   0.90121   0.42929   0.00000  Uiso   1.00
N225   N     0.60615   0.52727   0.29265   0.00000  Uiso   1.00
N226   N     0.02285   0.28264   0.15682   0.00000  Uiso   1.00
N227   N     0.66738   0.02194   0.43735   0.00000  Uiso   1.00
N228   N     0.55978   0.49175   0.16220   0.00000  Uiso   1.00
N229   N     0.97648   0.24712   0.02637   0.00000  Uiso   1.00
N230   N     0.62101   0.98642   0.30690   0.00000  Uiso   1.00
C231   C     0.73050   0.71958   0.80710   0.00000  Uiso   1.00
C232   C     0.78686   0.66023   0.77125   0.00000  Uiso   1.00
C233   C     0.80841   0.59054   0.81376   0.00000  Uiso   1.00
C234   C     0.86069   0.54429   0.76994   0.00000  Uiso   1.00
C235   C     0.94366   0.44867   0.72692   0.00000  Uiso   1.00
C236   C     0.67201   0.72764   0.73380   0.00000  Uiso   1.00
C237   C     0.59700   0.71464   0.74484   0.00000  Uiso   1.00
C238   C     0.55260   0.72514   0.66951   0.00000  Uiso   1.00
C239   C     0.45728   0.73423   0.56838   0.00000  Uiso   1.00
C240   C     0.76999   0.79948   0.81112   0.00000  Uiso   1.00
C241   C     0.77734   0.84690   0.88716   0.00000  Uiso   1.00
C242   C     0.81542   0.91789   0.87692   0.00000  Uiso   1.00
C243   C     0.87221   0.03852   0.89584   0.00000  Uiso   1.00
C244   C     0.78503   0.76136   0.65370   0.00000  Uiso   1.00
C245   C     0.81647   0.68293   0.68792   0.00000  Uiso   1.00
C246   C     0.86874   0.63677   0.64404   0.00000  Uiso   1.00
C247   C     0.89036   0.56702   0.68647   0.00000  Uiso   1.00
C248   C     0.70163   0.75033   0.65049   0.00000  Uiso   1.00
C249   C     0.65733   0.76086   0.57512   0.00000  Uiso   1.00
C250   C     0.58227   0.74787   0.58603   0.00000  Uiso   1.00
C251   C     0.79961   0.82217   0.72780   0.00000  Uiso   1.00
C252   C     0.83767   0.89311   0.71744   0.00000  Uiso   1.00
C253   C     0.84509   0.94062   0.79345   0.00000  Uiso   1.00
H254   H     0.70743   0.70191   0.87197   0.00000  Uiso   1.00
H255   H     0.78547   0.57300   0.87823   0.00000  Uiso   1.00
H256   H     0.57410   0.69709   0.80933   0.00000  Uiso   1.00
H257   H     0.75441   0.82932   0.95163   0.00000  Uiso   1.00
H258   H     0.88502   0.44007   0.84842   0.00000  Uiso   1.00
H259   H     0.43933   0.70174   0.70314   0.00000  Uiso   1.00
H260   H     0.81956   0.98057   0.00321   0.00000  Uiso   1.00
H261   H     0.80809   0.77902   0.58883   0.00000  Uiso   1.00
H262   H     0.89165   0.65434   0.57956   0.00000  Uiso   1.00
H263   H     0.68027   0.77843   0.51065   0.00000  Uiso   1.00
H264   H     0.86059   0.91065   0.65295   0.00000  Uiso   1.00
H265   H     0.97120   0.50609   0.60600   0.00000  Uiso   1.00
H266   H     0.52550   0.76776   0.46072   0.00000  Uiso   1.00
H267   H     0.90574   0.04659   0.76079   0.00000  Uiso   1.00
O268   O     0.98124   0.38965   0.72621   0.00000  Uiso   1.00
O269   O     0.39651   0.73297   0.53561   0.00000  Uiso   1.00
O270   O     0.89537   0.09879   0.92929   0.00000  Uiso   1.00
N271   N     0.89385   0.47273   0.79265   0.00000  Uiso   1.00
N272   N     0.47715   0.71736   0.65682   0.00000  Uiso   1.00
N273   N     0.83262   0.97806   0.93735   0.00000  Uiso   1.00
N274   N     0.94022   0.50825   0.66220   0.00000  Uiso   1.00
N275   N     0.52352   0.75288   0.52637   0.00000  Uiso   1.00
N276   N     0.87899   0.01358   0.80690   0.00000  Uiso   1.00
C277   C     0.23050   0.78042   0.19290   0.00000  Uiso   1.00
C278   C     0.28686   0.83977   0.22875   0.00000  Uiso   1.00
C279   C     0.30841   0.90946   0.18624   0.00000  Uiso   1.00
C280   C     0.36069   0.95571   0.23006   0.00000  Uiso   1.00
C281   C     0.44366   0.05133   0.27308   0.00000  Uiso   1.00
C282   C     0.17201   0.77236   0.26620   0.00000  Uiso   1.00
C283   C     0.09700   0.78536   0.25516   0.00000  Uiso   1.00
C284   C     0.05260   0.77486   0.33049   0.00000  Uiso   1.00
C285   C     0.95728   0.76577   0.43162   0.00000  Uiso   1.00
C286   C     0.26999   0.70052   0.18888   0.00000  Uiso   1.00
C287   C     0.27734   0.65310   0.11284   0.00000  Uiso   1.00
C288   C     0.31542   0.58211   0.12308   0.00000  Uiso   1.00
C289   C     0.37221   0.46148   0.10416   0.00000  Uiso   1.00
C290   C     0.28503   0.73864   0.34630   0.00000  Uiso   1.00
C291   C     0.31647   0.81707   0.31208   0.00000  Uiso   1.00
C292   C     0.36874   0.86323   0.35596   0.00000  Uiso   1.00
C293   C     0.39036   0.93298   0.31353   0.00000  Uiso   1.00
C294   C     0.20163   0.74967   0.34951   0.00000  Uiso   1.00
C295   C     0.15733   0.73914   0.42488   0.00000  Uiso   1.00
C296   C     0.08227   0.75213   0.41397   0.00000  Uiso   1.00
C297   C     0.29961   0.67783   0.27220   0.00000  Uiso   1.00
C298   C     0.33767   0.60689   0.28256   0.00000  Uiso   1.00
C299   C     0.34509   0.55938   0.20655   0.00000  Uiso   1.00
H300   H     0.20743   0.79809   0.12803   0.00000  Uiso   1.00
H301   H     0.28547   0.92700   0.12177   0.00000  Uiso   1.00
H302   H     0.07410   0.80291   0.19067   0.00000  Uiso   1.00
H303   H     0.25441   0.67068   0.04837   0.00000  Uiso   1.00
H304   H     0.38502   0.05993   0.15158   0.00000  Uiso   1.00
H305   H     0.93933   0.79826   0.29686   0.00000  Uiso   1.00
H306   H     0.31956   0.51943   0.99679   0.00000  Uiso   1.00
H307   H     0.30809   0.72098   0.41117   0.00000  Uiso   1.00
H308   H     0.39165   0.84566   0.42044   0.00000  Uiso   1.00
H309   H     0.18027   0.72157   0.48935   0.00000  Uiso   1.00
H310   H     0.36059   0.58935   0.34705   0.00000  Uiso   1.00
H311   H     0.47120   0.99391   0.39400   0.00000  Uiso   1.00
H312   H     0.02550   0.73224   0.53928   0.00000  Uiso   1.00
H313   H     0.40574   0.45341   0.23921   0.00000  Uiso   1.00
O314   O     0.48124   0.11035   0.27379   0.00000  Uiso   1.00
O315   O     0.89651   0.76703   0.46439   0.00000  Uiso   1.00
O316   O     0.39537   0.40121   0.07071   0.00000  Uiso   1.00
N317   N     0.39385   0.02727   0.20735   0.00000  Uiso   1.00
N318   N     0.97715   0.78264   0.34318   0.00000  Uiso   1.00
N319   N     0.33262   0.52194   0.06265   0.00000  Uiso   1.00
N320   N     0.44022   0.99175   0.33780   0.00000  Uiso   1.00
N321   N     0.02352   0.74712   0.47363   0.00000  Uiso   1.00
N322   N     0.37899   0.48642   0.19310   0.00000  Uiso   1.00
C323   C     0.26950   0.21958   0.69290   0.00000  Uiso   1.00
C324   C     0.21314   0.16023   0.72875   0.00000  Uiso   1.00
C325   C     0.19159   0.09054   0.68624   0.00000  Uiso   1.00
C326   C     0.13931   0.04429   0.73006   0.00000  Uiso   1.00
C327   C     0.05634   0.94867   0.77308   0.00000  Uiso   1.00
C328   C     0.32799   0.22764   0.76620   0.00000  Uiso   1.00
C329   C     0.40300   0.21464   0.75516   0.00000  Uiso   1.00
C330   C     0.44740   0.22514   0.83049   0.00000  Uiso   1.00
C331   C     0.54272   0.23423   0.93162   0.00000  Uiso   1.00
C332   C     0.23001   0.29948   0.68888   0.00000  Uiso   1.00
C333   C     0.22266   0.34690   0.61284   0.00000  Uiso   1.00
C334   C     0.18458   0.41789   0.62308   0.00000  Uiso   1.00
C335   C     0.12779   0.53852   0.60416   0.00000  Uiso   1.00
C336   C     0.21497   0.26136   0.84630   0.00000  Uiso   1.00
C337   C     0.18353   0.18293   0.81208   0.00000  Uiso   1.00
C338   C     0.13126   0.13677   0.85596   0.00000  Uiso   1.00
C339   C     0.10964   0.06702   0.81353   0.00000  Uiso   1.00
C340   C     0.29837   0.25033   0.84951   0.00000  Uiso   1.00
C341   C     0.34267   0.26086   0.92488   0.00000  Uiso   1.00
C342   C     0.41773   0.24787   0.91397   0.00000  Uiso   1.00
C343   C     0.20039   0.32217   0.77220   0.00000  Uiso   1.00
C344   C     0.16233   0.39311   0.78256   0.00000  Uiso   1.00
C345   C     0.15491   0.44062   0.70655   0.00000  Uiso   1.00
H346   H     0.29257   0.20191   0.62803   0.00000  Uiso   1.00
H347   H     0.21453   0.07300   0.62177   0.00000  Uiso   1.00
H348   H     0.42590   0.19709   0.69067   0.00000  Uiso   1.00
H349   H     0.24559   0.32932   0.54837   0.00000  Uiso   1.00
H350   H     0.11498   0.94007   0.65158   0.00000  Uiso   1.00
H351   H     0.56067   0.20174   0.79686   0.00000  Uiso   1.00
H352   H     0.18044   0.48057   0.49679   0.00000  Uiso   1.00
H353   H     0.19191   0.27902   0.91117   0.00000  Uiso   1.00
H354   H     0.10835   0.15434   0.92044   0.00000  Uiso   1.00
H355   H     0.31973   0.27843   0.98935   0.00000  Uiso   1.00
H356   H     0.13941   0.41065   0.84705   0.00000  Uiso   1.00
H357   H     0.02880   0.00609   0.89400   0.00000  Uiso   1.00
H358   H     0.47450   0.26776   0.03928   0.00000  Uiso   1.00
H359   H     0.09426   0.54659   0.73921   0.00000  Uiso   1.00
O360   O     0.01876   0.88965   0.77379   0.00000  Uiso   1.00
O361   O     0.60349   0.23297   0.96439   0.00000  Uiso   1.00
O362   O     0.10463   0.59879   0.57071   0.00000  Uiso   1.00
N363   N     0.10615   0.97273   0.70735   0.00000  Uiso   1.00
N364   N     0.52285   0.21736   0.84318   0.00000  Uiso   1.00
N365   N     0.16738   0.47806   0.56265   0.00000  Uiso   1.00
N366   N     0.05978   0.00825   0.83780   0.00000  Uiso   1.00
N367   N     0.47648   0.25288   0.97363   0.00000  Uiso   1.00
N368   N     0.12101   0.51358   0.69310   0.00000  Uiso   1.00
