data_job_01173
_audit_creation_date              2018-12-19
_audit_creation_method            'Materials Studio'
_symmetry_space_group_name_H-M    'P1'
_symmetry_Int_Tables_number       1
_symmetry_cell_setting            triclinic
loop_
_symmetry_equiv_pos_as_xyz
  x,y,z
_cell_length_a                    14.6025
_cell_length_b                    20.3307
_cell_length_c                    19.9934
_cell_angle_alpha                 90.0000
_cell_angle_beta                  86.4456
_cell_angle_gamma                 90.0000
loop_
_atom_site_label
_atom_site_type_symbol
_atom_site_fract_x
_atom_site_fract_y
_atom_site_fract_z
_atom_site_U_iso_or_equiv
_atom_site_adp_type
_atom_site_occupancy
C1     C     0.46083   0.27091   0.63520   0.00000  Uiso   1.00
C2     C     0.44498   0.27044   0.56053   0.00000  Uiso   1.00
C3     C     0.38637   0.22846   0.52899   0.00000  Uiso   1.00
C4     C     0.38153   0.23585   0.46026   0.00000  Uiso   1.00
C5     C     0.34905   0.22786   0.34976   0.00000  Uiso   1.00
C6     C     0.56381   0.26181   0.64040   0.00000  Uiso   1.00
C7     C     0.60509   0.21258   0.67603   0.00000  Uiso   1.00
C8     C     0.70028   0.21272   0.67455   0.00000  Uiso   1.00
C9     C     0.85227   0.19135   0.68810   0.00000  Uiso   1.00
C10    C     0.43926   0.34063   0.65946   0.00000  Uiso   1.00
C11    C     0.37584   0.35767   0.71113   0.00000  Uiso   1.00
C12    C     0.36617   0.42418   0.72571   0.00000  Uiso   1.00
C13    C     0.32478   0.52519   0.76886   0.00000  Uiso   1.00
C14    C     0.55647   0.35871   0.56924   0.00000  Uiso   1.00
C15    C     0.49693   0.31813   0.52470   0.00000  Uiso   1.00
C16    C     0.49217   0.32560   0.45601   0.00000  Uiso   1.00
C17    C     0.43356   0.28363   0.42437   0.00000  Uiso   1.00
C18    C     0.61575   0.30950   0.60458   0.00000  Uiso   1.00
C19    C     0.71090   0.30972   0.60305   0.00000  Uiso   1.00
C20    C     0.75232   0.26049   0.63866   0.00000  Uiso   1.00
C21    C     0.49120   0.38833   0.62364   0.00000  Uiso   1.00
C22    C     0.48164   0.45482   0.63815   0.00000  Uiso   1.00
C23    C     0.41821   0.47195   0.68982   0.00000  Uiso   1.00
H24    H     0.42040   0.23378   0.66309   0.00000  Uiso   1.00
H25    H     0.34619   0.19155   0.55673   0.00000  Uiso   1.00
H26    H     0.56488   0.17568   0.70375   0.00000  Uiso   1.00
H27    H     0.33565   0.32075   0.73884   0.00000  Uiso   1.00
H28    H     0.28684   0.16575   0.42300   0.00000  Uiso   1.00
H29    H     0.74796   0.13230   0.73303   0.00000  Uiso   1.00
H30    H     0.26460   0.43821   0.80703   0.00000  Uiso   1.00
H31    H     0.59691   0.39584   0.54135   0.00000  Uiso   1.00
H32    H     0.53238   0.36251   0.42830   0.00000  Uiso   1.00
H33    H     0.75107   0.34664   0.57532   0.00000  Uiso   1.00
H34    H     0.52185   0.49171   0.61041   0.00000  Uiso   1.00
H35    H     0.43797   0.30451   0.31876   0.00000  Uiso   1.00
H36    H     0.89909   0.27105   0.62879   0.00000  Uiso   1.00
H37    H     0.41572   0.57697   0.70279   0.00000  Uiso   1.00
O38    O     0.31679   0.21026   0.29871   0.00000  Uiso   1.00
O39    O     0.92176   0.16638   0.70546   0.00000  Uiso   1.00
O40    O     0.28760   0.56773   0.80254   0.00000  Uiso   1.00
N41    N     0.33125   0.20299   0.41398   0.00000  Uiso   1.00
N42    N     0.76237   0.17171   0.70383   0.00000  Uiso   1.00
N43    N     0.31048   0.45771   0.77303   0.00000  Uiso   1.00
N44    N     0.41257   0.27765   0.35789   0.00000  Uiso   1.00
N45    N     0.84369   0.24637   0.64774   0.00000  Uiso   1.00
N46    N     0.39180   0.53237   0.71694   0.00000  Uiso   1.00
C47    C     0.96083   0.77091   0.63520   0.00000  Uiso   1.00
C48    C     0.94498   0.77044   0.56053   0.00000  Uiso   1.00
C49    C     0.88637   0.72846   0.52899   0.00000  Uiso   1.00
C50    C     0.88153   0.73585   0.46026   0.00000  Uiso   1.00
C51    C     0.84905   0.72786   0.34976   0.00000  Uiso   1.00
C52    C     0.06381   0.76181   0.64040   0.00000  Uiso   1.00
C53    C     0.10509   0.71258   0.67603   0.00000  Uiso   1.00
C54    C     0.20028   0.71272   0.67455   0.00000  Uiso   1.00
C55    C     0.35227   0.69135   0.68810   0.00000  Uiso   1.00
C56    C     0.93926   0.84063   0.65946   0.00000  Uiso   1.00
C57    C     0.87584   0.85767   0.71113   0.00000  Uiso   1.00
C58    C     0.86617   0.92418   0.72571   0.00000  Uiso   1.00
C59    C     0.82478   0.02519   0.76886   0.00000  Uiso   1.00
C60    C     0.05647   0.85871   0.56924   0.00000  Uiso   1.00
C61    C     0.99693   0.81813   0.52470   0.00000  Uiso   1.00
C62    C     0.99217   0.82560   0.45601   0.00000  Uiso   1.00
C63    C     0.93356   0.78363   0.42437   0.00000  Uiso   1.00
C64    C     0.11575   0.80950   0.60458   0.00000  Uiso   1.00
C65    C     0.21090   0.80972   0.60305   0.00000  Uiso   1.00
C66    C     0.25232   0.76049   0.63866   0.00000  Uiso   1.00
C67    C     0.99120   0.88833   0.62364   0.00000  Uiso   1.00
C68    C     0.98164   0.95482   0.63815   0.00000  Uiso   1.00
C69    C     0.91821   0.97195   0.68982   0.00000  Uiso   1.00
H70    H     0.92040   0.73378   0.66309   0.00000  Uiso   1.00
H71    H     0.84619   0.69155   0.55673   0.00000  Uiso   1.00
H72    H     0.06488   0.67568   0.70375   0.00000  Uiso   1.00
H73    H     0.83565   0.82075   0.73884   0.00000  Uiso   1.00
H74    H     0.78684   0.66575   0.42300   0.00000  Uiso   1.00
H75    H     0.24796   0.63230   0.73303   0.00000  Uiso   1.00
H76    H     0.76460   0.93821   0.80703   0.00000  Uiso   1.00
H77    H     0.09691   0.89584   0.54135   0.00000  Uiso   1.00
H78    H     0.03238   0.86251   0.42830   0.00000  Uiso   1.00
H79    H     0.25107   0.84664   0.57532   0.00000  Uiso   1.00
H80    H     0.02185   0.99171   0.61041   0.00000  Uiso   1.00
H81    H     0.93797   0.80451   0.31876   0.00000  Uiso   1.00
H82    H     0.39909   0.77105   0.62879   0.00000  Uiso   1.00
H83    H     0.91572   0.07697   0.70279   0.00000  Uiso   1.00
O84    O     0.81679   0.71026   0.29871   0.00000  Uiso   1.00
O85    O     0.42176   0.66638   0.70546   0.00000  Uiso   1.00
O86    O     0.78760   0.06773   0.80254   0.00000  Uiso   1.00
N87    N     0.83125   0.70299   0.41398   0.00000  Uiso   1.00
N88    N     0.26237   0.67171   0.70383   0.00000  Uiso   1.00
N89    N     0.81048   0.95771   0.77303   0.00000  Uiso   1.00
N90    N     0.91257   0.77765   0.35789   0.00000  Uiso   1.00
N91    N     0.34369   0.74637   0.64774   0.00000  Uiso   1.00
N92    N     0.89180   0.03237   0.71694   0.00000  Uiso   1.00
C93    C     0.53917   0.27091   0.86480   0.00000  Uiso   1.00
C94    C     0.55502   0.27044   0.93947   0.00000  Uiso   1.00
C95    C     0.61363   0.22846   0.97101   0.00000  Uiso   1.00
C96    C     0.61847   0.23585   0.03974   0.00000  Uiso   1.00
C97    C     0.65095   0.22786   0.15024   0.00000  Uiso   1.00
C98    C     0.43619   0.26181   0.85960   0.00000  Uiso   1.00
C99    C     0.39491   0.21258   0.82397   0.00000  Uiso   1.00
C100   C     0.29972   0.21272   0.82545   0.00000  Uiso   1.00
C101   C     0.14773   0.19135   0.81190   0.00000  Uiso   1.00
C102   C     0.56074   0.34063   0.84054   0.00000  Uiso   1.00
C103   C     0.62416   0.35767   0.78887   0.00000  Uiso   1.00
C104   C     0.63383   0.42418   0.77429   0.00000  Uiso   1.00
C105   C     0.67522   0.52519   0.73114   0.00000  Uiso   1.00
C106   C     0.44353   0.35871   0.93076   0.00000  Uiso   1.00
C107   C     0.50307   0.31813   0.97530   0.00000  Uiso   1.00
C108   C     0.50783   0.32560   0.04399   0.00000  Uiso   1.00
C109   C     0.56644   0.28363   0.07563   0.00000  Uiso   1.00
C110   C     0.38425   0.30950   0.89542   0.00000  Uiso   1.00
C111   C     0.28910   0.30972   0.89695   0.00000  Uiso   1.00
C112   C     0.24768   0.26049   0.86134   0.00000  Uiso   1.00
C113   C     0.50880   0.38833   0.87636   0.00000  Uiso   1.00
C114   C     0.51836   0.45482   0.86185   0.00000  Uiso   1.00
C115   C     0.58179   0.47195   0.81018   0.00000  Uiso   1.00
H116   H     0.57960   0.23378   0.83691   0.00000  Uiso   1.00
H117   H     0.65381   0.19155   0.94327   0.00000  Uiso   1.00
H118   H     0.43512   0.17568   0.79625   0.00000  Uiso   1.00
H119   H     0.66435   0.32075   0.76116   0.00000  Uiso   1.00
H120   H     0.71316   0.16575   0.07700   0.00000  Uiso   1.00
H121   H     0.25204   0.13230   0.76697   0.00000  Uiso   1.00
H122   H     0.73540   0.43821   0.69297   0.00000  Uiso   1.00
H123   H     0.40309   0.39584   0.95865   0.00000  Uiso   1.00
H124   H     0.46762   0.36251   0.07170   0.00000  Uiso   1.00
H125   H     0.24893   0.34664   0.92468   0.00000  Uiso   1.00
H126   H     0.47815   0.49171   0.88959   0.00000  Uiso   1.00
H127   H     0.56203   0.30451   0.18124   0.00000  Uiso   1.00
H128   H     0.10091   0.27105   0.87121   0.00000  Uiso   1.00
H129   H     0.58428   0.57697   0.79721   0.00000  Uiso   1.00
O130   O     0.68321   0.21026   0.20129   0.00000  Uiso   1.00
O131   O     0.07824   0.16638   0.79454   0.00000  Uiso   1.00
O132   O     0.71240   0.56773   0.69746   0.00000  Uiso   1.00
N133   N     0.66875   0.20299   0.08602   0.00000  Uiso   1.00
N134   N     0.23763   0.17171   0.79617   0.00000  Uiso   1.00
N135   N     0.68952   0.45771   0.72697   0.00000  Uiso   1.00
N136   N     0.58743   0.27765   0.14211   0.00000  Uiso   1.00
N137   N     0.15631   0.24637   0.85226   0.00000  Uiso   1.00
N138   N     0.60820   0.53237   0.78306   0.00000  Uiso   1.00
C139   C     0.03917   0.77091   0.86480   0.00000  Uiso   1.00
C140   C     0.05502   0.77044   0.93947   0.00000  Uiso   1.00
C141   C     0.11363   0.72846   0.97101   0.00000  Uiso   1.00
C142   C     0.11847   0.73585   0.03974   0.00000  Uiso   1.00
C143   C     0.15095   0.72786   0.15024   0.00000  Uiso   1.00
C144   C     0.93619   0.76181   0.85960   0.00000  Uiso   1.00
C145   C     0.89491   0.71258   0.82397   0.00000  Uiso   1.00
C146   C     0.79972   0.71272   0.82545   0.00000  Uiso   1.00
C147   C     0.64773   0.69135   0.81190   0.00000  Uiso   1.00
C148   C     0.06074   0.84063   0.84054   0.00000  Uiso   1.00
C149   C     0.12416   0.85767   0.78887   0.00000  Uiso   1.00
C150   C     0.13383   0.92418   0.77429   0.00000  Uiso   1.00
C151   C     0.17522   0.02519   0.73114   0.00000  Uiso   1.00
C152   C     0.94353   0.85871   0.93076   0.00000  Uiso   1.00
C153   C     0.00307   0.81813   0.97530   0.00000  Uiso   1.00
C154   C     0.00783   0.82560   0.04399   0.00000  Uiso   1.00
C155   C     0.06644   0.78363   0.07563   0.00000  Uiso   1.00
C156   C     0.88425   0.80950   0.89542   0.00000  Uiso   1.00
C157   C     0.78910   0.80972   0.89695   0.00000  Uiso   1.00
C158   C     0.74768   0.76049   0.86134   0.00000  Uiso   1.00
C159   C     0.00880   0.88833   0.87636   0.00000  Uiso   1.00
C160   C     0.01836   0.95482   0.86185   0.00000  Uiso   1.00
C161   C     0.08179   0.97195   0.81018   0.00000  Uiso   1.00
H162   H     0.07960   0.73378   0.83691   0.00000  Uiso   1.00
H163   H     0.15381   0.69155   0.94327   0.00000  Uiso   1.00
H164   H     0.93512   0.67568   0.79625   0.00000  Uiso   1.00
H165   H     0.16435   0.82075   0.76116   0.00000  Uiso   1.00
H166   H     0.21316   0.66575   0.07700   0.00000  Uiso   1.00
H167   H     0.75204   0.63230   0.76697   0.00000  Uiso   1.00
H168   H     0.23540   0.93821   0.69297   0.00000  Uiso   1.00
H169   H     0.90309   0.89584   0.95865   0.00000  Uiso   1.00
H170   H     0.96762   0.86251   0.07170   0.00000  Uiso   1.00
H171   H     0.74893   0.84664   0.92468   0.00000  Uiso   1.00
H172   H     0.97815   0.99171   0.88959   0.00000  Uiso   1.00
H173   H     0.06203   0.80451   0.18124   0.00000  Uiso   1.00
H174   H     0.60091   0.77105   0.87121   0.00000  Uiso   1.00
H175   H     0.08428   0.07697   0.79721   0.00000  Uiso   1.00
O176   O     0.18321   0.71026   0.20129   0.00000  Uiso   1.00
O177   O     0.57824   0.66638   0.79454   0.00000  Uiso   1.00
O178   O     0.21240   0.06773   0.69746   0.00000  Uiso   1.00
N179   N     0.16875   0.70299   0.08602   0.00000  Uiso   1.00
N180   N     0.73763   0.67171   0.79617   0.00000  Uiso   1.00
N181   N     0.18952   0.95771   0.72697   0.00000  Uiso   1.00
N182   N     0.08743   0.77765   0.14211   0.00000  Uiso   1.00
N183   N     0.65631   0.74637   0.85226   0.00000  Uiso   1.00
N184   N     0.10820   0.03237   0.78306   0.00000  Uiso   1.00
C185   C     0.53917   0.72909   0.36480   0.00000  Uiso   1.00
C186   C     0.55502   0.72956   0.43947   0.00000  Uiso   1.00
C187   C     0.61363   0.77154   0.47101   0.00000  Uiso   1.00
C188   C     0.61847   0.76415   0.53974   0.00000  Uiso   1.00
C189   C     0.65095   0.77214   0.65024   0.00000  Uiso   1.00
C190   C     0.43619   0.73819   0.35960   0.00000  Uiso   1.00
C191   C     0.39491   0.78742   0.32397   0.00000  Uiso   1.00
C192   C     0.29972   0.78728   0.32545   0.00000  Uiso   1.00
C193   C     0.14773   0.80865   0.31190   0.00000  Uiso   1.00
C194   C     0.56074   0.65937   0.34054   0.00000  Uiso   1.00
C195   C     0.62416   0.64233   0.28887   0.00000  Uiso   1.00
C196   C     0.63383   0.57582   0.27429   0.00000  Uiso   1.00
C197   C     0.67522   0.47481   0.23114   0.00000  Uiso   1.00
C198   C     0.44353   0.64129   0.43076   0.00000  Uiso   1.00
C199   C     0.50307   0.68187   0.47530   0.00000  Uiso   1.00
C200   C     0.50783   0.67440   0.54399   0.00000  Uiso   1.00
C201   C     0.56644   0.71637   0.57563   0.00000  Uiso   1.00
C202   C     0.38425   0.69050   0.39542   0.00000  Uiso   1.00
C203   C     0.28910   0.69028   0.39695   0.00000  Uiso   1.00
C204   C     0.24768   0.73951   0.36134   0.00000  Uiso   1.00
C205   C     0.50880   0.61167   0.37636   0.00000  Uiso   1.00
C206   C     0.51836   0.54518   0.36185   0.00000  Uiso   1.00
C207   C     0.58179   0.52805   0.31018   0.00000  Uiso   1.00
H208   H     0.57960   0.76622   0.33691   0.00000  Uiso   1.00
H209   H     0.65381   0.80845   0.44327   0.00000  Uiso   1.00
H210   H     0.43512   0.82432   0.29625   0.00000  Uiso   1.00
H211   H     0.66435   0.67925   0.26116   0.00000  Uiso   1.00
H212   H     0.71316   0.83425   0.57700   0.00000  Uiso   1.00
H213   H     0.25204   0.86770   0.26697   0.00000  Uiso   1.00
H214   H     0.73540   0.56179   0.19297   0.00000  Uiso   1.00
H215   H     0.40309   0.60416   0.45865   0.00000  Uiso   1.00
H216   H     0.46762   0.63749   0.57170   0.00000  Uiso   1.00
H217   H     0.24893   0.65336   0.42468   0.00000  Uiso   1.00
H218   H     0.47815   0.50829   0.38959   0.00000  Uiso   1.00
H219   H     0.56203   0.69549   0.68124   0.00000  Uiso   1.00
H220   H     0.10091   0.72895   0.37121   0.00000  Uiso   1.00
H221   H     0.58428   0.42303   0.29721   0.00000  Uiso   1.00
O222   O     0.68321   0.78974   0.70129   0.00000  Uiso   1.00
O223   O     0.07824   0.83362   0.29454   0.00000  Uiso   1.00
O224   O     0.71240   0.43227   0.19746   0.00000  Uiso   1.00
N225   N     0.66875   0.79701   0.58602   0.00000  Uiso   1.00
N226   N     0.23763   0.82829   0.29617   0.00000  Uiso   1.00
N227   N     0.68952   0.54229   0.22697   0.00000  Uiso   1.00
N228   N     0.58743   0.72235   0.64211   0.00000  Uiso   1.00
N229   N     0.15631   0.75363   0.35226   0.00000  Uiso   1.00
N230   N     0.60820   0.46763   0.28306   0.00000  Uiso   1.00
C231   C     0.03917   0.22909   0.36480   0.00000  Uiso   1.00
C232   C     0.05502   0.22956   0.43947   0.00000  Uiso   1.00
C233   C     0.11363   0.27154   0.47101   0.00000  Uiso   1.00
C234   C     0.11847   0.26415   0.53974   0.00000  Uiso   1.00
C235   C     0.15095   0.27214   0.65024   0.00000  Uiso   1.00
C236   C     0.93619   0.23819   0.35960   0.00000  Uiso   1.00
C237   C     0.89491   0.28742   0.32397   0.00000  Uiso   1.00
C238   C     0.79972   0.28728   0.32545   0.00000  Uiso   1.00
C239   C     0.64773   0.30865   0.31190   0.00000  Uiso   1.00
C240   C     0.06074   0.15937   0.34054   0.00000  Uiso   1.00
C241   C     0.12416   0.14233   0.28887   0.00000  Uiso   1.00
C242   C     0.13383   0.07582   0.27429   0.00000  Uiso   1.00
C243   C     0.17522   0.97481   0.23114   0.00000  Uiso   1.00
C244   C     0.94353   0.14129   0.43076   0.00000  Uiso   1.00
C245   C     0.00307   0.18187   0.47530   0.00000  Uiso   1.00
C246   C     0.00783   0.17440   0.54399   0.00000  Uiso   1.00
C247   C     0.06644   0.21637   0.57563   0.00000  Uiso   1.00
C248   C     0.88425   0.19050   0.39542   0.00000  Uiso   1.00
C249   C     0.78910   0.19028   0.39695   0.00000  Uiso   1.00
C250   C     0.74768   0.23951   0.36134   0.00000  Uiso   1.00
C251   C     0.00880   0.11167   0.37636   0.00000  Uiso   1.00
C252   C     0.01836   0.04518   0.36185   0.00000  Uiso   1.00
C253   C     0.08179   0.02805   0.31018   0.00000  Uiso   1.00
H254   H     0.07960   0.26622   0.33691   0.00000  Uiso   1.00
H255   H     0.15381   0.30845   0.44327   0.00000  Uiso   1.00
H256   H     0.93512   0.32432   0.29625   0.00000  Uiso   1.00
H257   H     0.16435   0.17925   0.26116   0.00000  Uiso   1.00
H258   H     0.21316   0.33425   0.57700   0.00000  Uiso   1.00
H259   H     0.75204   0.36770   0.26697   0.00000  Uiso   1.00
H260   H     0.23540   0.06179   0.19297   0.00000  Uiso   1.00
H261   H     0.90309   0.10416   0.45865   0.00000  Uiso   1.00
H262   H     0.96762   0.13749   0.57170   0.00000  Uiso   1.00
H263   H     0.74893   0.15336   0.42468   0.00000  Uiso   1.00
H264   H     0.97815   0.00829   0.38959   0.00000  Uiso   1.00
H265   H     0.06203   0.19549   0.68124   0.00000  Uiso   1.00
H266   H     0.60091   0.22895   0.37121   0.00000  Uiso   1.00
H267   H     0.08428   0.92303   0.29721   0.00000  Uiso   1.00
O268   O     0.18321   0.28974   0.70129   0.00000  Uiso   1.00
O269   O     0.57824   0.33362   0.29454   0.00000  Uiso   1.00
O270   O     0.21240   0.93227   0.19746   0.00000  Uiso   1.00
N271   N     0.16875   0.29701   0.58602   0.00000  Uiso   1.00
N272   N     0.73763   0.32829   0.29617   0.00000  Uiso   1.00
N273   N     0.18952   0.04229   0.22697   0.00000  Uiso   1.00
N274   N     0.08743   0.22235   0.64211   0.00000  Uiso   1.00
N275   N     0.65631   0.25363   0.35226   0.00000  Uiso   1.00
N276   N     0.10820   0.96763   0.28306   0.00000  Uiso   1.00
C277   C     0.46083   0.72909   0.13520   0.00000  Uiso   1.00
C278   C     0.44498   0.72956   0.06053   0.00000  Uiso   1.00
C279   C     0.38637   0.77154   0.02899   0.00000  Uiso   1.00
C280   C     0.38153   0.76415   0.96026   0.00000  Uiso   1.00
C281   C     0.34905   0.77214   0.84976   0.00000  Uiso   1.00
C282   C     0.56381   0.73819   0.14040   0.00000  Uiso   1.00
C283   C     0.60509   0.78742   0.17603   0.00000  Uiso   1.00
C284   C     0.70028   0.78728   0.17455   0.00000  Uiso   1.00
C285   C     0.85227   0.80865   0.18810   0.00000  Uiso   1.00
C286   C     0.43926   0.65937   0.15946   0.00000  Uiso   1.00
C287   C     0.37584   0.64233   0.21113   0.00000  Uiso   1.00
C288   C     0.36617   0.57582   0.22571   0.00000  Uiso   1.00
C289   C     0.32478   0.47481   0.26886   0.00000  Uiso   1.00
C290   C     0.55647   0.64129   0.06924   0.00000  Uiso   1.00
C291   C     0.49693   0.68187   0.02470   0.00000  Uiso   1.00
C292   C     0.49217   0.67440   0.95601   0.00000  Uiso   1.00
C293   C     0.43356   0.71637   0.92437   0.00000  Uiso   1.00
C294   C     0.61575   0.69050   0.10458   0.00000  Uiso   1.00
C295   C     0.71090   0.69028   0.10305   0.00000  Uiso   1.00
C296   C     0.75232   0.73951   0.13866   0.00000  Uiso   1.00
C297   C     0.49120   0.61167   0.12364   0.00000  Uiso   1.00
C298   C     0.48164   0.54518   0.13815   0.00000  Uiso   1.00
C299   C     0.41821   0.52805   0.18982   0.00000  Uiso   1.00
H300   H     0.42040   0.76622   0.16309   0.00000  Uiso   1.00
H301   H     0.34619   0.80845   0.05673   0.00000  Uiso   1.00
H302   H     0.56488   0.82432   0.20375   0.00000  Uiso   1.00
H303   H     0.33565   0.67925   0.23884   0.00000  Uiso   1.00
H304   H     0.28684   0.83425   0.92300   0.00000  Uiso   1.00
H305   H     0.74796   0.86770   0.23303   0.00000  Uiso   1.00
H306   H     0.26460   0.56179   0.30703   0.00000  Uiso   1.00
H307   H     0.59691   0.60416   0.04135   0.00000  Uiso   1.00
H308   H     0.53238   0.63749   0.92830   0.00000  Uiso   1.00
H309   H     0.75107   0.65336   0.07532   0.00000  Uiso   1.00
H310   H     0.52185   0.50829   0.11041   0.00000  Uiso   1.00
H311   H     0.43797   0.69549   0.81876   0.00000  Uiso   1.00
H312   H     0.89909   0.72895   0.12879   0.00000  Uiso   1.00
H313   H     0.41572   0.42303   0.20279   0.00000  Uiso   1.00
O314   O     0.31679   0.78974   0.79871   0.00000  Uiso   1.00
O315   O     0.92176   0.83362   0.20546   0.00000  Uiso   1.00
O316   O     0.28760   0.43227   0.30254   0.00000  Uiso   1.00
N317   N     0.33125   0.79701   0.91398   0.00000  Uiso   1.00
N318   N     0.76237   0.82829   0.20383   0.00000  Uiso   1.00
N319   N     0.31048   0.54229   0.27303   0.00000  Uiso   1.00
N320   N     0.41257   0.72235   0.85789   0.00000  Uiso   1.00
N321   N     0.84369   0.75363   0.14774   0.00000  Uiso   1.00
N322   N     0.39180   0.46763   0.21694   0.00000  Uiso   1.00
C323   C     0.96083   0.22909   0.13520   0.00000  Uiso   1.00
C324   C     0.94498   0.22956   0.06053   0.00000  Uiso   1.00
C325   C     0.88637   0.27154   0.02899   0.00000  Uiso   1.00
C326   C     0.88153   0.26415   0.96026   0.00000  Uiso   1.00
C327   C     0.84905   0.27214   0.84976   0.00000  Uiso   1.00
C328   C     0.06381   0.23819   0.14040   0.00000  Uiso   1.00
C329   C     0.10509   0.28742   0.17603   0.00000  Uiso   1.00
C330   C     0.20028   0.28728   0.17455   0.00000  Uiso   1.00
C331   C     0.35227   0.30865   0.18810   0.00000  Uiso   1.00
C332   C     0.93926   0.15937   0.15946   0.00000  Uiso   1.00
C333   C     0.87584   0.14233   0.21113   0.00000  Uiso   1.00
C334   C     0.86617   0.07582   0.22571   0.00000  Uiso   1.00
C335   C     0.82478   0.97481   0.26886   0.00000  Uiso   1.00
C336   C     0.05647   0.14129   0.06924   0.00000  Uiso   1.00
C337   C     0.99693   0.18187   0.02470   0.00000  Uiso   1.00
C338   C     0.99217   0.17440   0.95601   0.00000  Uiso   1.00
C339   C     0.93356   0.21637   0.92437   0.00000  Uiso   1.00
C340   C     0.11575   0.19050   0.10458   0.00000  Uiso   1.00
C341   C     0.21090   0.19028   0.10305   0.00000  Uiso   1.00
C342   C     0.25232   0.23951   0.13866   0.00000  Uiso   1.00
C343   C     0.99120   0.11167   0.12364   0.00000  Uiso   1.00
C344   C     0.98164   0.04518   0.13815   0.00000  Uiso   1.00
C345   C     0.91821   0.02805   0.18982   0.00000  Uiso   1.00
H346   H     0.92040   0.26622   0.16309   0.00000  Uiso   1.00
H347   H     0.84619   0.30845   0.05673   0.00000  Uiso   1.00
H348   H     0.06488   0.32432   0.20375   0.00000  Uiso   1.00
H349   H     0.83565   0.17925   0.23884   0.00000  Uiso   1.00
H350   H     0.78684   0.33425   0.92300   0.00000  Uiso   1.00
H351   H     0.24796   0.36770   0.23303   0.00000  Uiso   1.00
H352   H     0.76460   0.06179   0.30703   0.00000  Uiso   1.00
H353   H     0.09691   0.10416   0.04135   0.00000  Uiso   1.00
H354   H     0.03238   0.13749   0.92830   0.00000  Uiso   1.00
H355   H     0.25107   0.15336   0.07532   0.00000  Uiso   1.00
H356   H     0.02185   0.00829   0.11041   0.00000  Uiso   1.00
H357   H     0.93797   0.19549   0.81876   0.00000  Uiso   1.00
H358   H     0.39909   0.22895   0.12879   0.00000  Uiso   1.00
H359   H     0.91572   0.92303   0.20279   0.00000  Uiso   1.00
O360   O     0.81679   0.28974   0.79871   0.00000  Uiso   1.00
O361   O     0.42176   0.33362   0.20546   0.00000  Uiso   1.00
O362   O     0.78760   0.93227   0.30254   0.00000  Uiso   1.00
N363   N     0.83125   0.29701   0.91398   0.00000  Uiso   1.00
N364   N     0.26237   0.32829   0.20383   0.00000  Uiso   1.00
N365   N     0.81048   0.04229   0.27303   0.00000  Uiso   1.00
N366   N     0.91257   0.22235   0.85789   0.00000  Uiso   1.00
N367   N     0.34369   0.25363   0.14774   0.00000  Uiso   1.00
N368   N     0.89180   0.96763   0.21694   0.00000  Uiso   1.00
