data_job_04970
_audit_creation_date              2018-12-19
_audit_creation_method            'Materials Studio'
_symmetry_space_group_name_H-M    'P1'
_symmetry_Int_Tables_number       1
_symmetry_cell_setting            triclinic
loop_
_symmetry_equiv_pos_as_xyz
  x,y,z
_cell_length_a                    43.8329
_cell_length_b                    13.8995
_cell_length_c                    10.0404
_cell_angle_alpha                 90.0000
_cell_angle_beta                  98.5671
_cell_angle_gamma                 90.0000
loop_
_atom_site_label
_atom_site_type_symbol
_atom_site_fract_x
_atom_site_fract_y
_atom_site_fract_z
_atom_site_U_iso_or_equiv
_atom_site_adp_type
_atom_site_occupancy
C1     C     0.63754   0.05895   0.77063   0.00000  Uiso   1.00
C2     C     0.66641   0.02886   0.86558   0.00000  Uiso   1.00
C3     C     0.68183   0.94193   0.86185   0.00000  Uiso   1.00
C4     C     0.70778   0.92814   0.95747   0.00000  Uiso   1.00
C5     C     0.75105   0.87064   0.09038   0.00000  Uiso   1.00
C6     C     0.61344   0.08366   0.86020   0.00000  Uiso   1.00
C7     C     0.58433   0.04280   0.85191   0.00000  Uiso   1.00
C8     C     0.56570   0.07516   0.94299   0.00000  Uiso   1.00
C9     C     0.52673   0.10279   0.06745   0.00000  Uiso   1.00
C10    C     0.64557   0.15349   0.70705   0.00000  Uiso   1.00
C11    C     0.64347   0.17137   0.56999   0.00000  Uiso   1.00
C12    C     0.65188   0.26253   0.53213   0.00000  Uiso   1.00
C13    C     0.66280   0.39860   0.41882   0.00000  Uiso   1.00
C14    C     0.65622   0.18906   0.94709   0.00000  Uiso   1.00
C15    C     0.67655   0.09953   0.96144   0.00000  Uiso   1.00
C16    C     0.70249   0.08587   0.05709   0.00000  Uiso   1.00
C17    C     0.71795   0.99893   0.05349   0.00000  Uiso   1.00
C18    C     0.62359   0.15432   0.95604   0.00000  Uiso   1.00
C19    C     0.60499   0.18675   0.04715   0.00000  Uiso   1.00
C20    C     0.57586   0.14595   0.03901   0.00000  Uiso   1.00
C21    C     0.65572   0.22416   0.80290   0.00000  Uiso   1.00
C22    C     0.66413   0.31532   0.76524   0.00000  Uiso   1.00
C23    C     0.66204   0.33333   0.62816   0.00000  Uiso   1.00
H24    H     0.62964   0.00393   0.69601   0.00000  Uiso   1.00
H25    H     0.67397   0.88725   0.78766   0.00000  Uiso   1.00
H26    H     0.57648   0.98813   0.77772   0.00000  Uiso   1.00
H27    H     0.63561   0.11667   0.49585   0.00000  Uiso   1.00
H28    H     0.72758   0.78904   0.93158   0.00000  Uiso   1.00
H29    H     0.52203   0.00176   0.91057   0.00000  Uiso   1.00
H30    H     0.64671   0.27282   0.31620   0.00000  Uiso   1.00
H31    H     0.66412   0.24408   0.02172   0.00000  Uiso   1.00
H32    H     0.71034   0.14057   0.13125   0.00000  Uiso   1.00
H33    H     0.61285   0.24144   0.12130   0.00000  Uiso   1.00
H34    H     0.67198   0.36998   0.83944   0.00000  Uiso   1.00
H35    H     0.75710   0.99464   0.21045   0.00000  Uiso   1.00
H36    H     0.55154   0.20736   0.18944   0.00000  Uiso   1.00
H37    H     0.67623   0.47842   0.59507   0.00000  Uiso   1.00
O38    O     0.77211   0.81940   0.13722   0.00000  Uiso   1.00
O39    O     0.50244   0.09849   0.10964   0.00000  Uiso   1.00
O40    O     0.66602   0.45412   0.32984   0.00000  Uiso   1.00
N41    N     0.72819   0.85164   0.98216   0.00000  Uiso   1.00
N42    N     0.53601   0.05051   0.96254   0.00000  Uiso   1.00
N43    N     0.65257   0.30394   0.40685   0.00000  Uiso   1.00
N44    N     0.74407   0.96227   0.13222   0.00000  Uiso   1.00
N45    N     0.55189   0.16114   0.11260   0.00000  Uiso   1.00
N46    N     0.66845   0.41457   0.55691   0.00000  Uiso   1.00
C47    C     0.13754   0.55895   0.77063   0.00000  Uiso   1.00
C48    C     0.16641   0.52886   0.86558   0.00000  Uiso   1.00
C49    C     0.18183   0.44193   0.86185   0.00000  Uiso   1.00
C50    C     0.20778   0.42814   0.95747   0.00000  Uiso   1.00
C51    C     0.25105   0.37064   0.09038   0.00000  Uiso   1.00
C52    C     0.11344   0.58366   0.86020   0.00000  Uiso   1.00
C53    C     0.08433   0.54280   0.85191   0.00000  Uiso   1.00
C54    C     0.06570   0.57516   0.94299   0.00000  Uiso   1.00
C55    C     0.02673   0.60279   0.06745   0.00000  Uiso   1.00
C56    C     0.14557   0.65349   0.70705   0.00000  Uiso   1.00
C57    C     0.14347   0.67137   0.56999   0.00000  Uiso   1.00
C58    C     0.15188   0.76253   0.53213   0.00000  Uiso   1.00
C59    C     0.16280   0.89860   0.41882   0.00000  Uiso   1.00
C60    C     0.15622   0.68906   0.94709   0.00000  Uiso   1.00
C61    C     0.17655   0.59953   0.96144   0.00000  Uiso   1.00
C62    C     0.20249   0.58587   0.05709   0.00000  Uiso   1.00
C63    C     0.21795   0.49893   0.05349   0.00000  Uiso   1.00
C64    C     0.12359   0.65432   0.95604   0.00000  Uiso   1.00
C65    C     0.10499   0.68675   0.04715   0.00000  Uiso   1.00
C66    C     0.07586   0.64595   0.03901   0.00000  Uiso   1.00
C67    C     0.15572   0.72416   0.80290   0.00000  Uiso   1.00
C68    C     0.16413   0.81532   0.76524   0.00000  Uiso   1.00
C69    C     0.16204   0.83333   0.62816   0.00000  Uiso   1.00
H70    H     0.12964   0.50393   0.69601   0.00000  Uiso   1.00
H71    H     0.17397   0.38725   0.78766   0.00000  Uiso   1.00
H72    H     0.07648   0.48813   0.77772   0.00000  Uiso   1.00
H73    H     0.13561   0.61667   0.49585   0.00000  Uiso   1.00
H74    H     0.22758   0.28904   0.93158   0.00000  Uiso   1.00
H75    H     0.02203   0.50176   0.91057   0.00000  Uiso   1.00
H76    H     0.14671   0.77282   0.31620   0.00000  Uiso   1.00
H77    H     0.16412   0.74408   0.02172   0.00000  Uiso   1.00
H78    H     0.21034   0.64057   0.13125   0.00000  Uiso   1.00
H79    H     0.11285   0.74144   0.12130   0.00000  Uiso   1.00
H80    H     0.17198   0.86998   0.83944   0.00000  Uiso   1.00
H81    H     0.25710   0.49464   0.21045   0.00000  Uiso   1.00
H82    H     0.05154   0.70736   0.18944   0.00000  Uiso   1.00
H83    H     0.17623   0.97842   0.59507   0.00000  Uiso   1.00
O84    O     0.27211   0.31940   0.13722   0.00000  Uiso   1.00
O85    O     0.00244   0.59849   0.10964   0.00000  Uiso   1.00
O86    O     0.16602   0.95412   0.32984   0.00000  Uiso   1.00
N87    N     0.22819   0.35164   0.98216   0.00000  Uiso   1.00
N88    N     0.03601   0.55051   0.96254   0.00000  Uiso   1.00
N89    N     0.15257   0.80394   0.40685   0.00000  Uiso   1.00
N90    N     0.24407   0.46227   0.13222   0.00000  Uiso   1.00
N91    N     0.05189   0.66114   0.11260   0.00000  Uiso   1.00
N92    N     0.16845   0.91457   0.55691   0.00000  Uiso   1.00
C93    C     0.36246   0.05895   0.72937   0.00000  Uiso   1.00
C94    C     0.33359   0.02886   0.63442   0.00000  Uiso   1.00
C95    C     0.31817   0.94193   0.63815   0.00000  Uiso   1.00
C96    C     0.29222   0.92814   0.54253   0.00000  Uiso   1.00
C97    C     0.24895   0.87064   0.40962   0.00000  Uiso   1.00
C98    C     0.38656   0.08366   0.63980   0.00000  Uiso   1.00
C99    C     0.41567   0.04280   0.64809   0.00000  Uiso   1.00
C100   C     0.43430   0.07516   0.55701   0.00000  Uiso   1.00
C101   C     0.47327   0.10279   0.43255   0.00000  Uiso   1.00
C102   C     0.35443   0.15349   0.79295   0.00000  Uiso   1.00
C103   C     0.35653   0.17137   0.93001   0.00000  Uiso   1.00
C104   C     0.34812   0.26253   0.96787   0.00000  Uiso   1.00
C105   C     0.33720   0.39860   0.08118   0.00000  Uiso   1.00
C106   C     0.34378   0.18906   0.55291   0.00000  Uiso   1.00
C107   C     0.32345   0.09953   0.53856   0.00000  Uiso   1.00
C108   C     0.29751   0.08587   0.44291   0.00000  Uiso   1.00
C109   C     0.28205   0.99893   0.44651   0.00000  Uiso   1.00
C110   C     0.37641   0.15432   0.54396   0.00000  Uiso   1.00
C111   C     0.39501   0.18675   0.45285   0.00000  Uiso   1.00
C112   C     0.42414   0.14595   0.46099   0.00000  Uiso   1.00
C113   C     0.34428   0.22416   0.69710   0.00000  Uiso   1.00
C114   C     0.33587   0.31532   0.73476   0.00000  Uiso   1.00
C115   C     0.33796   0.33333   0.87184   0.00000  Uiso   1.00
H116   H     0.37036   0.00393   0.80399   0.00000  Uiso   1.00
H117   H     0.32603   0.88725   0.71234   0.00000  Uiso   1.00
H118   H     0.42352   0.98813   0.72228   0.00000  Uiso   1.00
H119   H     0.36439   0.11667   0.00415   0.00000  Uiso   1.00
H120   H     0.27242   0.78904   0.56842   0.00000  Uiso   1.00
H121   H     0.47797   0.00176   0.58943   0.00000  Uiso   1.00
H122   H     0.35329   0.27282   0.18380   0.00000  Uiso   1.00
H123   H     0.33588   0.24408   0.47828   0.00000  Uiso   1.00
H124   H     0.28966   0.14057   0.36875   0.00000  Uiso   1.00
H125   H     0.38715   0.24144   0.37870   0.00000  Uiso   1.00
H126   H     0.32802   0.36998   0.66056   0.00000  Uiso   1.00
H127   H     0.24290   0.99464   0.28955   0.00000  Uiso   1.00
H128   H     0.44846   0.20736   0.31056   0.00000  Uiso   1.00
H129   H     0.32377   0.47842   0.90493   0.00000  Uiso   1.00
O130   O     0.22789   0.81940   0.36278   0.00000  Uiso   1.00
O131   O     0.49756   0.09849   0.39036   0.00000  Uiso   1.00
O132   O     0.33398   0.45412   0.17016   0.00000  Uiso   1.00
N133   N     0.27181   0.85164   0.51784   0.00000  Uiso   1.00
N134   N     0.46399   0.05051   0.53746   0.00000  Uiso   1.00
N135   N     0.34743   0.30394   0.09315   0.00000  Uiso   1.00
N136   N     0.25593   0.96227   0.36778   0.00000  Uiso   1.00
N137   N     0.44811   0.16114   0.38740   0.00000  Uiso   1.00
N138   N     0.33155   0.41457   0.94309   0.00000  Uiso   1.00
C139   C     0.86246   0.55895   0.72937   0.00000  Uiso   1.00
C140   C     0.83359   0.52886   0.63442   0.00000  Uiso   1.00
C141   C     0.81817   0.44193   0.63815   0.00000  Uiso   1.00
C142   C     0.79222   0.42814   0.54253   0.00000  Uiso   1.00
C143   C     0.74895   0.37064   0.40962   0.00000  Uiso   1.00
C144   C     0.88656   0.58366   0.63980   0.00000  Uiso   1.00
C145   C     0.91567   0.54280   0.64809   0.00000  Uiso   1.00
C146   C     0.93430   0.57516   0.55701   0.00000  Uiso   1.00
C147   C     0.97327   0.60279   0.43255   0.00000  Uiso   1.00
C148   C     0.85443   0.65349   0.79295   0.00000  Uiso   1.00
C149   C     0.85653   0.67137   0.93001   0.00000  Uiso   1.00
C150   C     0.84812   0.76253   0.96787   0.00000  Uiso   1.00
C151   C     0.83720   0.89860   0.08118   0.00000  Uiso   1.00
C152   C     0.84378   0.68906   0.55291   0.00000  Uiso   1.00
C153   C     0.82345   0.59953   0.53856   0.00000  Uiso   1.00
C154   C     0.79751   0.58587   0.44291   0.00000  Uiso   1.00
C155   C     0.78205   0.49893   0.44651   0.00000  Uiso   1.00
C156   C     0.87641   0.65432   0.54396   0.00000  Uiso   1.00
C157   C     0.89501   0.68675   0.45285   0.00000  Uiso   1.00
C158   C     0.92414   0.64595   0.46099   0.00000  Uiso   1.00
C159   C     0.84428   0.72416   0.69710   0.00000  Uiso   1.00
C160   C     0.83587   0.81532   0.73476   0.00000  Uiso   1.00
C161   C     0.83796   0.83333   0.87184   0.00000  Uiso   1.00
H162   H     0.87036   0.50393   0.80399   0.00000  Uiso   1.00
H163   H     0.82603   0.38725   0.71234   0.00000  Uiso   1.00
H164   H     0.92352   0.48813   0.72228   0.00000  Uiso   1.00
H165   H     0.86439   0.61667   0.00415   0.00000  Uiso   1.00
H166   H     0.77242   0.28904   0.56842   0.00000  Uiso   1.00
H167   H     0.97797   0.50176   0.58943   0.00000  Uiso   1.00
H168   H     0.85329   0.77282   0.18380   0.00000  Uiso   1.00
H169   H     0.83588   0.74408   0.47828   0.00000  Uiso   1.00
H170   H     0.78966   0.64057   0.36875   0.00000  Uiso   1.00
H171   H     0.88715   0.74144   0.37870   0.00000  Uiso   1.00
H172   H     0.82802   0.86998   0.66056   0.00000  Uiso   1.00
H173   H     0.74290   0.49464   0.28955   0.00000  Uiso   1.00
H174   H     0.94846   0.70736   0.31056   0.00000  Uiso   1.00
H175   H     0.82377   0.97842   0.90493   0.00000  Uiso   1.00
O176   O     0.72789   0.31940   0.36278   0.00000  Uiso   1.00
O177   O     0.99756   0.59849   0.39036   0.00000  Uiso   1.00
O178   O     0.83398   0.95412   0.17016   0.00000  Uiso   1.00
N179   N     0.77181   0.35164   0.51784   0.00000  Uiso   1.00
N180   N     0.96399   0.55051   0.53746   0.00000  Uiso   1.00
N181   N     0.84743   0.80394   0.09315   0.00000  Uiso   1.00
N182   N     0.75593   0.46227   0.36778   0.00000  Uiso   1.00
N183   N     0.94811   0.66114   0.38740   0.00000  Uiso   1.00
N184   N     0.83155   0.91457   0.94309   0.00000  Uiso   1.00
C185   C     0.36246   0.94105   0.22937   0.00000  Uiso   1.00
C186   C     0.33359   0.97114   0.13442   0.00000  Uiso   1.00
C187   C     0.31817   0.05807   0.13815   0.00000  Uiso   1.00
C188   C     0.29222   0.07186   0.04253   0.00000  Uiso   1.00
C189   C     0.24895   0.12936   0.90962   0.00000  Uiso   1.00
C190   C     0.38656   0.91634   0.13980   0.00000  Uiso   1.00
C191   C     0.41567   0.95720   0.14809   0.00000  Uiso   1.00
C192   C     0.43430   0.92484   0.05701   0.00000  Uiso   1.00
C193   C     0.47327   0.89721   0.93255   0.00000  Uiso   1.00
C194   C     0.35443   0.84651   0.29295   0.00000  Uiso   1.00
C195   C     0.35653   0.82863   0.43001   0.00000  Uiso   1.00
C196   C     0.34812   0.73747   0.46787   0.00000  Uiso   1.00
C197   C     0.33720   0.60140   0.58118   0.00000  Uiso   1.00
C198   C     0.34378   0.81094   0.05291   0.00000  Uiso   1.00
C199   C     0.32345   0.90047   0.03856   0.00000  Uiso   1.00
C200   C     0.29751   0.91413   0.94291   0.00000  Uiso   1.00
C201   C     0.28205   0.00107   0.94651   0.00000  Uiso   1.00
C202   C     0.37641   0.84568   0.04396   0.00000  Uiso   1.00
C203   C     0.39501   0.81325   0.95285   0.00000  Uiso   1.00
C204   C     0.42414   0.85405   0.96099   0.00000  Uiso   1.00
C205   C     0.34428   0.77584   0.19710   0.00000  Uiso   1.00
C206   C     0.33587   0.68468   0.23476   0.00000  Uiso   1.00
C207   C     0.33796   0.66667   0.37184   0.00000  Uiso   1.00
H208   H     0.37036   0.99607   0.30399   0.00000  Uiso   1.00
H209   H     0.32603   0.11275   0.21234   0.00000  Uiso   1.00
H210   H     0.42352   0.01187   0.22228   0.00000  Uiso   1.00
H211   H     0.36439   0.88333   0.50415   0.00000  Uiso   1.00
H212   H     0.27242   0.21096   0.06842   0.00000  Uiso   1.00
H213   H     0.47797   0.99824   0.08943   0.00000  Uiso   1.00
H214   H     0.35329   0.72718   0.68380   0.00000  Uiso   1.00
H215   H     0.33588   0.75592   0.97828   0.00000  Uiso   1.00
H216   H     0.28966   0.85943   0.86875   0.00000  Uiso   1.00
H217   H     0.38715   0.75856   0.87870   0.00000  Uiso   1.00
H218   H     0.32802   0.63002   0.16056   0.00000  Uiso   1.00
H219   H     0.24290   0.00536   0.78955   0.00000  Uiso   1.00
H220   H     0.44846   0.79264   0.81056   0.00000  Uiso   1.00
H221   H     0.32377   0.52158   0.40493   0.00000  Uiso   1.00
O222   O     0.22789   0.18060   0.86278   0.00000  Uiso   1.00
O223   O     0.49756   0.90151   0.89036   0.00000  Uiso   1.00
O224   O     0.33398   0.54588   0.67016   0.00000  Uiso   1.00
N225   N     0.27181   0.14836   0.01784   0.00000  Uiso   1.00
N226   N     0.46399   0.94949   0.03746   0.00000  Uiso   1.00
N227   N     0.34743   0.69606   0.59315   0.00000  Uiso   1.00
N228   N     0.25593   0.03773   0.86778   0.00000  Uiso   1.00
N229   N     0.44811   0.83886   0.88740   0.00000  Uiso   1.00
N230   N     0.33155   0.58543   0.44309   0.00000  Uiso   1.00
C231   C     0.86246   0.44105   0.22937   0.00000  Uiso   1.00
C232   C     0.83359   0.47114   0.13442   0.00000  Uiso   1.00
C233   C     0.81817   0.55807   0.13815   0.00000  Uiso   1.00
C234   C     0.79222   0.57186   0.04253   0.00000  Uiso   1.00
C235   C     0.74895   0.62936   0.90962   0.00000  Uiso   1.00
C236   C     0.88656   0.41634   0.13980   0.00000  Uiso   1.00
C237   C     0.91567   0.45720   0.14809   0.00000  Uiso   1.00
C238   C     0.93430   0.42484   0.05701   0.00000  Uiso   1.00
C239   C     0.97327   0.39721   0.93255   0.00000  Uiso   1.00
C240   C     0.85443   0.34651   0.29295   0.00000  Uiso   1.00
C241   C     0.85653   0.32863   0.43001   0.00000  Uiso   1.00
C242   C     0.84812   0.23747   0.46787   0.00000  Uiso   1.00
C243   C     0.83720   0.10140   0.58118   0.00000  Uiso   1.00
C244   C     0.84378   0.31094   0.05291   0.00000  Uiso   1.00
C245   C     0.82345   0.40047   0.03856   0.00000  Uiso   1.00
C246   C     0.79751   0.41413   0.94291   0.00000  Uiso   1.00
C247   C     0.78205   0.50107   0.94651   0.00000  Uiso   1.00
C248   C     0.87641   0.34568   0.04396   0.00000  Uiso   1.00
C249   C     0.89501   0.31325   0.95285   0.00000  Uiso   1.00
C250   C     0.92414   0.35405   0.96099   0.00000  Uiso   1.00
C251   C     0.84428   0.27584   0.19710   0.00000  Uiso   1.00
C252   C     0.83587   0.18468   0.23476   0.00000  Uiso   1.00
C253   C     0.83796   0.16667   0.37184   0.00000  Uiso   1.00
H254   H     0.87036   0.49607   0.30399   0.00000  Uiso   1.00
H255   H     0.82603   0.61275   0.21234   0.00000  Uiso   1.00
H256   H     0.92352   0.51187   0.22228   0.00000  Uiso   1.00
H257   H     0.86439   0.38333   0.50415   0.00000  Uiso   1.00
H258   H     0.77242   0.71096   0.06842   0.00000  Uiso   1.00
H259   H     0.97797   0.49824   0.08943   0.00000  Uiso   1.00
H260   H     0.85329   0.22718   0.68380   0.00000  Uiso   1.00
H261   H     0.83588   0.25592   0.97828   0.00000  Uiso   1.00
H262   H     0.78966   0.35943   0.86875   0.00000  Uiso   1.00
H263   H     0.88715   0.25856   0.87870   0.00000  Uiso   1.00
H264   H     0.82802   0.13002   0.16056   0.00000  Uiso   1.00
H265   H     0.74290   0.50536   0.78955   0.00000  Uiso   1.00
H266   H     0.94846   0.29264   0.81056   0.00000  Uiso   1.00
H267   H     0.82377   0.02158   0.40493   0.00000  Uiso   1.00
O268   O     0.72789   0.68060   0.86278   0.00000  Uiso   1.00
O269   O     0.99756   0.40151   0.89036   0.00000  Uiso   1.00
O270   O     0.83398   0.04588   0.67016   0.00000  Uiso   1.00
N271   N     0.77181   0.64836   0.01784   0.00000  Uiso   1.00
N272   N     0.96399   0.44949   0.03746   0.00000  Uiso   1.00
N273   N     0.84743   0.19606   0.59315   0.00000  Uiso   1.00
N274   N     0.75593   0.53773   0.86778   0.00000  Uiso   1.00
N275   N     0.94811   0.33886   0.88740   0.00000  Uiso   1.00
N276   N     0.83155   0.08543   0.44309   0.00000  Uiso   1.00
C277   C     0.63754   0.94105   0.27063   0.00000  Uiso   1.00
C278   C     0.66641   0.97114   0.36558   0.00000  Uiso   1.00
C279   C     0.68183   0.05807   0.36185   0.00000  Uiso   1.00
C280   C     0.70778   0.07186   0.45747   0.00000  Uiso   1.00
C281   C     0.75105   0.12936   0.59038   0.00000  Uiso   1.00
C282   C     0.61344   0.91634   0.36020   0.00000  Uiso   1.00
C283   C     0.58433   0.95720   0.35191   0.00000  Uiso   1.00
C284   C     0.56570   0.92484   0.44299   0.00000  Uiso   1.00
C285   C     0.52673   0.89721   0.56745   0.00000  Uiso   1.00
C286   C     0.64557   0.84651   0.20705   0.00000  Uiso   1.00
C287   C     0.64347   0.82863   0.06999   0.00000  Uiso   1.00
C288   C     0.65188   0.73747   0.03213   0.00000  Uiso   1.00
C289   C     0.66280   0.60140   0.91882   0.00000  Uiso   1.00
C290   C     0.65622   0.81094   0.44709   0.00000  Uiso   1.00
C291   C     0.67655   0.90047   0.46144   0.00000  Uiso   1.00
C292   C     0.70249   0.91413   0.55709   0.00000  Uiso   1.00
C293   C     0.71795   0.00107   0.55349   0.00000  Uiso   1.00
C294   C     0.62359   0.84568   0.45604   0.00000  Uiso   1.00
C295   C     0.60499   0.81325   0.54715   0.00000  Uiso   1.00
C296   C     0.57586   0.85405   0.53901   0.00000  Uiso   1.00
C297   C     0.65572   0.77584   0.30290   0.00000  Uiso   1.00
C298   C     0.66413   0.68468   0.26524   0.00000  Uiso   1.00
C299   C     0.66204   0.66667   0.12816   0.00000  Uiso   1.00
H300   H     0.62964   0.99607   0.19601   0.00000  Uiso   1.00
H301   H     0.67397   0.11275   0.28766   0.00000  Uiso   1.00
H302   H     0.57648   0.01188   0.27772   0.00000  Uiso   1.00
H303   H     0.63561   0.88333   0.99585   0.00000  Uiso   1.00
H304   H     0.72758   0.21096   0.43158   0.00000  Uiso   1.00
H305   H     0.52203   0.99824   0.41057   0.00000  Uiso   1.00
H306   H     0.64671   0.72718   0.81620   0.00000  Uiso   1.00
H307   H     0.66412   0.75592   0.52172   0.00000  Uiso   1.00
H308   H     0.71034   0.85943   0.63125   0.00000  Uiso   1.00
H309   H     0.61285   0.75856   0.62130   0.00000  Uiso   1.00
H310   H     0.67198   0.63002   0.33944   0.00000  Uiso   1.00
H311   H     0.75710   0.00536   0.71045   0.00000  Uiso   1.00
H312   H     0.55154   0.79264   0.68944   0.00000  Uiso   1.00
H313   H     0.67623   0.52158   0.09507   0.00000  Uiso   1.00
O314   O     0.77211   0.18060   0.63722   0.00000  Uiso   1.00
O315   O     0.50244   0.90151   0.60964   0.00000  Uiso   1.00
O316   O     0.66602   0.54588   0.82984   0.00000  Uiso   1.00
N317   N     0.72819   0.14836   0.48216   0.00000  Uiso   1.00
N318   N     0.53601   0.94949   0.46254   0.00000  Uiso   1.00
N319   N     0.65257   0.69606   0.90685   0.00000  Uiso   1.00
N320   N     0.74407   0.03773   0.63222   0.00000  Uiso   1.00
N321   N     0.55189   0.83886   0.61260   0.00000  Uiso   1.00
N322   N     0.66845   0.58543   0.05691   0.00000  Uiso   1.00
C323   C     0.13754   0.44105   0.27063   0.00000  Uiso   1.00
C324   C     0.16641   0.47114   0.36558   0.00000  Uiso   1.00
C325   C     0.18183   0.55807   0.36185   0.00000  Uiso   1.00
C326   C     0.20778   0.57186   0.45747   0.00000  Uiso   1.00
C327   C     0.25105   0.62936   0.59038   0.00000  Uiso   1.00
C328   C     0.11344   0.41634   0.36020   0.00000  Uiso   1.00
C329   C     0.08433   0.45720   0.35191   0.00000  Uiso   1.00
C330   C     0.06570   0.42484   0.44299   0.00000  Uiso   1.00
C331   C     0.02673   0.39721   0.56745   0.00000  Uiso   1.00
C332   C     0.14557   0.34651   0.20705   0.00000  Uiso   1.00
C333   C     0.14347   0.32863   0.06999   0.00000  Uiso   1.00
C334   C     0.15188   0.23747   0.03213   0.00000  Uiso   1.00
C335   C     0.16280   0.10140   0.91882   0.00000  Uiso   1.00
C336   C     0.15622   0.31094   0.44709   0.00000  Uiso   1.00
C337   C     0.17655   0.40047   0.46144   0.00000  Uiso   1.00
C338   C     0.20249   0.41413   0.55709   0.00000  Uiso   1.00
C339   C     0.21795   0.50107   0.55349   0.00000  Uiso   1.00
C340   C     0.12359   0.34568   0.45604   0.00000  Uiso   1.00
C341   C     0.10499   0.31325   0.54715   0.00000  Uiso   1.00
C342   C     0.07586   0.35405   0.53901   0.00000  Uiso   1.00
C343   C     0.15572   0.27584   0.30290   0.00000  Uiso   1.00
C344   C     0.16413   0.18468   0.26524   0.00000  Uiso   1.00
C345   C     0.16204   0.16667   0.12816   0.00000  Uiso   1.00
H346   H     0.12964   0.49607   0.19601   0.00000  Uiso   1.00
H347   H     0.17397   0.61275   0.28766   0.00000  Uiso   1.00
H348   H     0.07648   0.51187   0.27772   0.00000  Uiso   1.00
H349   H     0.13561   0.38333   0.99585   0.00000  Uiso   1.00
H350   H     0.22758   0.71096   0.43158   0.00000  Uiso   1.00
H351   H     0.02203   0.49824   0.41057   0.00000  Uiso   1.00
H352   H     0.14671   0.22718   0.81620   0.00000  Uiso   1.00
H353   H     0.16412   0.25592   0.52172   0.00000  Uiso   1.00
H354   H     0.21034   0.35943   0.63125   0.00000  Uiso   1.00
H355   H     0.11285   0.25856   0.62130   0.00000  Uiso   1.00
H356   H     0.17198   0.13002   0.33944   0.00000  Uiso   1.00
H357   H     0.25710   0.50536   0.71045   0.00000  Uiso   1.00
H358   H     0.05154   0.29264   0.68944   0.00000  Uiso   1.00
H359   H     0.17623   0.02158   0.09507   0.00000  Uiso   1.00
O360   O     0.27211   0.68060   0.63722   0.00000  Uiso   1.00
O361   O     0.00244   0.40151   0.60964   0.00000  Uiso   1.00
O362   O     0.16602   0.04588   0.82984   0.00000  Uiso   1.00
N363   N     0.22819   0.64836   0.48216   0.00000  Uiso   1.00
N364   N     0.03601   0.44949   0.46254   0.00000  Uiso   1.00
N365   N     0.15257   0.19606   0.90685   0.00000  Uiso   1.00
N366   N     0.24407   0.53773   0.63222   0.00000  Uiso   1.00
N367   N     0.05189   0.33886   0.61260   0.00000  Uiso   1.00
N368   N     0.16845   0.08543   0.05691   0.00000  Uiso   1.00
