data_job_00700
_audit_creation_date              2018-12-19
_audit_creation_method            'Materials Studio'
_symmetry_space_group_name_H-M    'P1'
_symmetry_Int_Tables_number       1
_symmetry_cell_setting            triclinic
loop_
_symmetry_equiv_pos_as_xyz
  x,y,z
_cell_length_a                    13.9855
_cell_length_b                    12.6065
_cell_length_c                    14.3754
_cell_angle_alpha                 90.0000
_cell_angle_beta                  110.5390
_cell_angle_gamma                 90.0000
loop_
_atom_site_label
_atom_site_type_symbol
_atom_site_fract_x
_atom_site_fract_y
_atom_site_fract_z
_atom_site_U_iso_or_equiv
_atom_site_adp_type
_atom_site_occupancy
C1     C     0.35151   0.84816   0.27496   0.00000  Uiso   1.00
C2     C     0.26071   0.81542   0.18408   0.00000  Uiso   1.00
C3     C     0.21616   0.71557   0.16705   0.00000  Uiso   1.00
C4     C     0.13378   0.70156   0.07940   0.00000  Uiso   1.00
C5     C     0.99837   0.63810   0.94862   0.00000  Uiso   1.00
C6     C     0.43201   0.89034   0.23531   0.00000  Uiso   1.00
C7     C     0.53148   0.85347   0.26136   0.00000  Uiso   1.00
C8     C     0.59330   0.90254   0.21684   0.00000  Uiso   1.00
C9     C     0.72385   0.95543   0.16565   0.00000  Uiso   1.00
C10    C     0.31583   0.94337   0.31957   0.00000  Uiso   1.00
C11    C     0.31765   0.95110   0.41648   0.00000  Uiso   1.00
C12    C     0.28168   0.04483   0.44292   0.00000  Uiso   1.00
C13    C     0.23185   0.18006   0.52256   0.00000  Uiso   1.00
C14    C     0.28442   0.00087   0.14960   0.00000  Uiso   1.00
C15    C     0.22428   0.89837   0.11599   0.00000  Uiso   1.00
C16    C     0.14193   0.88452   0.02834   0.00000  Uiso   1.00
C17    C     0.09726   0.78465   0.01118   0.00000  Uiso   1.00
C18    C     0.39557   0.97328   0.16722   0.00000  Uiso   1.00
C19    C     0.45725   0.02242   0.12266   0.00000  Uiso   1.00
C20    C     0.55679   0.98563   0.14863   0.00000  Uiso   1.00
C21    C     0.27939   0.02631   0.25148   0.00000  Uiso   1.00
C22    C     0.24342   0.12005   0.27778   0.00000  Uiso   1.00
C23    C     0.24517   0.12792   0.37470   0.00000  Uiso   1.00
H24    H     0.37989   0.78359   0.32797   0.00000  Uiso   1.00
H25    H     0.24439   0.65139   0.21976   0.00000  Uiso   1.00
H26    H     0.55967   0.78929   0.31406   0.00000  Uiso   1.00
H27    H     0.34586   0.88690   0.46916   0.00000  Uiso   1.00
H28    H     0.07812   0.54140   0.06973   0.00000  Uiso   1.00
H29    H     0.74291   0.83218   0.26861   0.00000  Uiso   1.00
H30    H     0.29206   0.03802   0.59566   0.00000  Uiso   1.00
H31    H     0.25605   0.06545   0.09658   0.00000  Uiso   1.00
H32    H     0.11375   0.94872   0.97566   0.00000  Uiso   1.00
H33    H     0.42903   0.08661   0.06997   0.00000  Uiso   1.00
H34    H     0.21522   0.18422   0.22506   0.00000  Uiso   1.00
H35    H     0.97209   0.78272   0.87162   0.00000  Uiso   1.00
H36    H     0.63688   0.07350   0.07049   0.00000  Uiso   1.00
H37    H     0.18603   0.27933   0.39754   0.00000  Uiso   1.00
O38    O     0.93376   0.58017   0.89529   0.00000  Uiso   1.00
O39    O     0.80593   0.96168   0.15622   0.00000  Uiso   1.00
O40    O     0.21442   0.23173   0.58530   0.00000  Uiso   1.00
N41    N     0.07268   0.61422   0.03971   0.00000  Uiso   1.00
N42    N     0.69421   0.88607   0.22563   0.00000  Uiso   1.00
N43    N     0.27273   0.07852   0.53141   0.00000  Uiso   1.00
N44    N     0.01563   0.74407   0.93311   0.00000  Uiso   1.00
N45    N     0.63716   0.01592   0.11903   0.00000  Uiso   1.00
N46    N     0.21568   0.20837   0.42480   0.00000  Uiso   1.00
C47    C     0.64849   0.34816   0.22504   0.00000  Uiso   1.00
C48    C     0.73929   0.31542   0.31592   0.00000  Uiso   1.00
C49    C     0.78384   0.21557   0.33295   0.00000  Uiso   1.00
C50    C     0.86622   0.20156   0.42060   0.00000  Uiso   1.00
C51    C     0.00163   0.13810   0.55138   0.00000  Uiso   1.00
C52    C     0.56799   0.39034   0.26469   0.00000  Uiso   1.00
C53    C     0.46852   0.35347   0.23864   0.00000  Uiso   1.00
C54    C     0.40670   0.40254   0.28316   0.00000  Uiso   1.00
C55    C     0.27615   0.45543   0.33435   0.00000  Uiso   1.00
C56    C     0.68417   0.44337   0.18043   0.00000  Uiso   1.00
C57    C     0.68235   0.45110   0.08352   0.00000  Uiso   1.00
C58    C     0.71832   0.54483   0.05708   0.00000  Uiso   1.00
C59    C     0.76815   0.68006   0.97744   0.00000  Uiso   1.00
C60    C     0.71558   0.50087   0.35040   0.00000  Uiso   1.00
C61    C     0.77572   0.39837   0.38401   0.00000  Uiso   1.00
C62    C     0.85807   0.38452   0.47166   0.00000  Uiso   1.00
C63    C     0.90274   0.28465   0.48882   0.00000  Uiso   1.00
C64    C     0.60443   0.47328   0.33278   0.00000  Uiso   1.00
C65    C     0.54275   0.52242   0.37734   0.00000  Uiso   1.00
C66    C     0.44321   0.48563   0.35137   0.00000  Uiso   1.00
C67    C     0.72061   0.52631   0.24852   0.00000  Uiso   1.00
C68    C     0.75658   0.62005   0.22222   0.00000  Uiso   1.00
C69    C     0.75483   0.62792   0.12530   0.00000  Uiso   1.00
H70    H     0.62011   0.28359   0.17203   0.00000  Uiso   1.00
H71    H     0.75561   0.15139   0.28024   0.00000  Uiso   1.00
H72    H     0.44033   0.28929   0.18594   0.00000  Uiso   1.00
H73    H     0.65414   0.38690   0.03084   0.00000  Uiso   1.00
H74    H     0.92188   0.04140   0.43027   0.00000  Uiso   1.00
H75    H     0.25709   0.33218   0.23139   0.00000  Uiso   1.00
H76    H     0.70794   0.53802   0.90434   0.00000  Uiso   1.00
H77    H     0.74395   0.56545   0.40342   0.00000  Uiso   1.00
H78    H     0.88625   0.44872   0.52434   0.00000  Uiso   1.00
H79    H     0.57097   0.58661   0.43003   0.00000  Uiso   1.00
H80    H     0.78478   0.68422   0.27494   0.00000  Uiso   1.00
H81    H     0.02791   0.28272   0.62838   0.00000  Uiso   1.00
H82    H     0.36312   0.57350   0.42951   0.00000  Uiso   1.00
H83    H     0.81397   0.77933   0.10246   0.00000  Uiso   1.00
O84    O     0.06624   0.08017   0.60471   0.00000  Uiso   1.00
O85    O     0.19407   0.46168   0.34378   0.00000  Uiso   1.00
O86    O     0.78558   0.73173   0.91470   0.00000  Uiso   1.00
N87    N     0.92732   0.11422   0.46029   0.00000  Uiso   1.00
N88    N     0.30579   0.38607   0.27437   0.00000  Uiso   1.00
N89    N     0.72727   0.57852   0.96859   0.00000  Uiso   1.00
N90    N     0.98437   0.24407   0.56689   0.00000  Uiso   1.00
N91    N     0.36284   0.51592   0.38097   0.00000  Uiso   1.00
N92    N     0.78432   0.70837   0.07520   0.00000  Uiso   1.00
C93    C     0.64849   0.15184   0.72504   0.00000  Uiso   1.00
C94    C     0.73929   0.18458   0.81592   0.00000  Uiso   1.00
C95    C     0.78384   0.28443   0.83295   0.00000  Uiso   1.00
C96    C     0.86622   0.29844   0.92060   0.00000  Uiso   1.00
C97    C     0.00163   0.36190   0.05138   0.00000  Uiso   1.00
C98    C     0.56799   0.10966   0.76469   0.00000  Uiso   1.00
C99    C     0.46852   0.14653   0.73864   0.00000  Uiso   1.00
C100   C     0.40670   0.09746   0.78316   0.00000  Uiso   1.00
C101   C     0.27615   0.04457   0.83435   0.00000  Uiso   1.00
C102   C     0.68417   0.05663   0.68043   0.00000  Uiso   1.00
C103   C     0.68235   0.04890   0.58352   0.00000  Uiso   1.00
C104   C     0.71832   0.95517   0.55708   0.00000  Uiso   1.00
C105   C     0.76815   0.81994   0.47744   0.00000  Uiso   1.00
C106   C     0.71558   0.99913   0.85040   0.00000  Uiso   1.00
C107   C     0.77572   0.10163   0.88401   0.00000  Uiso   1.00
C108   C     0.85807   0.11548   0.97166   0.00000  Uiso   1.00
C109   C     0.90274   0.21535   0.98882   0.00000  Uiso   1.00
C110   C     0.60443   0.02672   0.83278   0.00000  Uiso   1.00
C111   C     0.54275   0.97758   0.87734   0.00000  Uiso   1.00
C112   C     0.44321   0.01437   0.85137   0.00000  Uiso   1.00
C113   C     0.72061   0.97369   0.74852   0.00000  Uiso   1.00
C114   C     0.75658   0.87995   0.72222   0.00000  Uiso   1.00
C115   C     0.75483   0.87208   0.62530   0.00000  Uiso   1.00
H116   H     0.62011   0.21641   0.67203   0.00000  Uiso   1.00
H117   H     0.75561   0.34861   0.78024   0.00000  Uiso   1.00
H118   H     0.44033   0.21071   0.68594   0.00000  Uiso   1.00
H119   H     0.65414   0.11310   0.53084   0.00000  Uiso   1.00
H120   H     0.92188   0.45860   0.93027   0.00000  Uiso   1.00
H121   H     0.25709   0.16782   0.73139   0.00000  Uiso   1.00
H122   H     0.70794   0.96198   0.40434   0.00000  Uiso   1.00
H123   H     0.74395   0.93455   0.90342   0.00000  Uiso   1.00
H124   H     0.88625   0.05128   0.02434   0.00000  Uiso   1.00
H125   H     0.57097   0.91339   0.93003   0.00000  Uiso   1.00
H126   H     0.78478   0.81578   0.77494   0.00000  Uiso   1.00
H127   H     0.02791   0.21728   0.12838   0.00000  Uiso   1.00
H128   H     0.36312   0.92650   0.92951   0.00000  Uiso   1.00
H129   H     0.81397   0.72067   0.60246   0.00000  Uiso   1.00
O130   O     0.06624   0.41983   0.10471   0.00000  Uiso   1.00
O131   O     0.19407   0.03832   0.84378   0.00000  Uiso   1.00
O132   O     0.78558   0.76827   0.41470   0.00000  Uiso   1.00
N133   N     0.92732   0.38578   0.96029   0.00000  Uiso   1.00
N134   N     0.30579   0.11393   0.77437   0.00000  Uiso   1.00
N135   N     0.72727   0.92148   0.46859   0.00000  Uiso   1.00
N136   N     0.98437   0.25593   0.06689   0.00000  Uiso   1.00
N137   N     0.36284   0.98408   0.88097   0.00000  Uiso   1.00
N138   N     0.78432   0.79163   0.57520   0.00000  Uiso   1.00
C139   C     0.35151   0.65184   0.77496   0.00000  Uiso   1.00
C140   C     0.26071   0.68458   0.68408   0.00000  Uiso   1.00
C141   C     0.21616   0.78443   0.66705   0.00000  Uiso   1.00
C142   C     0.13378   0.79844   0.57940   0.00000  Uiso   1.00
C143   C     0.99837   0.86190   0.44862   0.00000  Uiso   1.00
C144   C     0.43201   0.60966   0.73531   0.00000  Uiso   1.00
C145   C     0.53148   0.64653   0.76136   0.00000  Uiso   1.00
C146   C     0.59330   0.59746   0.71684   0.00000  Uiso   1.00
C147   C     0.72385   0.54457   0.66565   0.00000  Uiso   1.00
C148   C     0.31583   0.55663   0.81957   0.00000  Uiso   1.00
C149   C     0.31765   0.54890   0.91648   0.00000  Uiso   1.00
C150   C     0.28168   0.45517   0.94292   0.00000  Uiso   1.00
C151   C     0.23185   0.31994   0.02256   0.00000  Uiso   1.00
C152   C     0.28442   0.49913   0.64960   0.00000  Uiso   1.00
C153   C     0.22428   0.60163   0.61599   0.00000  Uiso   1.00
C154   C     0.14193   0.61548   0.52834   0.00000  Uiso   1.00
C155   C     0.09726   0.71535   0.51118   0.00000  Uiso   1.00
C156   C     0.39557   0.52672   0.66722   0.00000  Uiso   1.00
C157   C     0.45725   0.47758   0.62266   0.00000  Uiso   1.00
C158   C     0.55679   0.51437   0.64863   0.00000  Uiso   1.00
C159   C     0.27939   0.47369   0.75148   0.00000  Uiso   1.00
C160   C     0.24342   0.37995   0.77778   0.00000  Uiso   1.00
C161   C     0.24517   0.37208   0.87470   0.00000  Uiso   1.00
H162   H     0.37989   0.71641   0.82797   0.00000  Uiso   1.00
H163   H     0.24439   0.84861   0.71976   0.00000  Uiso   1.00
H164   H     0.55967   0.71071   0.81406   0.00000  Uiso   1.00
H165   H     0.34586   0.61310   0.96916   0.00000  Uiso   1.00
H166   H     0.07812   0.95860   0.56973   0.00000  Uiso   1.00
H167   H     0.74291   0.66782   0.76861   0.00000  Uiso   1.00
H168   H     0.29206   0.46198   0.09566   0.00000  Uiso   1.00
H169   H     0.25605   0.43455   0.59658   0.00000  Uiso   1.00
H170   H     0.11375   0.55128   0.47566   0.00000  Uiso   1.00
H171   H     0.42903   0.41339   0.56997   0.00000  Uiso   1.00
H172   H     0.21522   0.31578   0.72506   0.00000  Uiso   1.00
H173   H     0.97209   0.71728   0.37162   0.00000  Uiso   1.00
H174   H     0.63688   0.42650   0.57049   0.00000  Uiso   1.00
H175   H     0.18603   0.22067   0.89754   0.00000  Uiso   1.00
O176   O     0.93376   0.91983   0.39529   0.00000  Uiso   1.00
O177   O     0.80593   0.53832   0.65622   0.00000  Uiso   1.00
O178   O     0.21442   0.26827   0.08530   0.00000  Uiso   1.00
N179   N     0.07268   0.88578   0.53971   0.00000  Uiso   1.00
N180   N     0.69421   0.61393   0.72563   0.00000  Uiso   1.00
N181   N     0.27273   0.42148   0.03141   0.00000  Uiso   1.00
N182   N     0.01563   0.75593   0.43311   0.00000  Uiso   1.00
N183   N     0.63716   0.48408   0.61903   0.00000  Uiso   1.00
N184   N     0.21568   0.29163   0.92480   0.00000  Uiso   1.00
