data_job_05625
_audit_creation_date              2018-12-19
_audit_creation_method            'Materials Studio'
_symmetry_space_group_name_H-M    'P1'
_symmetry_Int_Tables_number       1
_symmetry_cell_setting            triclinic
loop_
_symmetry_equiv_pos_as_xyz
  x,y,z
_cell_length_a                    19.7874
_cell_length_b                    19.7874
_cell_length_c                    10.4578
_cell_angle_alpha                 90.0000
_cell_angle_beta                  90.0000
_cell_angle_gamma                 120.0000
loop_
_atom_site_label
_atom_site_type_symbol
_atom_site_fract_x
_atom_site_fract_y
_atom_site_fract_z
_atom_site_U_iso_or_equiv
_atom_site_adp_type
_atom_site_occupancy
C1     C     0.29011   0.36027   0.43532   0.00000  Uiso   1.00
C2     C     0.35165   0.42256   0.34850   0.00000  Uiso   1.00
C3     C     0.42341   0.43016   0.31815   0.00000  Uiso   1.00
C4     C     0.47148   0.49100   0.23709   0.00000  Uiso   1.00
C5     C     0.57054   0.57993   0.10978   0.00000  Uiso   1.00
C6     C     0.27410   0.40414   0.53991   0.00000  Uiso   1.00
C7     C     0.28063   0.39624   0.67049   0.00000  Uiso   1.00
C8     C     0.26340   0.44157   0.75055   0.00000  Uiso   1.00
C9     C     0.24200   0.50186   0.92040   0.00000  Uiso   1.00
C10    C     0.21564   0.31891   0.35588   0.00000  Uiso   1.00
C11    C     0.17301   0.23934   0.33175   0.00000  Uiso   1.00
C12    C     0.10656   0.21291   0.25690   0.00000  Uiso   1.00
C13    C     0.99440   0.14087   0.14102   0.00000  Uiso   1.00
C14    C     0.24787   0.45482   0.34533   0.00000  Uiso   1.00
C15    C     0.32871   0.47392   0.29963   0.00000  Uiso   1.00
C16    C     0.37668   0.53476   0.21859   0.00000  Uiso   1.00
C17    C     0.44850   0.54245   0.18812   0.00000  Uiso   1.00
C18    C     0.25116   0.45549   0.49104   0.00000  Uiso   1.00
C19    C     0.23390   0.50084   0.57092   0.00000  Uiso   1.00
C20    C     0.24041   0.49302   0.70159   0.00000  Uiso   1.00
C21    C     0.19270   0.37026   0.30700   0.00000  Uiso   1.00
C22    C     0.12629   0.34395   0.23218   0.00000  Uiso   1.00
C23    C     0.08357   0.26436   0.20794   0.00000  Uiso   1.00
H24    H     0.30797   0.32029   0.47338   0.00000  Uiso   1.00
H25    H     0.44115   0.39041   0.35601   0.00000  Uiso   1.00
H26    H     0.29838   0.35649   0.70828   0.00000  Uiso   1.00
H27    H     0.19078   0.19962   0.36960   0.00000  Uiso   1.00
H28    H     0.57869   0.49081   0.20436   0.00000  Uiso   1.00
H29    H     0.27763   0.41927   0.94716   0.00000  Uiso   1.00
H30    H     0.05075   0.08847   0.23297   0.00000  Uiso   1.00
H31    H     0.23001   0.49480   0.30728   0.00000  Uiso   1.00
H32    H     0.35891   0.57449   0.18078   0.00000  Uiso   1.00
H33    H     0.21615   0.54057   0.53306   0.00000  Uiso   1.00
H34    H     0.10855   0.38371   0.19438   0.00000  Uiso   1.00
H35    H     0.51195   0.64022   0.06215   0.00000  Uiso   1.00
H36    H     0.21089   0.56868   0.80495   0.00000  Uiso   1.00
H37    H     0.98401   0.23789   0.09076   0.00000  Uiso   1.00
O38    O     0.63153   0.61481   0.05308   0.00000  Uiso   1.00
O39    O     0.23654   0.52093   0.02759   0.00000  Uiso   1.00
O40    O     0.93888   0.08695   0.09059   0.00000  Uiso   1.00
N41    N     0.54529   0.51503   0.18823   0.00000  Uiso   1.00
N42    N     0.26383   0.44815   0.88270   0.00000  Uiso   1.00
N43    N     0.05170   0.13888   0.21502   0.00000  Uiso   1.00
N44    N     0.50937   0.59542   0.11170   0.00000  Uiso   1.00
N45    N     0.22791   0.52854   0.80617   0.00000  Uiso   1.00
N46    N     0.01578   0.21928   0.13850   0.00000  Uiso   1.00
C47    C     0.63973   0.92984   0.43532   0.00000  Uiso   1.00
C48    C     0.57744   0.92909   0.34850   0.00000  Uiso   1.00
C49    C     0.56984   0.99325   0.31815   0.00000  Uiso   1.00
C50    C     0.50900   0.98048   0.23709   0.00000  Uiso   1.00
C51    C     0.42007   0.99061   0.10978   0.00000  Uiso   1.00
C52    C     0.59586   0.86995   0.53991   0.00000  Uiso   1.00
C53    C     0.60376   0.88439   0.67049   0.00000  Uiso   1.00
C54    C     0.55843   0.82183   0.75055   0.00000  Uiso   1.00
C55    C     0.49814   0.74014   0.92040   0.00000  Uiso   1.00
C56    C     0.68109   0.89673   0.35588   0.00000  Uiso   1.00
C57    C     0.76066   0.93367   0.33175   0.00000  Uiso   1.00
C58    C     0.78709   0.89364   0.25690   0.00000  Uiso   1.00
C59    C     0.85913   0.85353   0.14102   0.00000  Uiso   1.00
C60    C     0.54518   0.79306   0.34533   0.00000  Uiso   1.00
C61    C     0.52608   0.85480   0.29963   0.00000  Uiso   1.00
C62    C     0.46524   0.84192   0.21859   0.00000  Uiso   1.00
C63    C     0.45755   0.90605   0.18812   0.00000  Uiso   1.00
C64    C     0.54451   0.79566   0.49104   0.00000  Uiso   1.00
C65    C     0.49916   0.73306   0.57092   0.00000  Uiso   1.00
C66    C     0.50698   0.74740   0.70159   0.00000  Uiso   1.00
C67    C     0.62974   0.82244   0.30700   0.00000  Uiso   1.00
C68    C     0.65605   0.78234   0.23218   0.00000  Uiso   1.00
C69    C     0.73564   0.81922   0.20794   0.00000  Uiso   1.00
H70    H     0.67971   0.98768   0.47338   0.00000  Uiso   1.00
H71    H     0.60959   0.05074   0.35601   0.00000  Uiso   1.00
H72    H     0.64351   0.94189   0.70828   0.00000  Uiso   1.00
H73    H     0.80038   0.99117   0.36960   0.00000  Uiso   1.00
H74    H     0.50919   0.08788   0.20436   0.00000  Uiso   1.00
H75    H     0.58073   0.85837   0.94716   0.00000  Uiso   1.00
H76    H     0.91153   0.96227   0.23297   0.00000  Uiso   1.00
H77    H     0.50520   0.73521   0.30728   0.00000  Uiso   1.00
H78    H     0.42551   0.78442   0.18078   0.00000  Uiso   1.00
H79    H     0.45943   0.67557   0.53306   0.00000  Uiso   1.00
H80    H     0.61629   0.72485   0.19438   0.00000  Uiso   1.00
H81    H     0.35978   0.87173   0.06215   0.00000  Uiso   1.00
H82    H     0.43132   0.64221   0.80495   0.00000  Uiso   1.00
H83    H     0.76211   0.74612   0.09076   0.00000  Uiso   1.00
O84    O     0.38519   0.01672   0.05308   0.00000  Uiso   1.00
O85    O     0.47907   0.71561   0.02759   0.00000  Uiso   1.00
O86    O     0.91305   0.85193   0.09059   0.00000  Uiso   1.00
N87    N     0.48497   0.03026   0.18823   0.00000  Uiso   1.00
N88    N     0.55185   0.81568   0.88270   0.00000  Uiso   1.00
N89    N     0.86112   0.91281   0.21502   0.00000  Uiso   1.00
N90    N     0.40458   0.91395   0.11170   0.00000  Uiso   1.00
N91    N     0.47146   0.69937   0.80617   0.00000  Uiso   1.00
N92    N     0.78072   0.79650   0.13850   0.00000  Uiso   1.00
C93    C     0.07016   0.70989   0.43532   0.00000  Uiso   1.00
C94    C     0.07091   0.64835   0.34850   0.00000  Uiso   1.00
C95    C     0.00675   0.57659   0.31815   0.00000  Uiso   1.00
C96    C     0.01952   0.52852   0.23709   0.00000  Uiso   1.00
C97    C     0.00939   0.42946   0.10978   0.00000  Uiso   1.00
C98    C     0.13005   0.72590   0.53991   0.00000  Uiso   1.00
C99    C     0.11561   0.71937   0.67049   0.00000  Uiso   1.00
C100   C     0.17817   0.73660   0.75055   0.00000  Uiso   1.00
C101   C     0.25986   0.75800   0.92040   0.00000  Uiso   1.00
C102   C     0.10327   0.78436   0.35588   0.00000  Uiso   1.00
C103   C     0.06633   0.82699   0.33175   0.00000  Uiso   1.00
C104   C     0.10636   0.89344   0.25690   0.00000  Uiso   1.00
C105   C     0.14647   0.00560   0.14102   0.00000  Uiso   1.00
C106   C     0.20694   0.75213   0.34533   0.00000  Uiso   1.00
C107   C     0.14520   0.67129   0.29963   0.00000  Uiso   1.00
C108   C     0.15808   0.62332   0.21859   0.00000  Uiso   1.00
C109   C     0.09395   0.55150   0.18812   0.00000  Uiso   1.00
C110   C     0.20434   0.74884   0.49104   0.00000  Uiso   1.00
C111   C     0.26694   0.76610   0.57092   0.00000  Uiso   1.00
C112   C     0.25260   0.75959   0.70159   0.00000  Uiso   1.00
C113   C     0.17756   0.80730   0.30700   0.00000  Uiso   1.00
C114   C     0.21766   0.87371   0.23218   0.00000  Uiso   1.00
C115   C     0.18078   0.91643   0.20794   0.00000  Uiso   1.00
H116   H     0.01232   0.69203   0.47338   0.00000  Uiso   1.00
H117   H     0.94926   0.55885   0.35601   0.00000  Uiso   1.00
H118   H     0.05811   0.70162   0.70828   0.00000  Uiso   1.00
H119   H     0.00883   0.80922   0.36960   0.00000  Uiso   1.00
H120   H     0.91212   0.42131   0.20436   0.00000  Uiso   1.00
H121   H     0.14163   0.72237   0.94716   0.00000  Uiso   1.00
H122   H     0.03773   0.94925   0.23297   0.00000  Uiso   1.00
H123   H     0.26479   0.76999   0.30728   0.00000  Uiso   1.00
H124   H     0.21558   0.64109   0.18078   0.00000  Uiso   1.00
H125   H     0.32443   0.78385   0.53306   0.00000  Uiso   1.00
H126   H     0.27515   0.89145   0.19438   0.00000  Uiso   1.00
H127   H     0.12827   0.48805   0.06215   0.00000  Uiso   1.00
H128   H     0.35779   0.78911   0.80495   0.00000  Uiso   1.00
H129   H     0.25388   0.01599   0.09076   0.00000  Uiso   1.00
O130   O     0.98328   0.36847   0.05308   0.00000  Uiso   1.00
O131   O     0.28439   0.76346   0.02759   0.00000  Uiso   1.00
O132   O     0.14807   0.06112   0.09059   0.00000  Uiso   1.00
N133   N     0.96974   0.45471   0.18823   0.00000  Uiso   1.00
N134   N     0.18432   0.73617   0.88270   0.00000  Uiso   1.00
N135   N     0.08719   0.94830   0.21502   0.00000  Uiso   1.00
N136   N     0.08605   0.49063   0.11170   0.00000  Uiso   1.00
N137   N     0.30063   0.77209   0.80617   0.00000  Uiso   1.00
N138   N     0.20350   0.98422   0.13850   0.00000  Uiso   1.00
C139   C     0.70989   0.63973   0.56468   0.00000  Uiso   1.00
C140   C     0.64835   0.57744   0.65150   0.00000  Uiso   1.00
C141   C     0.57659   0.56984   0.68185   0.00000  Uiso   1.00
C142   C     0.52852   0.50900   0.76291   0.00000  Uiso   1.00
C143   C     0.42946   0.42007   0.89022   0.00000  Uiso   1.00
C144   C     0.72590   0.59586   0.46009   0.00000  Uiso   1.00
C145   C     0.71937   0.60376   0.32951   0.00000  Uiso   1.00
C146   C     0.73660   0.55843   0.24945   0.00000  Uiso   1.00
C147   C     0.75800   0.49814   0.07960   0.00000  Uiso   1.00
C148   C     0.78436   0.68109   0.64412   0.00000  Uiso   1.00
C149   C     0.82699   0.76066   0.66825   0.00000  Uiso   1.00
C150   C     0.89344   0.78709   0.74310   0.00000  Uiso   1.00
C151   C     0.00560   0.85913   0.85898   0.00000  Uiso   1.00
C152   C     0.75213   0.54518   0.65467   0.00000  Uiso   1.00
C153   C     0.67129   0.52608   0.70037   0.00000  Uiso   1.00
C154   C     0.62332   0.46524   0.78141   0.00000  Uiso   1.00
C155   C     0.55150   0.45755   0.81188   0.00000  Uiso   1.00
C156   C     0.74884   0.54451   0.50896   0.00000  Uiso   1.00
C157   C     0.76610   0.49916   0.42908   0.00000  Uiso   1.00
C158   C     0.75959   0.50698   0.29841   0.00000  Uiso   1.00
C159   C     0.80730   0.62974   0.69300   0.00000  Uiso   1.00
C160   C     0.87371   0.65605   0.76782   0.00000  Uiso   1.00
C161   C     0.91643   0.73564   0.79206   0.00000  Uiso   1.00
H162   H     0.69203   0.67971   0.52662   0.00000  Uiso   1.00
H163   H     0.55885   0.60959   0.64399   0.00000  Uiso   1.00
H164   H     0.70162   0.64351   0.29172   0.00000  Uiso   1.00
H165   H     0.80922   0.80038   0.63040   0.00000  Uiso   1.00
H166   H     0.42131   0.50919   0.79564   0.00000  Uiso   1.00
H167   H     0.72237   0.58073   0.05284   0.00000  Uiso   1.00
H168   H     0.94925   0.91153   0.76703   0.00000  Uiso   1.00
H169   H     0.76999   0.50520   0.69272   0.00000  Uiso   1.00
H170   H     0.64109   0.42551   0.81922   0.00000  Uiso   1.00
H171   H     0.78385   0.45943   0.46694   0.00000  Uiso   1.00
H172   H     0.89145   0.61629   0.80562   0.00000  Uiso   1.00
H173   H     0.48805   0.35978   0.93785   0.00000  Uiso   1.00
H174   H     0.78911   0.43132   0.19505   0.00000  Uiso   1.00
H175   H     0.01599   0.76211   0.90924   0.00000  Uiso   1.00
O176   O     0.36847   0.38519   0.94692   0.00000  Uiso   1.00
O177   O     0.76346   0.47907   0.97241   0.00000  Uiso   1.00
O178   O     0.06112   0.91305   0.90941   0.00000  Uiso   1.00
N179   N     0.45471   0.48497   0.81177   0.00000  Uiso   1.00
N180   N     0.73617   0.55185   0.11730   0.00000  Uiso   1.00
N181   N     0.94830   0.86112   0.78498   0.00000  Uiso   1.00
N182   N     0.49063   0.40458   0.88830   0.00000  Uiso   1.00
N183   N     0.77209   0.47146   0.19383   0.00000  Uiso   1.00
N184   N     0.98422   0.78072   0.86150   0.00000  Uiso   1.00
C185   C     0.36027   0.07016   0.56468   0.00000  Uiso   1.00
C186   C     0.42256   0.07091   0.65150   0.00000  Uiso   1.00
C187   C     0.43016   0.00675   0.68185   0.00000  Uiso   1.00
C188   C     0.49100   0.01952   0.76291   0.00000  Uiso   1.00
C189   C     0.57993   0.00939   0.89022   0.00000  Uiso   1.00
C190   C     0.40414   0.13005   0.46009   0.00000  Uiso   1.00
C191   C     0.39624   0.11561   0.32951   0.00000  Uiso   1.00
C192   C     0.44157   0.17817   0.24945   0.00000  Uiso   1.00
C193   C     0.50186   0.25986   0.07960   0.00000  Uiso   1.00
C194   C     0.31891   0.10327   0.64412   0.00000  Uiso   1.00
C195   C     0.23934   0.06633   0.66825   0.00000  Uiso   1.00
C196   C     0.21291   0.10636   0.74310   0.00000  Uiso   1.00
C197   C     0.14087   0.14647   0.85898   0.00000  Uiso   1.00
C198   C     0.45482   0.20694   0.65467   0.00000  Uiso   1.00
C199   C     0.47392   0.14520   0.70037   0.00000  Uiso   1.00
C200   C     0.53476   0.15808   0.78141   0.00000  Uiso   1.00
C201   C     0.54245   0.09395   0.81188   0.00000  Uiso   1.00
C202   C     0.45549   0.20434   0.50896   0.00000  Uiso   1.00
C203   C     0.50084   0.26694   0.42908   0.00000  Uiso   1.00
C204   C     0.49302   0.25260   0.29841   0.00000  Uiso   1.00
C205   C     0.37026   0.17756   0.69300   0.00000  Uiso   1.00
C206   C     0.34395   0.21766   0.76782   0.00000  Uiso   1.00
C207   C     0.26436   0.18078   0.79206   0.00000  Uiso   1.00
H208   H     0.32029   0.01232   0.52662   0.00000  Uiso   1.00
H209   H     0.39041   0.94926   0.64399   0.00000  Uiso   1.00
H210   H     0.35649   0.05811   0.29172   0.00000  Uiso   1.00
H211   H     0.19962   0.00883   0.63040   0.00000  Uiso   1.00
H212   H     0.49081   0.91212   0.79564   0.00000  Uiso   1.00
H213   H     0.41927   0.14163   0.05284   0.00000  Uiso   1.00
H214   H     0.08847   0.03773   0.76703   0.00000  Uiso   1.00
H215   H     0.49480   0.26479   0.69272   0.00000  Uiso   1.00
H216   H     0.57449   0.21558   0.81922   0.00000  Uiso   1.00
H217   H     0.54057   0.32443   0.46694   0.00000  Uiso   1.00
H218   H     0.38371   0.27515   0.80562   0.00000  Uiso   1.00
H219   H     0.64022   0.12827   0.93785   0.00000  Uiso   1.00
H220   H     0.56868   0.35779   0.19505   0.00000  Uiso   1.00
H221   H     0.23789   0.25388   0.90924   0.00000  Uiso   1.00
O222   O     0.61481   0.98328   0.94692   0.00000  Uiso   1.00
O223   O     0.52093   0.28439   0.97241   0.00000  Uiso   1.00
O224   O     0.08695   0.14807   0.90941   0.00000  Uiso   1.00
N225   N     0.51503   0.96974   0.81177   0.00000  Uiso   1.00
N226   N     0.44815   0.18432   0.11730   0.00000  Uiso   1.00
N227   N     0.13888   0.08719   0.78498   0.00000  Uiso   1.00
N228   N     0.59542   0.08605   0.88830   0.00000  Uiso   1.00
N229   N     0.52854   0.30063   0.19383   0.00000  Uiso   1.00
N230   N     0.21928   0.20350   0.86150   0.00000  Uiso   1.00
C231   C     0.92984   0.29011   0.56468   0.00000  Uiso   1.00
C232   C     0.92909   0.35165   0.65150   0.00000  Uiso   1.00
C233   C     0.99325   0.42341   0.68185   0.00000  Uiso   1.00
C234   C     0.98048   0.47148   0.76291   0.00000  Uiso   1.00
C235   C     0.99061   0.57054   0.89022   0.00000  Uiso   1.00
C236   C     0.86995   0.27410   0.46009   0.00000  Uiso   1.00
C237   C     0.88439   0.28063   0.32951   0.00000  Uiso   1.00
C238   C     0.82183   0.26340   0.24945   0.00000  Uiso   1.00
C239   C     0.74014   0.24200   0.07960   0.00000  Uiso   1.00
C240   C     0.89673   0.21564   0.64412   0.00000  Uiso   1.00
C241   C     0.93367   0.17301   0.66825   0.00000  Uiso   1.00
C242   C     0.89364   0.10656   0.74310   0.00000  Uiso   1.00
C243   C     0.85353   0.99440   0.85898   0.00000  Uiso   1.00
C244   C     0.79306   0.24787   0.65467   0.00000  Uiso   1.00
C245   C     0.85480   0.32871   0.70037   0.00000  Uiso   1.00
C246   C     0.84192   0.37668   0.78141   0.00000  Uiso   1.00
C247   C     0.90605   0.44850   0.81188   0.00000  Uiso   1.00
C248   C     0.79566   0.25116   0.50896   0.00000  Uiso   1.00
C249   C     0.73306   0.23390   0.42908   0.00000  Uiso   1.00
C250   C     0.74740   0.24041   0.29841   0.00000  Uiso   1.00
C251   C     0.82244   0.19270   0.69300   0.00000  Uiso   1.00
C252   C     0.78234   0.12629   0.76782   0.00000  Uiso   1.00
C253   C     0.81922   0.08357   0.79206   0.00000  Uiso   1.00
H254   H     0.98768   0.30797   0.52662   0.00000  Uiso   1.00
H255   H     0.05074   0.44115   0.64399   0.00000  Uiso   1.00
H256   H     0.94189   0.29838   0.29172   0.00000  Uiso   1.00
H257   H     0.99117   0.19078   0.63040   0.00000  Uiso   1.00
H258   H     0.08788   0.57869   0.79564   0.00000  Uiso   1.00
H259   H     0.85837   0.27763   0.05284   0.00000  Uiso   1.00
H260   H     0.96227   0.05075   0.76703   0.00000  Uiso   1.00
H261   H     0.73521   0.23001   0.69272   0.00000  Uiso   1.00
H262   H     0.78442   0.35891   0.81922   0.00000  Uiso   1.00
H263   H     0.67557   0.21615   0.46694   0.00000  Uiso   1.00
H264   H     0.72485   0.10855   0.80562   0.00000  Uiso   1.00
H265   H     0.87173   0.51195   0.93785   0.00000  Uiso   1.00
H266   H     0.64221   0.21089   0.19505   0.00000  Uiso   1.00
H267   H     0.74612   0.98401   0.90924   0.00000  Uiso   1.00
O268   O     0.01672   0.63153   0.94692   0.00000  Uiso   1.00
O269   O     0.71561   0.23654   0.97241   0.00000  Uiso   1.00
O270   O     0.85193   0.93888   0.90941   0.00000  Uiso   1.00
N271   N     0.03026   0.54529   0.81177   0.00000  Uiso   1.00
N272   N     0.81568   0.26383   0.11730   0.00000  Uiso   1.00
N273   N     0.91281   0.05170   0.78498   0.00000  Uiso   1.00
N274   N     0.91395   0.50937   0.88830   0.00000  Uiso   1.00
N275   N     0.69937   0.22791   0.19383   0.00000  Uiso   1.00
N276   N     0.79650   0.01578   0.86150   0.00000  Uiso   1.00
