data_job_06147
_audit_creation_date              2018-12-19
_audit_creation_method            'Materials Studio'
_symmetry_space_group_name_H-M    'P1'
_symmetry_Int_Tables_number       1
_symmetry_cell_setting            triclinic
loop_
_symmetry_equiv_pos_as_xyz
  x,y,z
_cell_length_a                    17.7684
_cell_length_b                    17.2812
_cell_length_c                    15.8785
_cell_angle_alpha                 100.1160
_cell_angle_beta                  100.1590
_cell_angle_gamma                 97.4526
loop_
_atom_site_label
_atom_site_type_symbol
_atom_site_fract_x
_atom_site_fract_y
_atom_site_fract_z
_atom_site_U_iso_or_equiv
_atom_site_adp_type
_atom_site_occupancy
C1     C     0.59791   0.63027   0.13309   0.00000  Uiso   1.00
C2     C     0.57880   0.70343   0.09760   0.00000  Uiso   1.00
C3     C     0.56308   0.70813   0.01005   0.00000  Uiso   1.00
C4     C     0.54693   0.78038   0.99100   0.00000  Uiso   1.00
C5     C     0.51735   0.88408   0.92583   0.00000  Uiso   1.00
C6     C     0.67592   0.65693   0.19647   0.00000  Uiso   1.00
C7     C     0.74185   0.62251   0.19204   0.00000  Uiso   1.00
C8     C     0.80746   0.65561   0.25622   0.00000  Uiso   1.00
C9     C     0.92864   0.68707   0.34459   0.00000  Uiso   1.00
C10    C     0.53854   0.61266   0.18870   0.00000  Uiso   1.00
C11    C     0.48898   0.54102   0.17777   0.00000  Uiso   1.00
C12    C     0.43893   0.53684   0.23542   0.00000  Uiso   1.00
C13    C     0.34681   0.49957   0.31172   0.00000  Uiso   1.00
C14    C     0.59719   0.75022   0.25495   0.00000  Uiso   1.00
C15    C     0.57841   0.76858   0.16379   0.00000  Uiso   1.00
C16    C     0.56227   0.84084   0.14487   0.00000  Uiso   1.00
C17    C     0.54653   0.84565   0.05730   0.00000  Uiso   1.00
C18    C     0.67552   0.72207   0.26266   0.00000  Uiso   1.00
C19    C     0.74105   0.75522   0.32686   0.00000  Uiso   1.00
C20    C     0.80706   0.72088   0.32253   0.00000  Uiso   1.00
C21    C     0.53814   0.67781   0.25489   0.00000  Uiso   1.00
C22    C     0.48817   0.67373   0.31258   0.00000  Uiso   1.00
C23    C     0.43854   0.60211   0.30173   0.00000  Uiso   1.00
H24    H     0.59823   0.57955   0.08156   0.00000  Uiso   1.00
H25    H     0.56340   0.65770   0.95885   0.00000  Uiso   1.00
H26    H     0.74214   0.57209   0.14082   0.00000  Uiso   1.00
H27    H     0.48930   0.49062   0.12654   0.00000  Uiso   1.00
H28    H     0.52464   0.77308   0.85199   0.00000  Uiso   1.00
H29    H     0.90151   0.59256   0.23570   0.00000  Uiso   1.00
H30    H     0.36835   0.42075   0.20559   0.00000  Uiso   1.00
H31    H     0.59688   0.80094   0.30648   0.00000  Uiso   1.00
H32    H     0.56197   0.89125   0.19610   0.00000  Uiso   1.00
H33    H     0.74072   0.80564   0.37808   0.00000  Uiso   1.00
H34    H     0.48788   0.72416   0.36379   0.00000  Uiso   1.00
H35    H     0.52349   0.96264   0.04455   0.00000  Uiso   1.00
H36    H     0.90036   0.78212   0.42827   0.00000  Uiso   1.00
H37    H     0.36720   0.61030   0.39815   0.00000  Uiso   1.00
O38    O     0.50115   0.92328   0.87160   0.00000  Uiso   1.00
O39    O     0.99559   0.68643   0.37503   0.00000  Uiso   1.00
O40    O     0.29610   0.46102   0.33552   0.00000  Uiso   1.00
N41    N     0.52914   0.80530   0.91245   0.00000  Uiso   1.00
N42    N     0.88150   0.63653   0.27120   0.00000  Uiso   1.00
N43    N     0.38306   0.47589   0.24306   0.00000  Uiso   1.00
N44    N     0.52852   0.90730   0.01607   0.00000  Uiso   1.00
N45    N     0.88088   0.73853   0.37481   0.00000  Uiso   1.00
N46    N     0.38244   0.57789   0.34667   0.00000  Uiso   1.00
C47    C     0.14016   0.59519   0.62004   0.00000  Uiso   1.00
C48    C     0.10835   0.57727   0.69894   0.00000  Uiso   1.00
C49    C     0.03052   0.56235   0.70282   0.00000  Uiso   1.00
C50    C     0.01331   0.54726   0.78095   0.00000  Uiso   1.00
C51    C     0.95501   0.51950   0.89258   0.00000  Uiso   1.00
C52    C     0.19444   0.67500   0.65168   0.00000  Uiso   1.00
C53    C     0.18900   0.74223   0.61580   0.00000  Uiso   1.00
C54    C     0.24429   0.80940   0.65415   0.00000  Uiso   1.00
C55    C     0.31968   0.93334   0.69236   0.00000  Uiso   1.00
C56    C     0.19159   0.53312   0.59989   0.00000  Uiso   1.00
C57    C     0.18377   0.48108   0.52046   0.00000  Uiso   1.00
C58    C     0.23667   0.42880   0.51519   0.00000  Uiso   1.00
C59    C     0.30763   0.33245   0.47299   0.00000  Uiso   1.00
C60    C     0.24801   0.59491   0.75192   0.00000  Uiso   1.00
C61    C     0.16693   0.57712   0.77057   0.00000  Uiso   1.00
C62    C     0.14984   0.56204   0.84872   0.00000  Uiso   1.00
C63    C     0.07200   0.54710   0.85271   0.00000  Uiso   1.00
C64    C     0.25302   0.67485   0.72330   0.00000  Uiso   1.00
C65    C     0.30833   0.74192   0.76171   0.00000  Uiso   1.00
C66    C     0.30297   0.80925   0.72591   0.00000  Uiso   1.00
C67    C     0.25017   0.53296   0.67152   0.00000  Uiso   1.00
C68    C     0.30310   0.48076   0.66637   0.00000  Uiso   1.00
C69    C     0.29535   0.42865   0.58695   0.00000  Uiso   1.00
H70    H     0.09455   0.59531   0.56428   0.00000  Uiso   1.00
H71    H     0.98519   0.56248   0.64737   0.00000  Uiso   1.00
H72    H     0.14367   0.74233   0.56037   0.00000  Uiso   1.00
H73    H     0.13843   0.48121   0.46504   0.00000  Uiso   1.00
H74    H     0.88979   0.52605   0.77109   0.00000  Uiso   1.00
H75    H     0.22395   0.90526   0.58763   0.00000  Uiso   1.00
H76    H     0.21291   0.35464   0.38661   0.00000  Uiso   1.00
H77    H     0.29362   0.59479   0.80769   0.00000  Uiso   1.00
H78    H     0.19519   0.56193   0.90414   0.00000  Uiso   1.00
H79    H     0.35366   0.74178   0.81714   0.00000  Uiso   1.00
H80    H     0.34842   0.48066   0.72181   0.00000  Uiso   1.00
H81    H     0.06023   0.52560   0.97950   0.00000  Uiso   1.00
H82    H     0.39439   0.90482   0.79603   0.00000  Uiso   1.00
H83    H     0.38335   0.35419   0.59502   0.00000  Uiso   1.00
O84    O     0.90667   0.50424   0.93436   0.00000  Uiso   1.00
O85    O     0.34508   0.00175   0.69365   0.00000  Uiso   1.00
O86    O     0.33059   0.27934   0.42993   0.00000  Uiso   1.00
N87    N     0.94341   0.53044   0.80690   0.00000  Uiso   1.00
N88    N     0.25582   0.88498   0.63538   0.00000  Uiso   1.00
N89    N     0.24552   0.37021   0.44744   0.00000  Uiso   1.00
N90    N     0.03512   0.53020   0.91904   0.00000  Uiso   1.00
N91    N     0.34753   0.88474   0.74752   0.00000  Uiso   1.00
N92    N     0.33723   0.36997   0.55958   0.00000  Uiso   1.00
C93    C     0.63239   0.14024   0.59197   0.00000  Uiso   1.00
C94    C     0.70389   0.10619   0.57241   0.00000  Uiso   1.00
C95    C     0.70958   0.02587   0.55422   0.00000  Uiso   1.00
C96    C     0.77997   0.00690   0.53809   0.00000  Uiso   1.00
C97    C     0.88151   0.94501   0.50745   0.00000  Uiso   1.00
C98    C     0.65851   0.19700   0.68062   0.00000  Uiso   1.00
C99    C     0.62603   0.19305   0.75341   0.00000  Uiso   1.00
C100   C     0.65822   0.25053   0.82837   0.00000  Uiso   1.00
C101   C     0.68926   0.32967   0.96571   0.00000  Uiso   1.00
C102   C     0.61353   0.19230   0.52544   0.00000  Uiso   1.00
C103   C     0.54323   0.18441   0.46776   0.00000  Uiso   1.00
C104   C     0.53754   0.23795   0.41208   0.00000  Uiso   1.00
C105   C     0.49875   0.30979   0.30847   0.00000  Uiso   1.00
C106   C     0.74729   0.24936   0.59568   0.00000  Uiso   1.00
C107   C     0.76630   0.16546   0.57443   0.00000  Uiso   1.00
C108   C     0.83670   0.14660   0.55831   0.00000  Uiso   1.00
C109   C     0.84250   0.06627   0.54010   0.00000  Uiso   1.00
C110   C     0.72091   0.25627   0.68264   0.00000  Uiso   1.00
C111   C     0.75316   0.31378   0.75750   0.00000  Uiso   1.00
C112   C     0.72074   0.30991   0.83039   0.00000  Uiso   1.00
C113   C     0.67594   0.25157   0.52745   0.00000  Uiso   1.00
C114   C     0.67036   0.30514   0.47185   0.00000  Uiso   1.00
C115   C     0.60007   0.29732   0.41410   0.00000  Uiso   1.00
H116   H     0.58380   0.09410   0.59041   0.00000  Uiso   1.00
H117   H     0.66127   0.98002   0.55268   0.00000  Uiso   1.00
H118   H     0.57773   0.14718   0.75183   0.00000  Uiso   1.00
H119   H     0.49495   0.13854   0.46622   0.00000  Uiso   1.00
H120   H     0.77468   0.87969   0.51176   0.00000  Uiso   1.00
H121   H     0.59852   0.23216   0.93167   0.00000  Uiso   1.00
H122   H     0.42395   0.21394   0.32941   0.00000  Uiso   1.00
H123   H     0.79588   0.29551   0.59724   0.00000  Uiso   1.00
H124   H     0.88499   0.19248   0.55988   0.00000  Uiso   1.00
H125   H     0.80145   0.35964   0.75904   0.00000  Uiso   1.00
H126   H     0.71866   0.35099   0.47343   0.00000  Uiso   1.00
H127   H     0.95627   0.05213   0.51761   0.00000  Uiso   1.00
H128   H     0.78010   0.40461   0.93753   0.00000  Uiso   1.00
H129   H     0.60553   0.38638   0.33526   0.00000  Uiso   1.00
O130   O     0.92027   0.89451   0.49000   0.00000  Uiso   1.00
O131   O     0.68914   0.35694   0.04091   0.00000  Uiso   1.00
O132   O     0.46011   0.33303   0.25076   0.00000  Uiso   1.00
N133   N     0.80519   0.93441   0.51824   0.00000  Uiso   1.00
N134   N     0.64049   0.26395   0.91085   0.00000  Uiso   1.00
N135   N     0.47728   0.24692   0.34780   0.00000  Uiso   1.00
N136   N     0.90289   0.02720   0.52139   0.00000  Uiso   1.00
N137   N     0.73820   0.35673   0.91399   0.00000  Uiso   1.00
N138   N     0.57498   0.33971   0.35094   0.00000  Uiso   1.00
C139   C     0.40209   0.36973   0.86691   0.00000  Uiso   1.00
C140   C     0.42120   0.29657   0.90240   0.00000  Uiso   1.00
C141   C     0.43692   0.29187   0.98995   0.00000  Uiso   1.00
C142   C     0.45307   0.21962   0.00900   0.00000  Uiso   1.00
C143   C     0.48265   0.11592   0.07417   0.00000  Uiso   1.00
C144   C     0.32408   0.34307   0.80353   0.00000  Uiso   1.00
C145   C     0.25815   0.37749   0.80796   0.00000  Uiso   1.00
C146   C     0.19254   0.34439   0.74378   0.00000  Uiso   1.00
C147   C     0.07136   0.31293   0.65541   0.00000  Uiso   1.00
C148   C     0.46146   0.38734   0.81130   0.00000  Uiso   1.00
C149   C     0.51102   0.45898   0.82223   0.00000  Uiso   1.00
C150   C     0.56107   0.46316   0.76458   0.00000  Uiso   1.00
C151   C     0.65319   0.50043   0.68828   0.00000  Uiso   1.00
C152   C     0.40281   0.24978   0.74505   0.00000  Uiso   1.00
C153   C     0.42159   0.23142   0.83621   0.00000  Uiso   1.00
C154   C     0.43773   0.15916   0.85513   0.00000  Uiso   1.00
C155   C     0.45347   0.15435   0.94270   0.00000  Uiso   1.00
C156   C     0.32448   0.27792   0.73734   0.00000  Uiso   1.00
C157   C     0.25895   0.24478   0.67314   0.00000  Uiso   1.00
C158   C     0.19294   0.27912   0.67747   0.00000  Uiso   1.00
C159   C     0.46186   0.32219   0.74511   0.00000  Uiso   1.00
C160   C     0.51183   0.32627   0.68742   0.00000  Uiso   1.00
C161   C     0.56146   0.39789   0.69827   0.00000  Uiso   1.00
H162   H     0.40177   0.42045   0.91844   0.00000  Uiso   1.00
H163   H     0.43660   0.34230   0.04115   0.00000  Uiso   1.00
H164   H     0.25786   0.42791   0.85918   0.00000  Uiso   1.00
H165   H     0.51070   0.50938   0.87346   0.00000  Uiso   1.00
H166   H     0.47536   0.22692   0.14801   0.00000  Uiso   1.00
H167   H     0.09849   0.40744   0.76430   0.00000  Uiso   1.00
H168   H     0.63165   0.57925   0.79441   0.00000  Uiso   1.00
H169   H     0.40312   0.19906   0.69352   0.00000  Uiso   1.00
H170   H     0.43803   0.10875   0.80390   0.00000  Uiso   1.00
H171   H     0.25928   0.19436   0.62192   0.00000  Uiso   1.00
H172   H     0.51212   0.27584   0.63621   0.00000  Uiso   1.00
H173   H     0.47651   0.03736   0.95545   0.00000  Uiso   1.00
H174   H     0.09964   0.21788   0.57173   0.00000  Uiso   1.00
H175   H     0.63280   0.38969   0.60185   0.00000  Uiso   1.00
O176   O     0.49885   0.07672   0.12840   0.00000  Uiso   1.00
O177   O     0.00441   0.31357   0.62497   0.00000  Uiso   1.00
O178   O     0.70390   0.53898   0.66448   0.00000  Uiso   1.00
N179   N     0.47086   0.19470   0.08755   0.00000  Uiso   1.00
N180   N     0.11850   0.36347   0.72880   0.00000  Uiso   1.00
N181   N     0.61694   0.52411   0.75694   0.00000  Uiso   1.00
N182   N     0.47148   0.09270   0.98393   0.00000  Uiso   1.00
N183   N     0.11912   0.26147   0.62519   0.00000  Uiso   1.00
N184   N     0.61756   0.42211   0.65333   0.00000  Uiso   1.00
C185   C     0.85984   0.40481   0.37996   0.00000  Uiso   1.00
C186   C     0.89165   0.42273   0.30106   0.00000  Uiso   1.00
C187   C     0.96948   0.43765   0.29718   0.00000  Uiso   1.00
C188   C     0.98669   0.45274   0.21905   0.00000  Uiso   1.00
C189   C     0.04499   0.48050   0.10742   0.00000  Uiso   1.00
C190   C     0.80556   0.32500   0.34832   0.00000  Uiso   1.00
C191   C     0.81100   0.25777   0.38420   0.00000  Uiso   1.00
C192   C     0.75571   0.19060   0.34585   0.00000  Uiso   1.00
C193   C     0.68032   0.06666   0.30764   0.00000  Uiso   1.00
C194   C     0.80841   0.46688   0.40011   0.00000  Uiso   1.00
C195   C     0.81623   0.51892   0.47954   0.00000  Uiso   1.00
C196   C     0.76333   0.57120   0.48481   0.00000  Uiso   1.00
C197   C     0.69236   0.66755   0.52701   0.00000  Uiso   1.00
C198   C     0.75199   0.40509   0.24808   0.00000  Uiso   1.00
C199   C     0.83307   0.42288   0.22943   0.00000  Uiso   1.00
C200   C     0.85016   0.43796   0.15128   0.00000  Uiso   1.00
C201   C     0.92800   0.45290   0.14729   0.00000  Uiso   1.00
C202   C     0.74698   0.32515   0.27670   0.00000  Uiso   1.00
C203   C     0.69167   0.25808   0.23829   0.00000  Uiso   1.00
C204   C     0.69703   0.19075   0.27409   0.00000  Uiso   1.00
C205   C     0.74983   0.46704   0.32848   0.00000  Uiso   1.00
C206   C     0.69690   0.51924   0.33363   0.00000  Uiso   1.00
C207   C     0.70465   0.57135   0.41305   0.00000  Uiso   1.00
H208   H     0.90545   0.40469   0.43572   0.00000  Uiso   1.00
H209   H     0.01481   0.43752   0.35263   0.00000  Uiso   1.00
H210   H     0.85633   0.25767   0.43963   0.00000  Uiso   1.00
H211   H     0.86157   0.51879   0.53496   0.00000  Uiso   1.00
H212   H     0.11021   0.47395   0.22891   0.00000  Uiso   1.00
H213   H     0.77605   0.09474   0.41237   0.00000  Uiso   1.00
H214   H     0.78709   0.64536   0.61339   0.00000  Uiso   1.00
H215   H     0.70638   0.40521   0.19231   0.00000  Uiso   1.00
H216   H     0.80481   0.43807   0.09586   0.00000  Uiso   1.00
H217   H     0.64634   0.25822   0.18286   0.00000  Uiso   1.00
H218   H     0.65158   0.51934   0.27819   0.00000  Uiso   1.00
H219   H     0.93977   0.47440   0.02050   0.00000  Uiso   1.00
H220   H     0.60561   0.09518   0.20397   0.00000  Uiso   1.00
H221   H     0.61665   0.64581   0.40498   0.00000  Uiso   1.00
O222   O     0.09333   0.49576   0.06564   0.00000  Uiso   1.00
O223   O     0.65492   0.99825   0.30635   0.00000  Uiso   1.00
O224   O     0.66941   0.72065   0.57007   0.00000  Uiso   1.00
N225   N     0.05659   0.46956   0.19310   0.00000  Uiso   1.00
N226   N     0.74418   0.11502   0.36462   0.00000  Uiso   1.00
N227   N     0.75448   0.62979   0.55256   0.00000  Uiso   1.00
N228   N     0.96488   0.46980   0.08096   0.00000  Uiso   1.00
N229   N     0.65247   0.11526   0.25248   0.00000  Uiso   1.00
N230   N     0.66277   0.63003   0.44042   0.00000  Uiso   1.00
C231   C     0.36761   0.85976   0.40803   0.00000  Uiso   1.00
C232   C     0.29611   0.89381   0.42759   0.00000  Uiso   1.00
C233   C     0.29042   0.97413   0.44578   0.00000  Uiso   1.00
C234   C     0.22003   0.99310   0.46191   0.00000  Uiso   1.00
C235   C     0.11849   0.05499   0.49255   0.00000  Uiso   1.00
C236   C     0.34149   0.80300   0.31938   0.00000  Uiso   1.00
C237   C     0.37397   0.80695   0.24659   0.00000  Uiso   1.00
C238   C     0.34178   0.74947   0.17163   0.00000  Uiso   1.00
C239   C     0.31074   0.67033   0.03429   0.00000  Uiso   1.00
C240   C     0.38647   0.80770   0.47456   0.00000  Uiso   1.00
C241   C     0.45677   0.81559   0.53224   0.00000  Uiso   1.00
C242   C     0.46246   0.76205   0.58792   0.00000  Uiso   1.00
C243   C     0.50125   0.69021   0.69153   0.00000  Uiso   1.00
C244   C     0.25271   0.75064   0.40432   0.00000  Uiso   1.00
C245   C     0.23370   0.83454   0.42558   0.00000  Uiso   1.00
C246   C     0.16330   0.85340   0.44169   0.00000  Uiso   1.00
C247   C     0.15750   0.93373   0.45990   0.00000  Uiso   1.00
C248   C     0.27909   0.74373   0.31736   0.00000  Uiso   1.00
C249   C     0.24684   0.68622   0.24250   0.00000  Uiso   1.00
C250   C     0.27926   0.69009   0.16961   0.00000  Uiso   1.00
C251   C     0.32406   0.74843   0.47255   0.00000  Uiso   1.00
C252   C     0.32964   0.69486   0.52815   0.00000  Uiso   1.00
C253   C     0.39993   0.70268   0.58590   0.00000  Uiso   1.00
H254   H     0.41620   0.90590   0.40959   0.00000  Uiso   1.00
H255   H     0.33873   0.01998   0.44732   0.00000  Uiso   1.00
H256   H     0.42227   0.85282   0.24817   0.00000  Uiso   1.00
H257   H     0.50505   0.86146   0.53378   0.00000  Uiso   1.00
H258   H     0.22532   0.12031   0.48824   0.00000  Uiso   1.00
H259   H     0.40148   0.76784   0.06833   0.00000  Uiso   1.00
H260   H     0.57605   0.78606   0.67059   0.00000  Uiso   1.00
H261   H     0.20412   0.70449   0.40276   0.00000  Uiso   1.00
H262   H     0.11501   0.80752   0.44012   0.00000  Uiso   1.00
H263   H     0.19855   0.64036   0.24096   0.00000  Uiso   1.00
H264   H     0.28134   0.64901   0.52657   0.00000  Uiso   1.00
H265   H     0.04373   0.94787   0.48239   0.00000  Uiso   1.00
H266   H     0.21990   0.59539   0.06247   0.00000  Uiso   1.00
H267   H     0.39447   0.61362   0.66474   0.00000  Uiso   1.00
O268   O     0.07973   0.10549   0.51000   0.00000  Uiso   1.00
O269   O     0.31086   0.64306   0.95909   0.00000  Uiso   1.00
O270   O     0.53989   0.66697   0.74924   0.00000  Uiso   1.00
N271   N     0.19481   0.06559   0.48176   0.00000  Uiso   1.00
N272   N     0.35951   0.73605   0.08915   0.00000  Uiso   1.00
N273   N     0.52272   0.75308   0.65220   0.00000  Uiso   1.00
N274   N     0.09711   0.97280   0.47861   0.00000  Uiso   1.00
N275   N     0.26180   0.64327   0.08601   0.00000  Uiso   1.00
N276   N     0.42502   0.66029   0.64906   0.00000  Uiso   1.00
