data_job_05706
_audit_creation_date              2018-12-19
_audit_creation_method            'Materials Studio'
_symmetry_space_group_name_H-M    'P1'
_symmetry_Int_Tables_number       1
_symmetry_cell_setting            triclinic
loop_
_symmetry_equiv_pos_as_xyz
  x,y,z
_cell_length_a                    12.5755
_cell_length_b                    32.6933
_cell_length_c                    10.0671
_cell_angle_alpha                 90.0000
_cell_angle_beta                  135.5589
_cell_angle_gamma                 90.0000
loop_
_atom_site_label
_atom_site_type_symbol
_atom_site_fract_x
_atom_site_fract_y
_atom_site_fract_z
_atom_site_U_iso_or_equiv
_atom_site_adp_type
_atom_site_occupancy
C1     C     0.28167   0.59322   0.39941   0.00000  Uiso   1.00
C2     C     0.19304   0.61426   0.43112   0.00000  Uiso   1.00
C3     C     0.21807   0.60940   0.58862   0.00000  Uiso   1.00
C4     C     0.12477   0.63134   0.59077   0.00000  Uiso   1.00
C5     C     0.00447   0.66006   0.66278   0.00000  Uiso   1.00
C6     C     0.16429   0.57065   0.21087   0.00000  Uiso   1.00
C7     C     0.16516   0.52911   0.18320   0.00000  Uiso   1.00
C8     C     0.04766   0.51434   0.99993   0.00000  Uiso   1.00
C9     C     0.88279   0.47535   0.72999   0.00000  Uiso   1.00
C10    C     0.34363   0.62738   0.36691   0.00000  Uiso   1.00
C11    C     0.49529   0.63354   0.47040   0.00000  Uiso   1.00
C12    C     0.52879   0.66652   0.41848   0.00000  Uiso   1.00
C13    C     0.64237   0.71562   0.39081   0.00000  Uiso   1.00
C14    C     0.07148   0.64084   0.12315   0.00000  Uiso   1.00
C15    C     0.07887   0.64012   0.28105   0.00000  Uiso   1.00
C16    C     0.98552   0.66208   0.28297   0.00000  Uiso   1.00
C17    C     0.01040   0.65725   0.44045   0.00000  Uiso   1.00
C18    C     0.05012   0.59651   0.06082   0.00000  Uiso   1.00
C19    C     0.93261   0.58179   0.87755   0.00000  Uiso   1.00
C20    C     0.93329   0.54024   0.84960   0.00000  Uiso   1.00
C21    C     0.22947   0.65324   0.21686   0.00000  Uiso   1.00
C22    C     0.26274   0.68622   0.16476   0.00000  Uiso   1.00
C23    C     0.41442   0.69243   0.26815   0.00000  Uiso   1.00
H24    H     0.37055   0.57308   0.51622   0.00000  Uiso   1.00
H25    H     0.30642   0.58938   0.70471   0.00000  Uiso   1.00
H26    H     0.25353   0.50911   0.29934   0.00000  Uiso   1.00
H27    H     0.58361   0.61352   0.58651   0.00000  Uiso   1.00
H28    H     0.18494   0.61883   0.84747   0.00000  Uiso   1.00
H29    H     0.07344   0.44958   0.99273   0.00000  Uiso   1.00
H30    H     0.76948   0.66975   0.59827   0.00000  Uiso   1.00
H31    H     0.98260   0.66097   0.00631   0.00000  Uiso   1.00
H32    H     0.89718   0.68209   0.16682   0.00000  Uiso   1.00
H33    H     0.84429   0.60182   0.76146   0.00000  Uiso   1.00
H34    H     0.17436   0.70623   0.04863   0.00000  Uiso   1.00
H35    H     0.85278   0.69408   0.41090   0.00000  Uiso   1.00
H36    H     0.74128   0.52483   0.55615   0.00000  Uiso   1.00
H37    H     0.43732   0.74500   0.16170   0.00000  Uiso   1.00
O38    O     0.96964   0.66875   0.74394   0.00000  Uiso   1.00
O39    O     0.82337   0.44670   0.62255   0.00000  Uiso   1.00
O40    O     0.73656   0.73556   0.41702   0.00000  Uiso   1.00
N41    N     0.11851   0.63365   0.72271   0.00000  Uiso   1.00
N42    N     0.01425   0.47541   0.92358   0.00000  Uiso   1.00
N43    N     0.66499   0.68124   0.48969   0.00000  Uiso   1.00
N44    N     0.93978   0.67414   0.48780   0.00000  Uiso   1.00
N45    N     0.83552   0.51590   0.68867   0.00000  Uiso   1.00
N46    N     0.48625   0.72173   0.25477   0.00000  Uiso   1.00
C47    C     0.78167   0.09322   0.39941   0.00000  Uiso   1.00
C48    C     0.69304   0.11426   0.43112   0.00000  Uiso   1.00
C49    C     0.71807   0.10940   0.58862   0.00000  Uiso   1.00
C50    C     0.62477   0.13134   0.59077   0.00000  Uiso   1.00
C51    C     0.50447   0.16006   0.66278   0.00000  Uiso   1.00
C52    C     0.66429   0.07065   0.21087   0.00000  Uiso   1.00
C53    C     0.66516   0.02911   0.18320   0.00000  Uiso   1.00
C54    C     0.54766   0.01434   0.99993   0.00000  Uiso   1.00
C55    C     0.38279   0.97535   0.72999   0.00000  Uiso   1.00
C56    C     0.84363   0.12738   0.36691   0.00000  Uiso   1.00
C57    C     0.99529   0.13354   0.47040   0.00000  Uiso   1.00
C58    C     0.02879   0.16652   0.41848   0.00000  Uiso   1.00
C59    C     0.14237   0.21562   0.39081   0.00000  Uiso   1.00
C60    C     0.57148   0.14084   0.12315   0.00000  Uiso   1.00
C61    C     0.57887   0.14012   0.28105   0.00000  Uiso   1.00
C62    C     0.48552   0.16208   0.28297   0.00000  Uiso   1.00
C63    C     0.51040   0.15725   0.44045   0.00000  Uiso   1.00
C64    C     0.55012   0.09651   0.06082   0.00000  Uiso   1.00
C65    C     0.43261   0.08179   0.87755   0.00000  Uiso   1.00
C66    C     0.43329   0.04024   0.84960   0.00000  Uiso   1.00
C67    C     0.72947   0.15324   0.21686   0.00000  Uiso   1.00
C68    C     0.76274   0.18622   0.16476   0.00000  Uiso   1.00
C69    C     0.91442   0.19243   0.26815   0.00000  Uiso   1.00
H70    H     0.87055   0.07308   0.51622   0.00000  Uiso   1.00
H71    H     0.80642   0.08938   0.70471   0.00000  Uiso   1.00
H72    H     0.75353   0.00911   0.29934   0.00000  Uiso   1.00
H73    H     0.08361   0.11352   0.58651   0.00000  Uiso   1.00
H74    H     0.68494   0.11883   0.84747   0.00000  Uiso   1.00
H75    H     0.57344   0.94958   0.99273   0.00000  Uiso   1.00
H76    H     0.26948   0.16975   0.59827   0.00000  Uiso   1.00
H77    H     0.48260   0.16097   0.00631   0.00000  Uiso   1.00
H78    H     0.39718   0.18209   0.16682   0.00000  Uiso   1.00
H79    H     0.34429   0.10182   0.76146   0.00000  Uiso   1.00
H80    H     0.67436   0.20623   0.04863   0.00000  Uiso   1.00
H81    H     0.35278   0.19408   0.41090   0.00000  Uiso   1.00
H82    H     0.24128   0.02483   0.55615   0.00000  Uiso   1.00
H83    H     0.93732   0.24500   0.16170   0.00000  Uiso   1.00
O84    O     0.46964   0.16875   0.74394   0.00000  Uiso   1.00
O85    O     0.32337   0.94670   0.62255   0.00000  Uiso   1.00
O86    O     0.23656   0.23556   0.41702   0.00000  Uiso   1.00
N87    N     0.61851   0.13365   0.72271   0.00000  Uiso   1.00
N88    N     0.51425   0.97541   0.92358   0.00000  Uiso   1.00
N89    N     0.16499   0.18124   0.48969   0.00000  Uiso   1.00
N90    N     0.43978   0.17414   0.48780   0.00000  Uiso   1.00
N91    N     0.33552   0.01590   0.68867   0.00000  Uiso   1.00
N92    N     0.98625   0.22173   0.25477   0.00000  Uiso   1.00
C93    C     0.28167   0.40678   0.89941   0.00000  Uiso   1.00
C94    C     0.19304   0.38574   0.93112   0.00000  Uiso   1.00
C95    C     0.21807   0.39060   0.08862   0.00000  Uiso   1.00
C96    C     0.12477   0.36866   0.09077   0.00000  Uiso   1.00
C97    C     0.00447   0.33994   0.16278   0.00000  Uiso   1.00
C98    C     0.16429   0.42935   0.71087   0.00000  Uiso   1.00
C99    C     0.16516   0.47089   0.68320   0.00000  Uiso   1.00
C100   C     0.04766   0.48566   0.49993   0.00000  Uiso   1.00
C101   C     0.88279   0.52465   0.22999   0.00000  Uiso   1.00
C102   C     0.34363   0.37262   0.86691   0.00000  Uiso   1.00
C103   C     0.49529   0.36646   0.97040   0.00000  Uiso   1.00
C104   C     0.52879   0.33348   0.91848   0.00000  Uiso   1.00
C105   C     0.64237   0.28438   0.89081   0.00000  Uiso   1.00
C106   C     0.07148   0.35916   0.62315   0.00000  Uiso   1.00
C107   C     0.07887   0.35988   0.78105   0.00000  Uiso   1.00
C108   C     0.98552   0.33792   0.78297   0.00000  Uiso   1.00
C109   C     0.01040   0.34275   0.94045   0.00000  Uiso   1.00
C110   C     0.05012   0.40349   0.56082   0.00000  Uiso   1.00
C111   C     0.93261   0.41821   0.37755   0.00000  Uiso   1.00
C112   C     0.93329   0.45976   0.34960   0.00000  Uiso   1.00
C113   C     0.22947   0.34676   0.71686   0.00000  Uiso   1.00
C114   C     0.26274   0.31378   0.66476   0.00000  Uiso   1.00
C115   C     0.41442   0.30757   0.76815   0.00000  Uiso   1.00
H116   H     0.37055   0.42692   0.01622   0.00000  Uiso   1.00
H117   H     0.30642   0.41062   0.20471   0.00000  Uiso   1.00
H118   H     0.25353   0.49089   0.79934   0.00000  Uiso   1.00
H119   H     0.58361   0.38648   0.08651   0.00000  Uiso   1.00
H120   H     0.18494   0.38117   0.34747   0.00000  Uiso   1.00
H121   H     0.07344   0.55042   0.49273   0.00000  Uiso   1.00
H122   H     0.76948   0.33025   0.09827   0.00000  Uiso   1.00
H123   H     0.98260   0.33903   0.50631   0.00000  Uiso   1.00
H124   H     0.89718   0.31791   0.66682   0.00000  Uiso   1.00
H125   H     0.84429   0.39818   0.26146   0.00000  Uiso   1.00
H126   H     0.17436   0.29377   0.54863   0.00000  Uiso   1.00
H127   H     0.85278   0.30592   0.91090   0.00000  Uiso   1.00
H128   H     0.74128   0.47517   0.05615   0.00000  Uiso   1.00
H129   H     0.43732   0.25500   0.66170   0.00000  Uiso   1.00
O130   O     0.96964   0.33125   0.24394   0.00000  Uiso   1.00
O131   O     0.82337   0.55330   0.12255   0.00000  Uiso   1.00
O132   O     0.73656   0.26444   0.91702   0.00000  Uiso   1.00
N133   N     0.11851   0.36635   0.22271   0.00000  Uiso   1.00
N134   N     0.01425   0.52459   0.42358   0.00000  Uiso   1.00
N135   N     0.66499   0.31876   0.98969   0.00000  Uiso   1.00
N136   N     0.93978   0.32586   0.98780   0.00000  Uiso   1.00
N137   N     0.83552   0.48410   0.18867   0.00000  Uiso   1.00
N138   N     0.48625   0.27827   0.75477   0.00000  Uiso   1.00
C139   C     0.78167   0.90678   0.89941   0.00000  Uiso   1.00
C140   C     0.69304   0.88574   0.93112   0.00000  Uiso   1.00
C141   C     0.71807   0.89060   0.08862   0.00000  Uiso   1.00
C142   C     0.62477   0.86866   0.09077   0.00000  Uiso   1.00
C143   C     0.50447   0.83994   0.16278   0.00000  Uiso   1.00
C144   C     0.66429   0.92935   0.71087   0.00000  Uiso   1.00
C145   C     0.66516   0.97089   0.68320   0.00000  Uiso   1.00
C146   C     0.54766   0.98566   0.49993   0.00000  Uiso   1.00
C147   C     0.38279   0.02465   0.22999   0.00000  Uiso   1.00
C148   C     0.84363   0.87262   0.86691   0.00000  Uiso   1.00
C149   C     0.99529   0.86646   0.97040   0.00000  Uiso   1.00
C150   C     0.02879   0.83348   0.91848   0.00000  Uiso   1.00
C151   C     0.14237   0.78438   0.89081   0.00000  Uiso   1.00
C152   C     0.57148   0.85916   0.62315   0.00000  Uiso   1.00
C153   C     0.57887   0.85988   0.78105   0.00000  Uiso   1.00
C154   C     0.48552   0.83792   0.78297   0.00000  Uiso   1.00
C155   C     0.51040   0.84275   0.94045   0.00000  Uiso   1.00
C156   C     0.55012   0.90349   0.56082   0.00000  Uiso   1.00
C157   C     0.43261   0.91821   0.37755   0.00000  Uiso   1.00
C158   C     0.43329   0.95976   0.34960   0.00000  Uiso   1.00
C159   C     0.72947   0.84676   0.71686   0.00000  Uiso   1.00
C160   C     0.76274   0.81378   0.66476   0.00000  Uiso   1.00
C161   C     0.91442   0.80757   0.76815   0.00000  Uiso   1.00
H162   H     0.87055   0.92692   0.01622   0.00000  Uiso   1.00
H163   H     0.80642   0.91062   0.20471   0.00000  Uiso   1.00
H164   H     0.75353   0.99089   0.79934   0.00000  Uiso   1.00
H165   H     0.08361   0.88648   0.08651   0.00000  Uiso   1.00
H166   H     0.68494   0.88117   0.34747   0.00000  Uiso   1.00
H167   H     0.57344   0.05042   0.49273   0.00000  Uiso   1.00
H168   H     0.26948   0.83025   0.09827   0.00000  Uiso   1.00
H169   H     0.48260   0.83903   0.50631   0.00000  Uiso   1.00
H170   H     0.39718   0.81791   0.66682   0.00000  Uiso   1.00
H171   H     0.34429   0.89818   0.26146   0.00000  Uiso   1.00
H172   H     0.67436   0.79377   0.54863   0.00000  Uiso   1.00
H173   H     0.35278   0.80592   0.91090   0.00000  Uiso   1.00
H174   H     0.24128   0.97517   0.05615   0.00000  Uiso   1.00
H175   H     0.93732   0.75500   0.66170   0.00000  Uiso   1.00
O176   O     0.46964   0.83125   0.24394   0.00000  Uiso   1.00
O177   O     0.32337   0.05330   0.12255   0.00000  Uiso   1.00
O178   O     0.23656   0.76444   0.91702   0.00000  Uiso   1.00
N179   N     0.61851   0.86635   0.22271   0.00000  Uiso   1.00
N180   N     0.51425   0.02459   0.42358   0.00000  Uiso   1.00
N181   N     0.16499   0.81876   0.98969   0.00000  Uiso   1.00
N182   N     0.43978   0.82586   0.98780   0.00000  Uiso   1.00
N183   N     0.33552   0.98410   0.18867   0.00000  Uiso   1.00
N184   N     0.98625   0.77827   0.75477   0.00000  Uiso   1.00
