data_job_01448
_audit_creation_date              2018-12-19
_audit_creation_method            'Materials Studio'
_symmetry_space_group_name_H-M    'P1'
_symmetry_Int_Tables_number       1
_symmetry_cell_setting            triclinic
loop_
_symmetry_equiv_pos_as_xyz
  x,y,z
_cell_length_a                    21.6017
_cell_length_b                    15.3477
_cell_length_c                    18.6640
_cell_angle_alpha                 90.0000
_cell_angle_beta                  90.0000
_cell_angle_gamma                 90.0000
loop_
_atom_site_label
_atom_site_type_symbol
_atom_site_fract_x
_atom_site_fract_y
_atom_site_fract_z
_atom_site_U_iso_or_equiv
_atom_site_adp_type
_atom_site_occupancy
C1     C     0.63767   0.13140   0.85425   0.00000  Uiso   1.00
C2     C     0.69893   0.17446   0.83434   0.00000  Uiso   1.00
C3     C     0.75689   0.15005   0.85934   0.00000  Uiso   1.00
C4     C     0.80725   0.19766   0.83477   0.00000  Uiso   1.00
C5     C     0.90348   0.25397   0.81117   0.00000  Uiso   1.00
C6     C     0.59683   0.20374   0.88430   0.00000  Uiso   1.00
C7     C     0.56894   0.20394   0.95129   0.00000  Uiso   1.00
C8     C     0.53334   0.27620   0.96876   0.00000  Uiso   1.00
C9     C     0.47103   0.37793   0.02269   0.00000  Uiso   1.00
C10    C     0.60791   0.10372   0.78375   0.00000  Uiso   1.00
C11    C     0.58933   0.01983   0.76621   0.00000  Uiso   1.00
C12    C     0.56305   0.00789   0.69903   0.00000  Uiso   1.00
C13    C     0.51794   0.95434   0.59685   0.00000  Uiso   1.00
C14    C     0.62402   0.25937   0.76616   0.00000  Uiso   1.00
C15    C     0.69151   0.24397   0.78650   0.00000  Uiso   1.00
C16    C     0.74179   0.29163   0.76188   0.00000  Uiso   1.00
C17    C     0.79982   0.26730   0.78683   0.00000  Uiso   1.00
C18    C     0.58941   0.27324   0.83645   0.00000  Uiso   1.00
C19    C     0.55384   0.34552   0.85383   0.00000  Uiso   1.00
C20    C     0.52591   0.34583   0.92083   0.00000  Uiso   1.00
C21    C     0.60050   0.17323   0.73590   0.00000  Uiso   1.00
C22    C     0.57423   0.16142   0.66874   0.00000  Uiso   1.00
C23    C     0.55562   0.07753   0.65110   0.00000  Uiso   1.00
H24    H     0.64344   0.07729   0.89150   0.00000  Uiso   1.00
H25    H     0.76261   0.09626   0.89638   0.00000  Uiso   1.00
H26    H     0.57468   0.15013   0.98830   0.00000  Uiso   1.00
H27    H     0.59507   0.96606   0.80325   0.00000  Uiso   1.00
H28    H     0.89146   0.14796   0.88069   0.00000  Uiso   1.00
H29    H     0.49519   0.26155   0.07452   0.00000  Uiso   1.00
H30    H     0.53818   0.87339   0.68429   0.00000  Uiso   1.00
H31    H     0.61825   0.31349   0.72891   0.00000  Uiso   1.00
H32    H     0.73604   0.34542   0.72485   0.00000  Uiso   1.00
H33    H     0.54811   0.39930   0.81678   0.00000  Uiso   1.00
H34    H     0.56850   0.21522   0.63173   0.00000  Uiso   1.00
H35    H     0.86989   0.35019   0.74148   0.00000  Uiso   1.00
H36    H     0.47362   0.46378   0.93531   0.00000  Uiso   1.00
H37    H     0.51661   0.07562   0.54509   0.00000  Uiso   1.00
O38    O     0.95861   0.26583   0.81137   0.00000  Uiso   1.00
O39    O     0.43871   0.41484   0.06566   0.00000  Uiso   1.00
O40    O     0.49512   0.90559   0.55370   0.00000  Uiso   1.00
N41    N     0.87022   0.19116   0.84848   0.00000  Uiso   1.00
N42    N     0.49974   0.29736   0.02969   0.00000  Uiso   1.00
N43    N     0.53992   0.93447   0.66488   0.00000  Uiso   1.00
N44    N     0.85861   0.29998   0.77357   0.00000  Uiso   1.00
N45    N     0.48813   0.40618   0.95479   0.00000  Uiso   1.00
N46    N     0.52831   0.04329   0.58997   0.00000  Uiso   1.00
C47    C     0.86233   0.36860   0.35425   0.00000  Uiso   1.00
C48    C     0.80107   0.32554   0.33434   0.00000  Uiso   1.00
C49    C     0.74311   0.34995   0.35934   0.00000  Uiso   1.00
C50    C     0.69275   0.30234   0.33477   0.00000  Uiso   1.00
C51    C     0.59652   0.24603   0.31117   0.00000  Uiso   1.00
C52    C     0.90317   0.29626   0.38430   0.00000  Uiso   1.00
C53    C     0.93106   0.29606   0.45129   0.00000  Uiso   1.00
C54    C     0.96666   0.22380   0.46876   0.00000  Uiso   1.00
C55    C     0.02897   0.12207   0.52269   0.00000  Uiso   1.00
C56    C     0.89209   0.39628   0.28375   0.00000  Uiso   1.00
C57    C     0.91067   0.48017   0.26621   0.00000  Uiso   1.00
C58    C     0.93695   0.49211   0.19903   0.00000  Uiso   1.00
C59    C     0.98206   0.54566   0.09685   0.00000  Uiso   1.00
C60    C     0.87598   0.24063   0.26616   0.00000  Uiso   1.00
C61    C     0.80849   0.25603   0.28650   0.00000  Uiso   1.00
C62    C     0.75821   0.20837   0.26188   0.00000  Uiso   1.00
C63    C     0.70018   0.23270   0.28683   0.00000  Uiso   1.00
C64    C     0.91059   0.22676   0.33645   0.00000  Uiso   1.00
C65    C     0.94616   0.15448   0.35383   0.00000  Uiso   1.00
C66    C     0.97409   0.15417   0.42083   0.00000  Uiso   1.00
C67    C     0.89950   0.32677   0.23590   0.00000  Uiso   1.00
C68    C     0.92577   0.33858   0.16874   0.00000  Uiso   1.00
C69    C     0.94438   0.42247   0.15110   0.00000  Uiso   1.00
H70    H     0.85656   0.42271   0.39150   0.00000  Uiso   1.00
H71    H     0.73739   0.40374   0.39638   0.00000  Uiso   1.00
H72    H     0.92532   0.34987   0.48830   0.00000  Uiso   1.00
H73    H     0.90493   0.53394   0.30325   0.00000  Uiso   1.00
H74    H     0.60854   0.35204   0.38069   0.00000  Uiso   1.00
H75    H     0.00481   0.23845   0.57452   0.00000  Uiso   1.00
H76    H     0.96182   0.62661   0.18429   0.00000  Uiso   1.00
H77    H     0.88175   0.18651   0.22891   0.00000  Uiso   1.00
H78    H     0.76396   0.15458   0.22485   0.00000  Uiso   1.00
H79    H     0.95189   0.10070   0.31678   0.00000  Uiso   1.00
H80    H     0.93150   0.28478   0.13173   0.00000  Uiso   1.00
H81    H     0.63011   0.14981   0.24148   0.00000  Uiso   1.00
H82    H     0.02638   0.03622   0.43531   0.00000  Uiso   1.00
H83    H     0.98339   0.42438   0.04509   0.00000  Uiso   1.00
O84    O     0.54139   0.23417   0.31137   0.00000  Uiso   1.00
O85    O     0.06129   0.08516   0.56566   0.00000  Uiso   1.00
O86    O     0.00488   0.59441   0.05370   0.00000  Uiso   1.00
N87    N     0.62978   0.30884   0.34848   0.00000  Uiso   1.00
N88    N     0.00026   0.20264   0.52969   0.00000  Uiso   1.00
N89    N     0.96008   0.56553   0.16488   0.00000  Uiso   1.00
N90    N     0.64139   0.20002   0.27357   0.00000  Uiso   1.00
N91    N     0.01187   0.09382   0.45479   0.00000  Uiso   1.00
N92    N     0.97169   0.45671   0.08997   0.00000  Uiso   1.00
C93    C     0.36233   0.13140   0.64575   0.00000  Uiso   1.00
C94    C     0.30107   0.17446   0.66566   0.00000  Uiso   1.00
C95    C     0.24311   0.15005   0.64066   0.00000  Uiso   1.00
C96    C     0.19275   0.19766   0.66523   0.00000  Uiso   1.00
C97    C     0.09652   0.25397   0.68883   0.00000  Uiso   1.00
C98    C     0.40317   0.20374   0.61570   0.00000  Uiso   1.00
C99    C     0.43106   0.20394   0.54871   0.00000  Uiso   1.00
C100   C     0.46666   0.27620   0.53124   0.00000  Uiso   1.00
C101   C     0.52897   0.37793   0.47731   0.00000  Uiso   1.00
C102   C     0.39209   0.10372   0.71625   0.00000  Uiso   1.00
C103   C     0.41067   0.01983   0.73379   0.00000  Uiso   1.00
C104   C     0.43695   0.00789   0.80097   0.00000  Uiso   1.00
C105   C     0.48206   0.95434   0.90315   0.00000  Uiso   1.00
C106   C     0.37598   0.25937   0.73384   0.00000  Uiso   1.00
C107   C     0.30849   0.24397   0.71350   0.00000  Uiso   1.00
C108   C     0.25821   0.29163   0.73812   0.00000  Uiso   1.00
C109   C     0.20018   0.26730   0.71317   0.00000  Uiso   1.00
C110   C     0.41059   0.27324   0.66355   0.00000  Uiso   1.00
C111   C     0.44616   0.34552   0.64617   0.00000  Uiso   1.00
C112   C     0.47409   0.34583   0.57917   0.00000  Uiso   1.00
C113   C     0.39950   0.17323   0.76410   0.00000  Uiso   1.00
C114   C     0.42577   0.16142   0.83126   0.00000  Uiso   1.00
C115   C     0.44438   0.07753   0.84890   0.00000  Uiso   1.00
H116   H     0.35656   0.07729   0.60850   0.00000  Uiso   1.00
H117   H     0.23739   0.09626   0.60362   0.00000  Uiso   1.00
H118   H     0.42532   0.15013   0.51170   0.00000  Uiso   1.00
H119   H     0.40493   0.96606   0.69675   0.00000  Uiso   1.00
H120   H     0.10854   0.14796   0.61931   0.00000  Uiso   1.00
H121   H     0.50481   0.26155   0.42548   0.00000  Uiso   1.00
H122   H     0.46182   0.87339   0.81571   0.00000  Uiso   1.00
H123   H     0.38175   0.31349   0.77109   0.00000  Uiso   1.00
H124   H     0.26396   0.34542   0.77515   0.00000  Uiso   1.00
H125   H     0.45189   0.39930   0.68322   0.00000  Uiso   1.00
H126   H     0.43150   0.21522   0.86827   0.00000  Uiso   1.00
H127   H     0.13011   0.35019   0.75852   0.00000  Uiso   1.00
H128   H     0.52638   0.46378   0.56469   0.00000  Uiso   1.00
H129   H     0.48339   0.07562   0.95491   0.00000  Uiso   1.00
O130   O     0.04139   0.26583   0.68863   0.00000  Uiso   1.00
O131   O     0.56129   0.41484   0.43434   0.00000  Uiso   1.00
O132   O     0.50488   0.90559   0.94630   0.00000  Uiso   1.00
N133   N     0.12978   0.19116   0.65152   0.00000  Uiso   1.00
N134   N     0.50026   0.29736   0.47031   0.00000  Uiso   1.00
N135   N     0.46008   0.93447   0.83512   0.00000  Uiso   1.00
N136   N     0.14139   0.29998   0.72643   0.00000  Uiso   1.00
N137   N     0.51187   0.40618   0.54521   0.00000  Uiso   1.00
N138   N     0.47169   0.04329   0.91003   0.00000  Uiso   1.00
C139   C     0.13767   0.36860   0.14575   0.00000  Uiso   1.00
C140   C     0.19893   0.32554   0.16566   0.00000  Uiso   1.00
C141   C     0.25689   0.34995   0.14066   0.00000  Uiso   1.00
C142   C     0.30725   0.30234   0.16523   0.00000  Uiso   1.00
C143   C     0.40348   0.24603   0.18883   0.00000  Uiso   1.00
C144   C     0.09683   0.29626   0.11570   0.00000  Uiso   1.00
C145   C     0.06894   0.29606   0.04871   0.00000  Uiso   1.00
C146   C     0.03334   0.22380   0.03124   0.00000  Uiso   1.00
C147   C     0.97103   0.12207   0.97731   0.00000  Uiso   1.00
C148   C     0.10791   0.39628   0.21625   0.00000  Uiso   1.00
C149   C     0.08933   0.48017   0.23379   0.00000  Uiso   1.00
C150   C     0.06305   0.49211   0.30097   0.00000  Uiso   1.00
C151   C     0.01794   0.54566   0.40315   0.00000  Uiso   1.00
C152   C     0.12402   0.24063   0.23384   0.00000  Uiso   1.00
C153   C     0.19151   0.25603   0.21350   0.00000  Uiso   1.00
C154   C     0.24179   0.20837   0.23812   0.00000  Uiso   1.00
C155   C     0.29982   0.23270   0.21317   0.00000  Uiso   1.00
C156   C     0.08941   0.22676   0.16355   0.00000  Uiso   1.00
C157   C     0.05384   0.15448   0.14617   0.00000  Uiso   1.00
C158   C     0.02591   0.15417   0.07917   0.00000  Uiso   1.00
C159   C     0.10050   0.32677   0.26410   0.00000  Uiso   1.00
C160   C     0.07423   0.33858   0.33126   0.00000  Uiso   1.00
C161   C     0.05562   0.42247   0.34890   0.00000  Uiso   1.00
H162   H     0.14344   0.42271   0.10850   0.00000  Uiso   1.00
H163   H     0.26261   0.40374   0.10362   0.00000  Uiso   1.00
H164   H     0.07468   0.34987   0.01170   0.00000  Uiso   1.00
H165   H     0.09507   0.53394   0.19675   0.00000  Uiso   1.00
H166   H     0.39146   0.35204   0.11931   0.00000  Uiso   1.00
H167   H     0.99519   0.23845   0.92548   0.00000  Uiso   1.00
H168   H     0.03818   0.62661   0.31571   0.00000  Uiso   1.00
H169   H     0.11825   0.18651   0.27109   0.00000  Uiso   1.00
H170   H     0.23604   0.15458   0.27515   0.00000  Uiso   1.00
H171   H     0.04811   0.10070   0.18322   0.00000  Uiso   1.00
H172   H     0.06850   0.28478   0.36827   0.00000  Uiso   1.00
H173   H     0.36989   0.14981   0.25852   0.00000  Uiso   1.00
H174   H     0.97362   0.03622   0.06469   0.00000  Uiso   1.00
H175   H     0.01661   0.42438   0.45491   0.00000  Uiso   1.00
O176   O     0.45861   0.23417   0.18863   0.00000  Uiso   1.00
O177   O     0.93871   0.08516   0.93434   0.00000  Uiso   1.00
O178   O     0.99512   0.59441   0.44630   0.00000  Uiso   1.00
N179   N     0.37022   0.30884   0.15152   0.00000  Uiso   1.00
N180   N     0.99974   0.20264   0.97031   0.00000  Uiso   1.00
N181   N     0.03992   0.56553   0.33512   0.00000  Uiso   1.00
N182   N     0.35861   0.20002   0.22643   0.00000  Uiso   1.00
N183   N     0.98813   0.09382   0.04521   0.00000  Uiso   1.00
N184   N     0.02831   0.45671   0.41003   0.00000  Uiso   1.00
C185   C     0.36233   0.86860   0.14575   0.00000  Uiso   1.00
C186   C     0.30107   0.82554   0.16566   0.00000  Uiso   1.00
C187   C     0.24311   0.84995   0.14066   0.00000  Uiso   1.00
C188   C     0.19275   0.80234   0.16523   0.00000  Uiso   1.00
C189   C     0.09652   0.74603   0.18883   0.00000  Uiso   1.00
C190   C     0.40317   0.79626   0.11570   0.00000  Uiso   1.00
C191   C     0.43106   0.79606   0.04871   0.00000  Uiso   1.00
C192   C     0.46666   0.72380   0.03124   0.00000  Uiso   1.00
C193   C     0.52897   0.62207   0.97731   0.00000  Uiso   1.00
C194   C     0.39209   0.89628   0.21625   0.00000  Uiso   1.00
C195   C     0.41067   0.98017   0.23379   0.00000  Uiso   1.00
C196   C     0.43695   0.99211   0.30097   0.00000  Uiso   1.00
C197   C     0.48206   0.04566   0.40315   0.00000  Uiso   1.00
C198   C     0.37598   0.74063   0.23384   0.00000  Uiso   1.00
C199   C     0.30849   0.75603   0.21350   0.00000  Uiso   1.00
C200   C     0.25821   0.70837   0.23812   0.00000  Uiso   1.00
C201   C     0.20018   0.73270   0.21317   0.00000  Uiso   1.00
C202   C     0.41059   0.72676   0.16355   0.00000  Uiso   1.00
C203   C     0.44616   0.65448   0.14617   0.00000  Uiso   1.00
C204   C     0.47409   0.65417   0.07917   0.00000  Uiso   1.00
C205   C     0.39950   0.82677   0.26410   0.00000  Uiso   1.00
C206   C     0.42577   0.83858   0.33126   0.00000  Uiso   1.00
C207   C     0.44438   0.92247   0.34890   0.00000  Uiso   1.00
H208   H     0.35656   0.92271   0.10850   0.00000  Uiso   1.00
H209   H     0.23739   0.90374   0.10362   0.00000  Uiso   1.00
H210   H     0.42532   0.84987   0.01170   0.00000  Uiso   1.00
H211   H     0.40493   0.03394   0.19675   0.00000  Uiso   1.00
H212   H     0.10854   0.85204   0.11931   0.00000  Uiso   1.00
H213   H     0.50481   0.73845   0.92548   0.00000  Uiso   1.00
H214   H     0.46182   0.12661   0.31571   0.00000  Uiso   1.00
H215   H     0.38175   0.68651   0.27109   0.00000  Uiso   1.00
H216   H     0.26396   0.65458   0.27515   0.00000  Uiso   1.00
H217   H     0.45189   0.60070   0.18322   0.00000  Uiso   1.00
H218   H     0.43150   0.78478   0.36827   0.00000  Uiso   1.00
H219   H     0.13011   0.64981   0.25852   0.00000  Uiso   1.00
H220   H     0.52638   0.53622   0.06469   0.00000  Uiso   1.00
H221   H     0.48339   0.92438   0.45491   0.00000  Uiso   1.00
O222   O     0.04139   0.73417   0.18863   0.00000  Uiso   1.00
O223   O     0.56129   0.58516   0.93434   0.00000  Uiso   1.00
O224   O     0.50488   0.09441   0.44630   0.00000  Uiso   1.00
N225   N     0.12978   0.80884   0.15152   0.00000  Uiso   1.00
N226   N     0.50026   0.70264   0.97031   0.00000  Uiso   1.00
N227   N     0.46008   0.06553   0.33512   0.00000  Uiso   1.00
N228   N     0.14139   0.70002   0.22643   0.00000  Uiso   1.00
N229   N     0.51187   0.59382   0.04521   0.00000  Uiso   1.00
N230   N     0.47169   0.95671   0.41003   0.00000  Uiso   1.00
C231   C     0.13767   0.63140   0.64575   0.00000  Uiso   1.00
C232   C     0.19893   0.67446   0.66566   0.00000  Uiso   1.00
C233   C     0.25689   0.65005   0.64066   0.00000  Uiso   1.00
C234   C     0.30725   0.69766   0.66523   0.00000  Uiso   1.00
C235   C     0.40348   0.75397   0.68883   0.00000  Uiso   1.00
C236   C     0.09683   0.70374   0.61570   0.00000  Uiso   1.00
C237   C     0.06894   0.70394   0.54871   0.00000  Uiso   1.00
C238   C     0.03334   0.77620   0.53124   0.00000  Uiso   1.00
C239   C     0.97103   0.87793   0.47731   0.00000  Uiso   1.00
C240   C     0.10791   0.60372   0.71625   0.00000  Uiso   1.00
C241   C     0.08933   0.51983   0.73379   0.00000  Uiso   1.00
C242   C     0.06305   0.50789   0.80097   0.00000  Uiso   1.00
C243   C     0.01794   0.45434   0.90315   0.00000  Uiso   1.00
C244   C     0.12402   0.75937   0.73384   0.00000  Uiso   1.00
C245   C     0.19151   0.74397   0.71350   0.00000  Uiso   1.00
C246   C     0.24179   0.79163   0.73812   0.00000  Uiso   1.00
C247   C     0.29982   0.76730   0.71317   0.00000  Uiso   1.00
C248   C     0.08941   0.77324   0.66355   0.00000  Uiso   1.00
C249   C     0.05384   0.84552   0.64617   0.00000  Uiso   1.00
C250   C     0.02591   0.84583   0.57917   0.00000  Uiso   1.00
C251   C     0.10050   0.67323   0.76410   0.00000  Uiso   1.00
C252   C     0.07423   0.66142   0.83126   0.00000  Uiso   1.00
C253   C     0.05562   0.57753   0.84890   0.00000  Uiso   1.00
H254   H     0.14344   0.57729   0.60850   0.00000  Uiso   1.00
H255   H     0.26261   0.59626   0.60362   0.00000  Uiso   1.00
H256   H     0.07468   0.65013   0.51170   0.00000  Uiso   1.00
H257   H     0.09507   0.46606   0.69675   0.00000  Uiso   1.00
H258   H     0.39146   0.64796   0.61931   0.00000  Uiso   1.00
H259   H     0.99519   0.76155   0.42548   0.00000  Uiso   1.00
H260   H     0.03818   0.37339   0.81571   0.00000  Uiso   1.00
H261   H     0.11825   0.81349   0.77109   0.00000  Uiso   1.00
H262   H     0.23604   0.84542   0.77515   0.00000  Uiso   1.00
H263   H     0.04811   0.89930   0.68322   0.00000  Uiso   1.00
H264   H     0.06850   0.71522   0.86827   0.00000  Uiso   1.00
H265   H     0.36989   0.85019   0.75852   0.00000  Uiso   1.00
H266   H     0.97362   0.96378   0.56469   0.00000  Uiso   1.00
H267   H     0.01661   0.57562   0.95491   0.00000  Uiso   1.00
O268   O     0.45861   0.76583   0.68863   0.00000  Uiso   1.00
O269   O     0.93871   0.91484   0.43434   0.00000  Uiso   1.00
O270   O     0.99512   0.40559   0.94630   0.00000  Uiso   1.00
N271   N     0.37022   0.69116   0.65152   0.00000  Uiso   1.00
N272   N     0.99974   0.79736   0.47031   0.00000  Uiso   1.00
N273   N     0.03992   0.43447   0.83512   0.00000  Uiso   1.00
N274   N     0.35861   0.79998   0.72643   0.00000  Uiso   1.00
N275   N     0.98813   0.90618   0.54521   0.00000  Uiso   1.00
N276   N     0.02831   0.54329   0.91003   0.00000  Uiso   1.00
C277   C     0.63767   0.86860   0.35425   0.00000  Uiso   1.00
C278   C     0.69893   0.82554   0.33434   0.00000  Uiso   1.00
C279   C     0.75689   0.84995   0.35934   0.00000  Uiso   1.00
C280   C     0.80725   0.80234   0.33477   0.00000  Uiso   1.00
C281   C     0.90348   0.74603   0.31117   0.00000  Uiso   1.00
C282   C     0.59683   0.79626   0.38430   0.00000  Uiso   1.00
C283   C     0.56894   0.79606   0.45129   0.00000  Uiso   1.00
C284   C     0.53334   0.72380   0.46876   0.00000  Uiso   1.00
C285   C     0.47103   0.62207   0.52269   0.00000  Uiso   1.00
C286   C     0.60791   0.89628   0.28375   0.00000  Uiso   1.00
C287   C     0.58933   0.98017   0.26621   0.00000  Uiso   1.00
C288   C     0.56305   0.99211   0.19903   0.00000  Uiso   1.00
C289   C     0.51794   0.04566   0.09685   0.00000  Uiso   1.00
C290   C     0.62402   0.74063   0.26616   0.00000  Uiso   1.00
C291   C     0.69151   0.75603   0.28650   0.00000  Uiso   1.00
C292   C     0.74179   0.70837   0.26188   0.00000  Uiso   1.00
C293   C     0.79982   0.73270   0.28683   0.00000  Uiso   1.00
C294   C     0.58941   0.72676   0.33645   0.00000  Uiso   1.00
C295   C     0.55384   0.65448   0.35383   0.00000  Uiso   1.00
C296   C     0.52591   0.65417   0.42083   0.00000  Uiso   1.00
C297   C     0.60050   0.82677   0.23590   0.00000  Uiso   1.00
C298   C     0.57423   0.83858   0.16874   0.00000  Uiso   1.00
C299   C     0.55562   0.92247   0.15110   0.00000  Uiso   1.00
H300   H     0.64344   0.92271   0.39150   0.00000  Uiso   1.00
H301   H     0.76261   0.90374   0.39638   0.00000  Uiso   1.00
H302   H     0.57468   0.84987   0.48830   0.00000  Uiso   1.00
H303   H     0.59507   0.03394   0.30325   0.00000  Uiso   1.00
H304   H     0.89146   0.85204   0.38069   0.00000  Uiso   1.00
H305   H     0.49519   0.73845   0.57452   0.00000  Uiso   1.00
H306   H     0.53818   0.12661   0.18429   0.00000  Uiso   1.00
H307   H     0.61825   0.68651   0.22891   0.00000  Uiso   1.00
H308   H     0.73604   0.65458   0.22485   0.00000  Uiso   1.00
H309   H     0.54811   0.60070   0.31678   0.00000  Uiso   1.00
H310   H     0.56850   0.78478   0.13173   0.00000  Uiso   1.00
H311   H     0.86989   0.64981   0.24148   0.00000  Uiso   1.00
H312   H     0.47362   0.53622   0.43531   0.00000  Uiso   1.00
H313   H     0.51661   0.92438   0.04509   0.00000  Uiso   1.00
O314   O     0.95861   0.73417   0.31137   0.00000  Uiso   1.00
O315   O     0.43871   0.58516   0.56566   0.00000  Uiso   1.00
O316   O     0.49512   0.09441   0.05370   0.00000  Uiso   1.00
N317   N     0.87022   0.80884   0.34848   0.00000  Uiso   1.00
N318   N     0.49974   0.70264   0.52969   0.00000  Uiso   1.00
N319   N     0.53992   0.06553   0.16488   0.00000  Uiso   1.00
N320   N     0.85861   0.70002   0.27357   0.00000  Uiso   1.00
N321   N     0.48813   0.59382   0.45479   0.00000  Uiso   1.00
N322   N     0.52831   0.95671   0.08997   0.00000  Uiso   1.00
C323   C     0.86233   0.63140   0.85425   0.00000  Uiso   1.00
C324   C     0.80107   0.67446   0.83434   0.00000  Uiso   1.00
C325   C     0.74311   0.65005   0.85934   0.00000  Uiso   1.00
C326   C     0.69275   0.69766   0.83477   0.00000  Uiso   1.00
C327   C     0.59652   0.75397   0.81117   0.00000  Uiso   1.00
C328   C     0.90317   0.70374   0.88430   0.00000  Uiso   1.00
C329   C     0.93106   0.70394   0.95129   0.00000  Uiso   1.00
C330   C     0.96666   0.77620   0.96876   0.00000  Uiso   1.00
C331   C     0.02897   0.87793   0.02269   0.00000  Uiso   1.00
C332   C     0.89209   0.60372   0.78375   0.00000  Uiso   1.00
C333   C     0.91067   0.51983   0.76621   0.00000  Uiso   1.00
C334   C     0.93695   0.50789   0.69903   0.00000  Uiso   1.00
C335   C     0.98206   0.45434   0.59685   0.00000  Uiso   1.00
C336   C     0.87598   0.75937   0.76616   0.00000  Uiso   1.00
C337   C     0.80849   0.74397   0.78650   0.00000  Uiso   1.00
C338   C     0.75821   0.79163   0.76188   0.00000  Uiso   1.00
C339   C     0.70018   0.76730   0.78683   0.00000  Uiso   1.00
C340   C     0.91059   0.77324   0.83645   0.00000  Uiso   1.00
C341   C     0.94616   0.84552   0.85383   0.00000  Uiso   1.00
C342   C     0.97409   0.84583   0.92083   0.00000  Uiso   1.00
C343   C     0.89950   0.67323   0.73590   0.00000  Uiso   1.00
C344   C     0.92577   0.66142   0.66874   0.00000  Uiso   1.00
C345   C     0.94438   0.57753   0.65110   0.00000  Uiso   1.00
H346   H     0.85656   0.57729   0.89150   0.00000  Uiso   1.00
H347   H     0.73739   0.59626   0.89638   0.00000  Uiso   1.00
H348   H     0.92532   0.65013   0.98830   0.00000  Uiso   1.00
H349   H     0.90493   0.46606   0.80325   0.00000  Uiso   1.00
H350   H     0.60854   0.64796   0.88069   0.00000  Uiso   1.00
H351   H     0.00481   0.76155   0.07452   0.00000  Uiso   1.00
H352   H     0.96182   0.37339   0.68429   0.00000  Uiso   1.00
H353   H     0.88175   0.81349   0.72891   0.00000  Uiso   1.00
H354   H     0.76396   0.84542   0.72485   0.00000  Uiso   1.00
H355   H     0.95189   0.89930   0.81678   0.00000  Uiso   1.00
H356   H     0.93150   0.71522   0.63173   0.00000  Uiso   1.00
H357   H     0.63011   0.85019   0.74148   0.00000  Uiso   1.00
H358   H     0.02638   0.96378   0.93531   0.00000  Uiso   1.00
H359   H     0.98339   0.57562   0.54509   0.00000  Uiso   1.00
O360   O     0.54139   0.76583   0.81137   0.00000  Uiso   1.00
O361   O     0.06129   0.91484   0.06566   0.00000  Uiso   1.00
O362   O     0.00488   0.40559   0.55370   0.00000  Uiso   1.00
N363   N     0.62978   0.69116   0.84848   0.00000  Uiso   1.00
N364   N     0.00026   0.79736   0.02969   0.00000  Uiso   1.00
N365   N     0.96008   0.43447   0.66488   0.00000  Uiso   1.00
N366   N     0.64139   0.79998   0.77357   0.00000  Uiso   1.00
N367   N     0.01187   0.90618   0.95479   0.00000  Uiso   1.00
N368   N     0.97169   0.54329   0.58997   0.00000  Uiso   1.00
