data_job_07046
_audit_creation_date              2018-12-19
_audit_creation_method            'Materials Studio'
_symmetry_space_group_name_H-M    'P1'
_symmetry_Int_Tables_number       1
_symmetry_cell_setting            triclinic
loop_
_symmetry_equiv_pos_as_xyz
  x,y,z
_cell_length_a                    21.3285
_cell_length_b                    21.8293
_cell_length_c                    23.1190
_cell_angle_alpha                 75.8357
_cell_angle_beta                  64.6636
_cell_angle_gamma                 83.4645
loop_
_atom_site_label
_atom_site_type_symbol
_atom_site_fract_x
_atom_site_fract_y
_atom_site_fract_z
_atom_site_U_iso_or_equiv
_atom_site_adp_type
_atom_site_occupancy
C1     C     0.76441   0.08298   0.65040   0.00000  Uiso   1.00
C2     C     0.81608   0.05306   0.59486   0.00000  Uiso   1.00
C3     C     0.88763   0.05144   0.57367   0.00000  Uiso   1.00
C4     C     0.92586   0.02185   0.52212   0.00000  Uiso   1.00
C5     C     0.01100   0.97953   0.44031   0.00000  Uiso   1.00
C6     C     0.72251   0.13096   0.62074   0.00000  Uiso   1.00
C7     C     0.71538   0.19482   0.62132   0.00000  Uiso   1.00
C8     C     0.67483   0.23080   0.59156   0.00000  Uiso   1.00
C9     C     0.61466   0.30939   0.54997   0.00000  Uiso   1.00
C10    C     0.71399   0.03090   0.69870   0.00000  Uiso   1.00
C11    C     0.69967   0.01065   0.76482   0.00000  Uiso   1.00
C12    C     0.65194   0.96239   0.80070   0.00000  Uiso   1.00
C13    C     0.57853   0.88563   0.88014   0.00000  Uiso   1.00
C14    C     0.70510   0.03331   0.59655   0.00000  Uiso   1.00
C15    C     0.78386   0.02608   0.56561   0.00000  Uiso   1.00
C16    C     0.82200   0.99648   0.51408   0.00000  Uiso   1.00
C17    C     0.89359   0.99482   0.49282   0.00000  Uiso   1.00
C18    C     0.69030   0.10398   0.59149   0.00000  Uiso   1.00
C19    C     0.64975   0.13986   0.56173   0.00000  Uiso   1.00
C20    C     0.64256   0.20377   0.56226   0.00000  Uiso   1.00
C21    C     0.68177   0.00392   0.66945   0.00000  Uiso   1.00
C22    C     0.63405   0.95569   0.70523   0.00000  Uiso   1.00
C23    C     0.61966   0.93536   0.77140   0.00000  Uiso   1.00
H24    H     0.78949   0.10399   0.67318   0.00000  Uiso   1.00
H25    H     0.91254   0.07234   0.59631   0.00000  Uiso   1.00
H26    H     0.74031   0.21569   0.64396   0.00000  Uiso   1.00
H27    H     0.72461   0.03154   0.78744   0.00000  Uiso   1.00
H28    H     0.03475   0.02536   0.49818   0.00000  Uiso   1.00
H29    H     0.67158   0.32762   0.59867   0.00000  Uiso   1.00
H30    H     0.63847   0.93931   0.90122   0.00000  Uiso   1.00
H31    H     0.68001   0.01230   0.57378   0.00000  Uiso   1.00
H32    H     0.79706   0.97561   0.49146   0.00000  Uiso   1.00
H33    H     0.62483   0.11897   0.53910   0.00000  Uiso   1.00
H34    H     0.60913   0.93482   0.68258   0.00000  Uiso   1.00
H35    H     0.94102   0.94685   0.41307   0.00000  Uiso   1.00
H36    H     0.57784   0.24912   0.51356   0.00000  Uiso   1.00
H37    H     0.54474   0.86081   0.81611   0.00000  Uiso   1.00
O38    O     0.06686   0.96364   0.40326   0.00000  Uiso   1.00
O39    O     0.59038   0.36020   0.53510   0.00000  Uiso   1.00
O40    O     0.54695   0.85074   0.93204   0.00000  Uiso   1.00
N41    N     0.99663   0.01191   0.48946   0.00000  Uiso   1.00
N42    N     0.65709   0.29451   0.58340   0.00000  Uiso   1.00
N43    N     0.62613   0.93148   0.86626   0.00000  Uiso   1.00
N44    N     0.94619   0.96966   0.44366   0.00000  Uiso   1.00
N45    N     0.60666   0.25227   0.53760   0.00000  Uiso   1.00
N46    N     0.57569   0.88924   0.82047   0.00000  Uiso   1.00
C47    C     0.35664   0.50917   0.08355   0.00000  Uiso   1.00
C48    C     0.43201   0.52019   0.03432   0.00000  Uiso   1.00
C49    C     0.48658   0.47781   0.03054   0.00000  Uiso   1.00
C50    C     0.55168   0.49677   0.98206   0.00000  Uiso   1.00
C51    C     0.66718   0.50489   0.91221   0.00000  Uiso   1.00
C52    C     0.33640   0.56367   0.11886   0.00000  Uiso   1.00
C53    C     0.31057   0.55784   0.18617   0.00000  Uiso   1.00
C54    C     0.29518   0.61341   0.20885   0.00000  Uiso   1.00
C55    C     0.26220   0.68903   0.27025   0.00000  Uiso   1.00
C56    C     0.31424   0.51839   0.04306   0.00000  Uiso   1.00
C57    C     0.26977   0.47448   0.04663   0.00000  Uiso   1.00
C58    C     0.23571   0.49193   0.00550   0.00000  Uiso   1.00
C59    C     0.16833   0.49724   0.94921   0.00000  Uiso   1.00
C60    C     0.37521   0.61824   0.00416   0.00000  Uiso   1.00
C61    C     0.44209   0.57944   0.99121   0.00000  Uiso   1.00
C62    C     0.50713   0.59847   0.94271   0.00000  Uiso   1.00
C63    C     0.56179   0.55612   0.93886   0.00000  Uiso   1.00
C64    C     0.34649   0.62291   0.07575   0.00000  Uiso   1.00
C65    C     0.33113   0.67851   0.09834   0.00000  Uiso   1.00
C66    C     0.30529   0.67276   0.16565   0.00000  Uiso   1.00
C67    C     0.32433   0.57763   0.99994   0.00000  Uiso   1.00
C68    C     0.29033   0.59515   0.95880   0.00000  Uiso   1.00
C69    C     0.24582   0.55128   0.96231   0.00000  Uiso   1.00
H70    H     0.34878   0.46305   0.11712   0.00000  Uiso   1.00
H71    H     0.47875   0.43197   0.06393   0.00000  Uiso   1.00
H72    H     0.30276   0.51199   0.21952   0.00000  Uiso   1.00
H73    H     0.26197   0.42864   0.08001   0.00000  Uiso   1.00
H74    H     0.62730   0.42364   0.98595   0.00000  Uiso   1.00
H75    H     0.25620   0.59237   0.31404   0.00000  Uiso   1.00
H76    H     0.17019   0.41662   0.01984   0.00000  Uiso   1.00
H77    H     0.38307   0.66436   0.97059   0.00000  Uiso   1.00
H78    H     0.51492   0.64432   0.90935   0.00000  Uiso   1.00
H79    H     0.33894   0.72434   0.06495   0.00000  Uiso   1.00
H80    H     0.29815   0.64100   0.92544   0.00000  Uiso   1.00
H81    H     0.65666   0.59599   0.86049   0.00000  Uiso   1.00
H82    H     0.28556   0.76472   0.18858   0.00000  Uiso   1.00
H83    H     0.19955   0.58898   0.89439   0.00000  Uiso   1.00
O84    O     0.72810   0.49301   0.88559   0.00000  Uiso   1.00
O85    O     0.24123   0.71437   0.31603   0.00000  Uiso   1.00
O86    O     0.12838   0.48380   0.93006   0.00000  Uiso   1.00
N87    N     0.61611   0.46695   0.96482   0.00000  Uiso   1.00
N88    N     0.26917   0.62470   0.27156   0.00000  Uiso   1.00
N89    N     0.18874   0.46039   0.99653   0.00000  Uiso   1.00
N90    N     0.63191   0.55969   0.89731   0.00000  Uiso   1.00
N91    N     0.28497   0.71744   0.20405   0.00000  Uiso   1.00
N92    N     0.20454   0.55314   0.92902   0.00000  Uiso   1.00
C93    C     0.39596   0.66443   0.50769   0.00000  Uiso   1.00
C94    C     0.45400   0.61516   0.49163   0.00000  Uiso   1.00
C95    C     0.51873   0.62461   0.43928   0.00000  Uiso   1.00
C96    C     0.56459   0.57360   0.43303   0.00000  Uiso   1.00
C97    C     0.65747   0.50597   0.40130   0.00000  Uiso   1.00
C98    C     0.33302   0.63554   0.50975   0.00000  Uiso   1.00
C99    C     0.29604   0.66212   0.47264   0.00000  Uiso   1.00
C100   C     0.24006   0.62826   0.48166   0.00000  Uiso   1.00
C101   C     0.14510   0.59229   0.47809   0.00000  Uiso   1.00
C102   C     0.37780   0.66898   0.57788   0.00000  Uiso   1.00
C103   C     0.37845   0.72369   0.59806   0.00000  Uiso   1.00
C104   C     0.36015   0.71799   0.66444   0.00000  Uiso   1.00
C105   C     0.33471   0.73394   0.76666   0.00000  Uiso   1.00
C106   C     0.36230   0.55704   0.58968   0.00000  Uiso   1.00
C107   C     0.43571   0.55683   0.53616   0.00000  Uiso   1.00
C108   C     0.48149   0.50579   0.52999   0.00000  Uiso   1.00
C109   C     0.54628   0.51516   0.47765   0.00000  Uiso   1.00
C110   C     0.31474   0.57721   0.55428   0.00000  Uiso   1.00
C111   C     0.25880   0.54330   0.56335   0.00000  Uiso   1.00
C112   C     0.22175   0.56982   0.52627   0.00000  Uiso   1.00
C113   C     0.35952   0.61065   0.62241   0.00000  Uiso   1.00
C114   C     0.34121   0.60487   0.68877   0.00000  Uiso   1.00
C115   C     0.34184   0.65955   0.70906   0.00000  Uiso   1.00
H116   H     0.41019   0.70984   0.47302   0.00000  Uiso   1.00
H117   H     0.53285   0.66976   0.40483   0.00000  Uiso   1.00
H118   H     0.31020   0.70726   0.43819   0.00000  Uiso   1.00
H119   H     0.39260   0.76882   0.56359   0.00000  Uiso   1.00
H120   H     0.66078   0.59959   0.34885   0.00000  Uiso   1.00
H121   H     0.19128   0.67868   0.41921   0.00000  Uiso   1.00
H122   H     0.36503   0.80849   0.68364   0.00000  Uiso   1.00
H123   H     0.34807   0.51162   0.62435   0.00000  Uiso   1.00
H124   H     0.46733   0.46066   0.56446   0.00000  Uiso   1.00
H125   H     0.24467   0.49817   0.59782   0.00000  Uiso   1.00
H126   H     0.32707   0.55972   0.72322   0.00000  Uiso   1.00
H127   H     0.60759   0.42987   0.47841   0.00000  Uiso   1.00
H128   H     0.13809   0.50897   0.54877   0.00000  Uiso   1.00
H129   H     0.31185   0.63878   0.81320   0.00000  Uiso   1.00
O130   O     0.71375   0.48478   0.37149   0.00000  Uiso   1.00
O131   O     0.09777   0.58855   0.46381   0.00000  Uiso   1.00
O132   O     0.32574   0.75885   0.81073   0.00000  Uiso   1.00
N133   N     0.63190   0.56664   0.38756   0.00000  Uiso   1.00
N134   N     0.19295   0.64059   0.45334   0.00000  Uiso   1.00
N135   N     0.35538   0.76195   0.70057   0.00000  Uiso   1.00
N136   N     0.60328   0.47532   0.45728   0.00000  Uiso   1.00
N137   N     0.16433   0.54927   0.52306   0.00000  Uiso   1.00
N138   N     0.32676   0.67063   0.77028   0.00000  Uiso   1.00
C139   C     0.28483   0.12816   0.72406   0.00000  Uiso   1.00
C140   C     0.30887   0.06132   0.74516   0.00000  Uiso   1.00
C141   C     0.36792   0.04553   0.75688   0.00000  Uiso   1.00
C142   C     0.38087   0.98168   0.77579   0.00000  Uiso   1.00
C143   C     0.42495   0.88494   0.80753   0.00000  Uiso   1.00
C144   C     0.21124   0.13476   0.77518   0.00000  Uiso   1.00
C145   C     0.18820   0.18072   0.81214   0.00000  Uiso   1.00
C146   C     0.11896   0.17869   0.85631   0.00000  Uiso   1.00
C147   C     0.01145   0.19599   0.93463   0.00000  Uiso   1.00
C148   C     0.27818   0.12994   0.66057   0.00000  Uiso   1.00
C149   C     0.31142   0.17187   0.60115   0.00000  Uiso   1.00
C150   C     0.29853   0.16580   0.54883   0.00000  Uiso   1.00
C151   C     0.29496   0.17563   0.44919   0.00000  Uiso   1.00
C152   C     0.20283   0.04284   0.73679   0.00000  Uiso   1.00
C153   C     0.26433   0.01497   0.75208   0.00000  Uiso   1.00
C154   C     0.27719   0.95113   0.77097   0.00000  Uiso   1.00
C155   C     0.33625   0.93525   0.78271   0.00000  Uiso   1.00
C156   C     0.16670   0.08841   0.78210   0.00000  Uiso   1.00
C157   C     0.09747   0.08632   0.82622   0.00000  Uiso   1.00
C158   C     0.07434   0.13226   0.86324   0.00000  Uiso   1.00
C159   C     0.23364   0.08360   0.66748   0.00000  Uiso   1.00
C160   C     0.22069   0.07746   0.61524   0.00000  Uiso   1.00
C161   C     0.25390   0.11937   0.55576   0.00000  Uiso   1.00
H162   H     0.31950   0.16425   0.71868   0.00000  Uiso   1.00
H163   H     0.40237   0.08142   0.75153   0.00000  Uiso   1.00
H164   H     0.22268   0.21658   0.80677   0.00000  Uiso   1.00
H165   H     0.34588   0.20773   0.59582   0.00000  Uiso   1.00
H166   H     0.47459   0.96914   0.79102   0.00000  Uiso   1.00
H167   H     0.09569   0.25417   0.90749   0.00000  Uiso   1.00
H168   H     0.35549   0.23550   0.46266   0.00000  Uiso   1.00
H169   H     0.16815   0.00675   0.74218   0.00000  Uiso   1.00
H170   H     0.24271   0.91528   0.77632   0.00000  Uiso   1.00
H171   H     0.06302   0.05045   0.83156   0.00000  Uiso   1.00
H172   H     0.18622   0.04159   0.62061   0.00000  Uiso   1.00
H173   H     0.34500   0.83430   0.81115   0.00000  Uiso   1.00
H174   H     0.96610   0.11933   0.92761   0.00000  Uiso   1.00
H175   H     0.22590   0.10066   0.48278   0.00000  Uiso   1.00
O176   O     0.46157   0.84439   0.82314   0.00000  Uiso   1.00
O177   O     0.96447   0.21833   0.97592   0.00000  Uiso   1.00
O178   O     0.30531   0.19384   0.39232   0.00000  Uiso   1.00
N179   N     0.43387   0.94996   0.79106   0.00000  Uiso   1.00
N180   N     0.07962   0.21643   0.89996   0.00000  Uiso   1.00
N181   N     0.32249   0.19900   0.48408   0.00000  Uiso   1.00
N182   N     0.36414   0.87740   0.80189   0.00000  Uiso   1.00
N183   N     0.00989   0.14388   0.91078   0.00000  Uiso   1.00
N184   N     0.25276   0.12644   0.49491   0.00000  Uiso   1.00
C185   C     0.81048   0.43957   0.98506   0.00000  Uiso   1.00
C186   C     0.85866   0.41945   0.01981   0.00000  Uiso   1.00
C187   C     0.93061   0.41903   0.98960   0.00000  Uiso   1.00
C188   C     0.96527   0.39901   0.03001   0.00000  Uiso   1.00
C189   C     0.04556   0.37067   0.07361   0.00000  Uiso   1.00
C190   C     0.76410   0.49185   0.01583   0.00000  Uiso   1.00
C191   C     0.75655   0.55229   0.98228   0.00000  Uiso   1.00
C192   C     0.71161   0.59322   0.01934   0.00000  Uiso   1.00
C193   C     0.64506   0.67727   0.05676   0.00000  Uiso   1.00
C194   C     0.76318   0.38357   0.00550   0.00000  Uiso   1.00
C195   C     0.75484   0.35298   0.96326   0.00000  Uiso   1.00
C196   C     0.70911   0.30275   0.99162   0.00000  Uiso   1.00
C197   C     0.64114   0.21868   0.01301   0.00000  Uiso   1.00
C198   C     0.74407   0.40478   0.11053   0.00000  Uiso   1.00
C199   C     0.82258   0.40056   0.08796   0.00000  Uiso   1.00
C200   C     0.85714   0.38053   0.12842   0.00000  Uiso   1.00
C201   C     0.92914   0.38007   0.09828   0.00000  Uiso   1.00
C202   C     0.72803   0.47296   0.08398   0.00000  Uiso   1.00
C203   C     0.68308   0.51380   0.12110   0.00000  Uiso   1.00
C204   C     0.67547   0.57429   0.08761   0.00000  Uiso   1.00
C205   C     0.72711   0.36467   0.07365   0.00000  Uiso   1.00
C206   C     0.68138   0.31449   0.10208   0.00000  Uiso   1.00
C207   C     0.67298   0.28382   0.05990   0.00000  Uiso   1.00
H208   H     0.83856   0.45429   0.93200   0.00000  Uiso   1.00
H209   H     0.95851   0.43366   0.93686   0.00000  Uiso   1.00
H210   H     0.78447   0.56690   0.92954   0.00000  Uiso   1.00
H211   H     0.78277   0.36762   0.91053   0.00000  Uiso   1.00
H212   H     0.07559   0.40248   0.97231   0.00000  Uiso   1.00
H213   H     0.70859   0.68342   0.95687   0.00000  Uiso   1.00
H214   H     0.70500   0.26319   0.91678   0.00000  Uiso   1.00
H215   H     0.71599   0.39007   0.16359   0.00000  Uiso   1.00
H216   H     0.82922   0.36591   0.18116   0.00000  Uiso   1.00
H217   H     0.65518   0.49916   0.17384   0.00000  Uiso   1.00
H218   H     0.65347   0.29988   0.15482   0.00000  Uiso   1.00
H219   H     0.97065   0.34749   0.17059   0.00000  Uiso   1.00
H220   H     0.60365   0.62844   0.15515   0.00000  Uiso   1.00
H221   H     0.60006   0.20821   0.11506   0.00000  Uiso   1.00
O222   O     0.09981   0.36028   0.07883   0.00000  Uiso   1.00
O223   O     0.61832   0.72886   0.05857   0.00000  Uiso   1.00
O224   O     0.61361   0.17753   0.00597   0.00000  Uiso   1.00
N225   N     0.03535   0.39284   0.01656   0.00000  Uiso   1.00
N226   N     0.69224   0.65551   0.00213   0.00000  Uiso   1.00
N227   N     0.68887   0.26264   0.96464   0.00000  Uiso   1.00
N228   N     0.97889   0.36325   0.12326   0.00000  Uiso   1.00
N229   N     0.63578   0.62592   0.10882   0.00000  Uiso   1.00
N230   N     0.63240   0.23306   0.07134   0.00000  Uiso   1.00
C231   C     0.27848   0.06724   0.12239   0.00000  Uiso   1.00
C232   C     0.35732   0.06225   0.08863   0.00000  Uiso   1.00
C233   C     0.39474   0.01077   0.06479   0.00000  Uiso   1.00
C234   C     0.46653   0.01544   0.03550   0.00000  Uiso   1.00
C235   C     0.58392   0.99945   0.98385   0.00000  Uiso   1.00
C236   C     0.25806   0.12651   0.08305   0.00000  Uiso   1.00
C237   C     0.21202   0.12906   0.05453   0.00000  Uiso   1.00
C238   C     0.20025   0.18782   0.02055   0.00000  Uiso   1.00
C239   C     0.16349   0.27161   0.96028   0.00000  Uiso   1.00
C240   C     0.26182   0.08137   0.18890   0.00000  Uiso   1.00
C241   C     0.21892   0.04599   0.24937   0.00000  Uiso   1.00
C242   C     0.21029   0.06676   0.30452   0.00000  Uiso   1.00
C243   C     0.17936   0.08046   0.40858   0.00000  Uiso   1.00
C244   C     0.33943   0.16706   0.11279   0.00000  Uiso   1.00
C245   C     0.39042   0.11646   0.08341   0.00000  Uiso   1.00
C246   C     0.46217   0.12121   0.05416   0.00000  Uiso   1.00
C247   C     0.49970   0.06975   0.03028   0.00000  Uiso   1.00
C248   C     0.29117   0.18072   0.07783   0.00000  Uiso   1.00
C249   C     0.27945   0.23950   0.04390   0.00000  Uiso   1.00
C250   C     0.23341   0.24214   0.01533   0.00000  Uiso   1.00
C251   C     0.29492   0.13559   0.18368   0.00000  Uiso   1.00
C252   C     0.28635   0.15642   0.23874   0.00000  Uiso   1.00
C253   C     0.24345   0.12107   0.29929   0.00000  Uiso   1.00
H254   H     0.25271   0.02503   0.12645   0.00000  Uiso   1.00
H255   H     0.36911   0.96883   0.06883   0.00000  Uiso   1.00
H256   H     0.18641   0.08710   0.05858   0.00000  Uiso   1.00
H257   H     0.19331   0.00403   0.25339   0.00000  Uiso   1.00
H258   H     0.51276   0.93043   0.00262   0.00000  Uiso   1.00
H259   H     0.12751   0.17982   0.98102   0.00000  Uiso   1.00
H260   H     0.14206   0.00466   0.39183   0.00000  Uiso   1.00
H261   H     0.36520   0.20927   0.10872   0.00000  Uiso   1.00
H262   H     0.48778   0.16317   0.05013   0.00000  Uiso   1.00
H263   H     0.30508   0.28144   0.03988   0.00000  Uiso   1.00
H264   H     0.31198   0.19838   0.23469   0.00000  Uiso   1.00
H265   H     0.60907   0.08817   0.98745   0.00000  Uiso   1.00
H266   H     0.22382   0.33756   0.96585   0.00000  Uiso   1.00
H267   H     0.23837   0.16239   0.37665   0.00000  Uiso   1.00
O268   O     0.63952   0.97566   0.95679   0.00000  Uiso   1.00
O269   O     0.13408   0.30284   0.92847   0.00000  Uiso   1.00
O270   O     0.15317   0.07304   0.46743   0.00000  Uiso   1.00
N271   N     0.51860   0.97387   0.00710   0.00000  Uiso   1.00
N272   N     0.15843   0.20704   0.98690   0.00000  Uiso   1.00
N273   N     0.17201   0.04328   0.37097   0.00000  Uiso   1.00
N274   N     0.57043   0.05875   0.99894   0.00000  Uiso   1.00
N275   N     0.21026   0.29191   0.97873   0.00000  Uiso   1.00
N276   N     0.22384   0.12816   0.36280   0.00000  Uiso   1.00
C277   C     0.33467   0.89310   0.30756   0.00000  Uiso   1.00
C278   C     0.28245   0.88424   0.37902   0.00000  Uiso   1.00
C279   C     0.21080   0.88685   0.40110   0.00000  Uiso   1.00
C280   C     0.17204   0.87750   0.46839   0.00000  Uiso   1.00
C281   C     0.08611   0.86546   0.57273   0.00000  Uiso   1.00
C282   C     0.38008   0.83367   0.30304   0.00000  Uiso   1.00
C283   C     0.39052   0.79378   0.26122   0.00000  Uiso   1.00
C284   C     0.43395   0.74186   0.26454   0.00000  Uiso   1.00
C285   C     0.49963   0.65134   0.25088   0.00000  Uiso   1.00
C286   C     0.38162   0.94680   0.29561   0.00000  Uiso   1.00
C287   C     0.39338   0.00202   0.24753   0.00000  Uiso   1.00
C288   C     0.43813   0.04534   0.24458   0.00000  Uiso   1.00
C289   C     0.50621   0.13048   0.21937   0.00000  Uiso   1.00
C290   C     0.39324   0.87182   0.38780   0.00000  Uiso   1.00
C291   C     0.31426   0.87268   0.42261   0.00000  Uiso   1.00
C292   C     0.27560   0.86332   0.48989   0.00000  Uiso   1.00
C293   C     0.20391   0.86592   0.51206   0.00000  Uiso   1.00
C294   C     0.41189   0.82211   0.34662   0.00000  Uiso   1.00
C295   C     0.45532   0.77024   0.35000   0.00000  Uiso   1.00
C296   C     0.46582   0.73028   0.30821   0.00000  Uiso   1.00
C297   C     0.41344   0.93524   0.33919   0.00000  Uiso   1.00
C298   C     0.45818   0.97848   0.33631   0.00000  Uiso   1.00
C299   C     0.47000   0.03376   0.28824   0.00000  Uiso   1.00
H300   H     0.30991   0.90209   0.27362   0.00000  Uiso   1.00
H301   H     0.18620   0.89579   0.36736   0.00000  Uiso   1.00
H302   H     0.36590   0.80274   0.22749   0.00000  Uiso   1.00
H303   H     0.36875   0.01095   0.21381   0.00000  Uiso   1.00
H304   H     0.06308   0.88369   0.49050   0.00000  Uiso   1.00
H305   H     0.44200   0.68749   0.19557   0.00000  Uiso   1.00
H306   H     0.44802   0.12654   0.16671   0.00000  Uiso   1.00
H307   H     0.41801   0.86282   0.42174   0.00000  Uiso   1.00
H308   H     0.30023   0.85438   0.52360   0.00000  Uiso   1.00
H309   H     0.47993   0.76132   0.38374   0.00000  Uiso   1.00
H310   H     0.48279   0.96953   0.37005   0.00000  Uiso   1.00
H311   H     0.15563   0.85007   0.61732   0.00000  Uiso   1.00
H312   H     0.53455   0.65387   0.32238   0.00000  Uiso   1.00
H313   H     0.54058   0.09292   0.29352   0.00000  Uiso   1.00
O314   O     0.02993   0.86201   0.61825   0.00000  Uiso   1.00
O315   O     0.52706   0.60461   0.23130   0.00000  Uiso   1.00
O316   O     0.53497   0.18063   0.19344   0.00000  Uiso   1.00
N317   N     0.10103   0.87695   0.50637   0.00000  Uiso   1.00
N318   N     0.45528   0.69351   0.23063   0.00000  Uiso   1.00
N319   N     0.46093   0.10398   0.20364   0.00000  Uiso   1.00
N320   N     0.15083   0.85886   0.57460   0.00000  Uiso   1.00
N321   N     0.50508   0.67542   0.29887   0.00000  Uiso   1.00
N322   N     0.51073   0.08589   0.27187   0.00000  Uiso   1.00
C323   C     0.84602   0.17738   0.84917   0.00000  Uiso   1.00
C324   C     0.78454   0.19052   0.83053   0.00000  Uiso   1.00
C325   C     0.76929   0.24780   0.79674   0.00000  Uiso   1.00
C326   C     0.71071   0.25019   0.78443   0.00000  Uiso   1.00
C327   C     0.62162   0.27865   0.75229   0.00000  Uiso   1.00
C328   C     0.88541   0.12174   0.81980   0.00000  Uiso   1.00
C329   C     0.95499   0.12119   0.77702   0.00000  Uiso   1.00
C330   C     0.98132   0.06567   0.75568   0.00000  Uiso   1.00
C331   C     0.04886   0.98733   0.70694   0.00000  Uiso   1.00
C332   C     0.81539   0.15299   0.92336   0.00000  Uiso   1.00
C333   C     0.82609   0.17871   0.96764   0.00000  Uiso   1.00
C334   C     0.79348   0.14950   0.03350   0.00000  Uiso   1.00
C335   C     0.75228   0.11969   0.14554   0.00000  Uiso   1.00
C336   C     0.76908   0.07977   0.88737   0.00000  Uiso   1.00
C337   C     0.74275   0.13750   0.85127   0.00000  Uiso   1.00
C338   C     0.68417   0.13981   0.83901   0.00000  Uiso   1.00
C339   C     0.66884   0.19708   0.80522   0.00000  Uiso   1.00
C340   C     0.84363   0.06872   0.84055   0.00000  Uiso   1.00
C341   C     0.86986   0.01319   0.81928   0.00000  Uiso   1.00
C342   C     0.93946   0.01256   0.77647   0.00000  Uiso   1.00
C343   C     0.77359   0.09998   0.94411   0.00000  Uiso   1.00
C344   C     0.74096   0.07072   0.00991   0.00000  Uiso   1.00
C345   C     0.75161   0.09639   0.05428   0.00000  Uiso   1.00
H346   H     0.87856   0.21866   0.83302   0.00000  Uiso   1.00
H347   H     0.80165   0.28882   0.78069   0.00000  Uiso   1.00
H348   H     0.98732   0.16222   0.76097   0.00000  Uiso   1.00
H349   H     0.85844   0.21974   0.95157   0.00000  Uiso   1.00
H350   H     0.69797   0.34322   0.73181   0.00000  Uiso   1.00
H351   H     0.08946   0.07627   0.69025   0.00000  Uiso   1.00
H352   H     0.81770   0.19756   0.09216   0.00000  Uiso   1.00
H353   H     0.73654   0.03849   0.90353   0.00000  Uiso   1.00
H354   H     0.65184   0.09877   0.85507   0.00000  Uiso   1.00
H355   H     0.83751   0.97217   0.83535   0.00000  Uiso   1.00
H356   H     0.70862   0.02969   0.02595   0.00000  Uiso   1.00
H357   H     0.57638   0.18897   0.79217   0.00000  Uiso   1.00
H358   H     0.96787   0.92202   0.75062   0.00000  Uiso   1.00
H359   H     0.69610   0.04331   0.15253   0.00000  Uiso   1.00
O360   O     0.58403   0.30899   0.72882   0.00000  Uiso   1.00
O361   O     0.09765   0.95876   0.67431   0.00000  Uiso   1.00
O362   O     0.74110   0.11789   0.20161   0.00000  Uiso   1.00
N363   N     0.68097   0.29865   0.75267   0.00000  Uiso   1.00
N364   N     0.04699   0.04907   0.71381   0.00000  Uiso   1.00
N365   N     0.79292   0.16245   0.08956   0.00000  Uiso   1.00
N366   N     0.61554   0.21565   0.78516   0.00000  Uiso   1.00
N367   N     0.98156   0.96607   0.74630   0.00000  Uiso   1.00
N368   N     0.72750   0.07945   0.12205   0.00000  Uiso   1.00
C369   C     0.78282   0.15594   0.36728   0.00000  Uiso   1.00
C370   C     0.78606   0.21932   0.38256   0.00000  Uiso   1.00
C371   C     0.80340   0.22806   0.43138   0.00000  Uiso   1.00
C372   C     0.80339   0.28977   0.43750   0.00000  Uiso   1.00
C373   C     0.81100   0.38041   0.46748   0.00000  Uiso   1.00
C374   C     0.83148   0.16119   0.29511   0.00000  Uiso   1.00
C375   C     0.88701   0.12105   0.27041   0.00000  Uiso   1.00
C376   C     0.92524   0.13383   0.20291   0.00000  Uiso   1.00
C377   C     0.00334   0.13419   0.09712   0.00000  Uiso   1.00
C378   C     0.70980   0.15176   0.37211   0.00000  Uiso   1.00
C379   C     0.66301   0.10369   0.41213   0.00000  Uiso   1.00
C380   C     0.59880   0.10851   0.40943   0.00000  Uiso   1.00
C381   C     0.48796   0.09424   0.42319   0.00000  Uiso   1.00
C382   C     0.75198   0.24998   0.29132   0.00000  Uiso   1.00
C383   C     0.76931   0.27040   0.34130   0.00000  Uiso   1.00
C384   C     0.76927   0.33211   0.34735   0.00000  Uiso   1.00
C385   C     0.78661   0.34094   0.39617   0.00000  Uiso   1.00
C386   C     0.81473   0.21227   0.25385   0.00000  Uiso   1.00
C387   C     0.85288   0.22510   0.18637   0.00000  Uiso   1.00
C388   C     0.90846   0.18500   0.16157   0.00000  Uiso   1.00
C389   C     0.69304   0.20284   0.33085   0.00000  Uiso   1.00
C390   C     0.62889   0.20774   0.32809   0.00000  Uiso   1.00
C391   C     0.58201   0.15968   0.36810   0.00000  Uiso   1.00
H392   H     0.79587   0.11617   0.39939   0.00000  Uiso   1.00
H393   H     0.81637   0.18852   0.46330   0.00000  Uiso   1.00
H394   H     0.89996   0.08153   0.30235   0.00000  Uiso   1.00
H395   H     0.67600   0.06417   0.44405   0.00000  Uiso   1.00
H396   H     0.83173   0.29126   0.51593   0.00000  Uiso   1.00
H397   H     0.00797   0.06564   0.17656   0.00000  Uiso   1.00
H398   H     0.53570   0.02903   0.47536   0.00000  Uiso   1.00
H399   H     0.73894   0.28975   0.25920   0.00000  Uiso   1.00
H400   H     0.75631   0.37163   0.31541   0.00000  Uiso   1.00
H401   H     0.83990   0.26463   0.15446   0.00000  Uiso   1.00
H402   H     0.61594   0.24727   0.29616   0.00000  Uiso   1.00
H403   H     0.78298   0.43988   0.39590   0.00000  Uiso   1.00
H404   H     0.95923   0.21426   0.05653   0.00000  Uiso   1.00
H405   H     0.48696   0.17765   0.35533   0.00000  Uiso   1.00
O406   O     0.81983   0.41630   0.49541   0.00000  Uiso   1.00
O407   O     0.05105   0.12029   0.05017   0.00000  Uiso   1.00
O408   O     0.43145   0.07226   0.44219   0.00000  Uiso   1.00
N409   N     0.81786   0.31500   0.47998   0.00000  Uiso   1.00
N410   N     0.98264   0.10407   0.16269   0.00000  Uiso   1.00
N411   N     0.54112   0.06983   0.44202   0.00000  Uiso   1.00
N412   N     0.79163   0.39497   0.41539   0.00000  Uiso   1.00
N413   N     0.95641   0.18404   0.09810   0.00000  Uiso   1.00
N414   N     0.51489   0.14980   0.37744   0.00000  Uiso   1.00
C415   C     0.67566   0.85129   0.33423   0.00000  Uiso   1.00
C416   C     0.75294   0.86573   0.29785   0.00000  Uiso   1.00
C417   C     0.78424   0.91942   0.29497   0.00000  Uiso   1.00
C418   C     0.85561   0.92379   0.25913   0.00000  Uiso   1.00
C419   C     0.96973   0.95347   0.20745   0.00000  Uiso   1.00
C420   C     0.65294   0.84054   0.28330   0.00000  Uiso   1.00
C421   C     0.60016   0.87306   0.26821   0.00000  Uiso   1.00
C422   C     0.58734   0.85622   0.22013   0.00000  Uiso   1.00
C423   C     0.54617   0.84677   0.14591   0.00000  Uiso   1.00
C424   C     0.66982   0.78749   0.38142   0.00000  Uiso   1.00
C425   C     0.63121   0.77539   0.44883   0.00000  Uiso   1.00
C426   C     0.63259   0.71388   0.48337   0.00000  Uiso   1.00
C427   C     0.61763   0.62205   0.56149   0.00000  Uiso   1.00
C428   C     0.74675   0.76357   0.27570   0.00000  Uiso   1.00
C429   C     0.79155   0.81808   0.26606   0.00000  Uiso   1.00
C430   C     0.86289   0.82237   0.23022   0.00000  Uiso   1.00
C431   C     0.89429   0.87606   0.22729   0.00000  Uiso   1.00
C432   C     0.69155   0.79290   0.25151   0.00000  Uiso   1.00
C433   C     0.67881   0.77600   0.20346   0.00000  Uiso   1.00
C434   C     0.62602   0.80849   0.18829   0.00000  Uiso   1.00
C435   C     0.70843   0.73984   0.34964   0.00000  Uiso   1.00
C436   C     0.70987   0.67834   0.38408   0.00000  Uiso   1.00
C437   C     0.67127   0.66614   0.45152   0.00000  Uiso   1.00
H438   H     0.64560   0.88839   0.35897   0.00000  Uiso   1.00
H439   H     0.75434   0.95629   0.31957   0.00000  Uiso   1.00
H440   H     0.57028   0.90992   0.29282   0.00000  Uiso   1.00
H441   H     0.60134   0.81227   0.47341   0.00000  Uiso   1.00
H442   H     0.89193   0.01057   0.26185   0.00000  Uiso   1.00
H443   H     0.50381   0.91279   0.20545   0.00000  Uiso   1.00
H444   H     0.56930   0.70687   0.58627   0.00000  Uiso   1.00
H445   H     0.77681   0.72647   0.25096   0.00000  Uiso   1.00
H446   H     0.89276   0.78549   0.20563   0.00000  Uiso   1.00
H447   H     0.70870   0.73913   0.17887   0.00000  Uiso   1.00
H448   H     0.73975   0.64148   0.35946   0.00000  Uiso   1.00
H449   H     0.00427   0.87194   0.16936   0.00000  Uiso   1.00
H450   H     0.61615   0.77417   0.11297   0.00000  Uiso   1.00
H451   H     0.68164   0.56825   0.49378   0.00000  Uiso   1.00
O452   O     0.02200   0.98301   0.18771   0.00000  Uiso   1.00
O453   O     0.51280   0.85473   0.11374   0.00000  Uiso   1.00
O454   O     0.59872   0.58457   0.61336   0.00000  Uiso   1.00
N455   N     0.90246   0.96984   0.24631   0.00000  Uiso   1.00
N456   N     0.53960   0.87843   0.19358   0.00000  Uiso   1.00
N457   N     0.60081   0.68591   0.54961   0.00000  Uiso   1.00
N458   N     0.96291   0.89524   0.19655   0.00000  Uiso   1.00
N459   N     0.60005   0.80384   0.14381   0.00000  Uiso   1.00
N460   N     0.66126   0.61132   0.49984   0.00000  Uiso   1.00
C461   C     0.32236   0.33659   0.80208   0.00000  Uiso   1.00
C462   C     0.29874   0.34749   0.74670   0.00000  Uiso   1.00
C463   C     0.23042   0.35023   0.75420   0.00000  Uiso   1.00
C464   C     0.21961   0.36060   0.69744   0.00000  Uiso   1.00
C465   C     0.17448   0.37638   0.62089   0.00000  Uiso   1.00
C466   C     0.37049   0.27898   0.79478   0.00000  Uiso   1.00
C467   C     0.36251   0.22412   0.84270   0.00000  Uiso   1.00
C468   C     0.41211   0.17682   0.82642   0.00000  Uiso   1.00
C469   C     0.47841   0.08626   0.82451   0.00000  Uiso   1.00
C470   C     0.36796   0.39257   0.78656   0.00000  Uiso   1.00
C471   C     0.35786   0.43321   0.82757   0.00000  Uiso   1.00
C472   C     0.40534   0.48154   0.80437   0.00000  Uiso   1.00
C473   C     0.46770   0.56734   0.78970   0.00000  Uiso   1.00
C474   C     0.42466   0.35013   0.68796   0.00000  Uiso   1.00
C475   C     0.35430   0.35485   0.68472   0.00000  Uiso   1.00
C476   C     0.34360   0.36522   0.62793   0.00000  Uiso   1.00
C477   C     0.27528   0.36797   0.63534   0.00000  Uiso   1.00
C478   C     0.42605   0.28633   0.73279   0.00000  Uiso   1.00
C479   C     0.47569   0.23911   0.71643   0.00000  Uiso   1.00
C480   C     0.46778   0.18419   0.76432   0.00000  Uiso   1.00
C481   C     0.42352   0.39993   0.72457   0.00000  Uiso   1.00
C482   C     0.47104   0.44820   0.70130   0.00000  Uiso   1.00
C483   C     0.46101   0.48891   0.74227   0.00000  Uiso   1.00
H484   H     0.27910   0.33085   0.85035   0.00000  Uiso   1.00
H485   H     0.18743   0.34452   0.80218   0.00000  Uiso   1.00
H486   H     0.31950   0.21844   0.89067   0.00000  Uiso   1.00
H487   H     0.31485   0.42750   0.87554   0.00000  Uiso   1.00
H488   H     0.11030   0.36290   0.72145   0.00000  Uiso   1.00
H489   H     0.38880   0.09706   0.90804   0.00000  Uiso   1.00
H490   H     0.37899   0.53790   0.87613   0.00000  Uiso   1.00
H491   H     0.46792   0.35586   0.63969   0.00000  Uiso   1.00
H492   H     0.38661   0.37091   0.57997   0.00000  Uiso   1.00
H493   H     0.51868   0.24482   0.66846   0.00000  Uiso   1.00
H494   H     0.51403   0.45388   0.65333   0.00000  Uiso   1.00
H495   H     0.27196   0.38432   0.54109   0.00000  Uiso   1.00
H496   H     0.55046   0.11847   0.72769   0.00000  Uiso   1.00
H497   H     0.54065   0.55932   0.69578   0.00000  Uiso   1.00
O498   O     0.13424   0.38304   0.59578   0.00000  Uiso   1.00
O499   O     0.49961   0.03426   0.84059   0.00000  Uiso   1.00
O500   O     0.48675   0.61264   0.79873   0.00000  Uiso   1.00
N501   N     0.15951   0.36589   0.68720   0.00000  Uiso   1.00
N502   N     0.41988   0.11734   0.86165   0.00000  Uiso   1.00
N503   N     0.41072   0.52948   0.83182   0.00000  Uiso   1.00
N504   N     0.24649   0.37742   0.59015   0.00000  Uiso   1.00
N505   N     0.50686   0.12886   0.76460   0.00000  Uiso   1.00
N506   N     0.49771   0.54100   0.73477   0.00000  Uiso   1.00
C507   C     0.76870   0.75028   0.61002   0.00000  Uiso   1.00
C508   C     0.78322   0.76872   0.66259   0.00000  Uiso   1.00
C509   C     0.84534   0.79210   0.65363   0.00000  Uiso   1.00
C510   C     0.84822   0.80614   0.70785   0.00000  Uiso   1.00
C511   C     0.87949   0.83613   0.78022   0.00000  Uiso   1.00
C512   C     0.74533   0.68169   0.63678   0.00000  Uiso   1.00
C513   C     0.77558   0.63190   0.60612   0.00000  Uiso   1.00
C514   C     0.74655   0.57268   0.63862   0.00000  Uiso   1.00
C515   C     0.71897   0.46755   0.67090   0.00000  Uiso   1.00
C516   C     0.70535   0.78901   0.60759   0.00000  Uiso   1.00
C517   C     0.70197   0.82945   0.55239   0.00000  Uiso   1.00
C518   C     0.63927   0.86057   0.56031   0.00000  Uiso   1.00
C519   C     0.54960   0.92208   0.54728   0.00000  Uiso   1.00
C520   C     0.66335   0.73364   0.72225   0.00000  Uiso   1.00
C521   C     0.72600   0.75968   0.72355   0.00000  Uiso   1.00
C522   C     0.72879   0.77369   0.77780   0.00000  Uiso   1.00
C523   C     0.79090   0.79709   0.76892   0.00000  Uiso   1.00
C524   C     0.68811   0.67265   0.69774   0.00000  Uiso   1.00
C525   C     0.65903   0.61349   0.73029   0.00000  Uiso   1.00
C526   C     0.68923   0.56362   0.69969   0.00000  Uiso   1.00
C527   C     0.64813   0.77998   0.66855   0.00000  Uiso   1.00
C528   C     0.58542   0.81104   0.67656   0.00000  Uiso   1.00
C529   C     0.58195   0.85152   0.62138   0.00000  Uiso   1.00
H530   H     0.81324   0.75731   0.56256   0.00000  Uiso   1.00
H531   H     0.88961   0.79908   0.60644   0.00000  Uiso   1.00
H532   H     0.81986   0.63891   0.55894   0.00000  Uiso   1.00
H533   H     0.74626   0.83643   0.50522   0.00000  Uiso   1.00
H534   H     0.94905   0.84139   0.68199   0.00000  Uiso   1.00
H535   H     0.80196   0.50366   0.58182   0.00000  Uiso   1.00
H536   H     0.64676   0.92016   0.46854   0.00000  Uiso   1.00
H537   H     0.61880   0.72660   0.76971   0.00000  Uiso   1.00
H538   H     0.68450   0.76669   0.82497   0.00000  Uiso   1.00
H539   H     0.61475   0.60652   0.77746   0.00000  Uiso   1.00
H540   H     0.54115   0.80403   0.72375   0.00000  Uiso   1.00
H541   H     0.78258   0.81510   0.85936   0.00000  Uiso   1.00
H542   H     0.63549   0.47736   0.75918   0.00000  Uiso   1.00
H543   H     0.48029   0.89387   0.64590   0.00000  Uiso   1.00
O544   O     0.91255   0.85515   0.80329   0.00000  Uiso   1.00
O545   O     0.71956   0.41206   0.67186   0.00000  Uiso   1.00
O546   O     0.51595   0.95851   0.52325   0.00000  Uiso   1.00
N547   N     0.90085   0.82971   0.71615   0.00000  Uiso   1.00
N548   N     0.76334   0.51395   0.62250   0.00000  Uiso   1.00
N549   N     0.61823   0.90333   0.51659   0.00000  Uiso   1.00
N550   N     0.81127   0.81557   0.81159   0.00000  Uiso   1.00
N551   N     0.67376   0.49980   0.71793   0.00000  Uiso   1.00
N552   N     0.52865   0.88919   0.61203   0.00000  Uiso   1.00
