data_job_00737
_audit_creation_date              2018-12-19
_audit_creation_method            'Materials Studio'
_symmetry_space_group_name_H-M    'P1'
_symmetry_Int_Tables_number       1
_symmetry_cell_setting            triclinic
loop_
_symmetry_equiv_pos_as_xyz
  x,y,z
_cell_length_a                    16.8870
_cell_length_b                    17.5122
_cell_length_c                    15.5753
_cell_angle_alpha                 90.0000
_cell_angle_beta                  90.0000
_cell_angle_gamma                 90.0000
loop_
_atom_site_label
_atom_site_type_symbol
_atom_site_fract_x
_atom_site_fract_y
_atom_site_fract_z
_atom_site_U_iso_or_equiv
_atom_site_adp_type
_atom_site_occupancy
C1     C     0.64155   0.77348   0.70050   0.00000  Uiso   1.00
C2     C     0.71585   0.80082   0.65412   0.00000  Uiso   1.00
C3     C     0.71749   0.84725   0.58194   0.00000  Uiso   1.00
C4     C     0.79145   0.86586   0.54911   0.00000  Uiso   1.00
C5     C     0.89621   0.91236   0.47129   0.00000  Uiso   1.00
C6     C     0.64634   0.68653   0.70183   0.00000  Uiso   1.00
C7     C     0.58953   0.63688   0.66976   0.00000  Uiso   1.00
C8     C     0.60497   0.55928   0.67710   0.00000  Uiso   1.00
C9     C     0.60179   0.42836   0.67340   0.00000  Uiso   1.00
C10    C     0.65047   0.79915   0.79355   0.00000  Uiso   1.00
C11    C     0.59711   0.84417   0.83861   0.00000  Uiso   1.00
C12    C     0.61602   0.86137   0.92319   0.00000  Uiso   1.00
C13    C     0.61925   0.90530   0.06189   0.00000  Uiso   1.00
C14    C     0.76999   0.72397   0.77056   0.00000  Uiso   1.00
C15    C     0.78562   0.77392   0.69218   0.00000  Uiso   1.00
C16    C     0.85960   0.79247   0.65945   0.00000  Uiso   1.00
C17    C     0.86134   0.83892   0.58724   0.00000  Uiso   1.00
C18    C     0.71611   0.65964   0.73988   0.00000  Uiso   1.00
C19    C     0.73164   0.58210   0.74728   0.00000  Uiso   1.00
C20    C     0.67486   0.53234   0.71523   0.00000  Uiso   1.00
C21    C     0.72024   0.77226   0.83160   0.00000  Uiso   1.00
C22    C     0.73923   0.78939   0.91613   0.00000  Uiso   1.00
C23    C     0.68591   0.83442   0.96131   0.00000  Uiso   1.00
H24    H     0.58723   0.79442   0.67087   0.00000  Uiso   1.00
H25    H     0.66348   0.86805   0.55250   0.00000  Uiso   1.00
H26    H     0.53554   0.65771   0.64032   0.00000  Uiso   1.00
H27    H     0.54313   0.86497   0.80914   0.00000  Uiso   1.00
H28    H     0.77879   0.93779   0.43804   0.00000  Uiso   1.00
H29    H     0.50900   0.49429   0.62324   0.00000  Uiso   1.00
H30    H     0.52500   0.93133   0.97923   0.00000  Uiso   1.00
H31    H     0.82431   0.70302   0.80019   0.00000  Uiso   1.00
H32    H     0.91358   0.77164   0.68892   0.00000  Uiso   1.00
H33    H     0.78563   0.56130   0.77673   0.00000  Uiso   1.00
H34    H     0.79322   0.76856   0.94555   0.00000  Uiso   1.00
H35    H     0.98178   0.85955   0.54875   0.00000  Uiso   1.00
H36    H     0.71199   0.41604   0.73395   0.00000  Uiso   1.00
H37    H     0.72799   0.85309   0.08994   0.00000  Uiso   1.00
O38    O     0.93473   0.94544   0.41785   0.00000  Uiso   1.00
O39    O     0.58077   0.36358   0.66083   0.00000  Uiso   1.00
O40    O     0.60176   0.93697   0.12788   0.00000  Uiso   1.00
N41    N     0.81431   0.90997   0.47937   0.00000  Uiso   1.00
N42    N     0.56208   0.49532   0.65251   0.00000  Uiso   1.00
N43    N     0.57703   0.90391   0.98534   0.00000  Uiso   1.00
N44    N     0.92354   0.86787   0.53895   0.00000  Uiso   1.00
N45    N     0.67131   0.45322   0.71209   0.00000  Uiso   1.00
N46    N     0.68625   0.86180   0.04492   0.00000  Uiso   1.00
C47    C     0.14155   0.27348   0.70050   0.00000  Uiso   1.00
C48    C     0.21585   0.30082   0.65412   0.00000  Uiso   1.00
C49    C     0.21749   0.34725   0.58194   0.00000  Uiso   1.00
C50    C     0.29145   0.36586   0.54911   0.00000  Uiso   1.00
C51    C     0.39621   0.41236   0.47129   0.00000  Uiso   1.00
C52    C     0.14634   0.18653   0.70183   0.00000  Uiso   1.00
C53    C     0.08953   0.13688   0.66976   0.00000  Uiso   1.00
C54    C     0.10497   0.05928   0.67710   0.00000  Uiso   1.00
C55    C     0.10179   0.92836   0.67340   0.00000  Uiso   1.00
C56    C     0.15047   0.29915   0.79355   0.00000  Uiso   1.00
C57    C     0.09711   0.34417   0.83861   0.00000  Uiso   1.00
C58    C     0.11602   0.36137   0.92319   0.00000  Uiso   1.00
C59    C     0.11925   0.40530   0.06189   0.00000  Uiso   1.00
C60    C     0.26999   0.22397   0.77056   0.00000  Uiso   1.00
C61    C     0.28562   0.27392   0.69218   0.00000  Uiso   1.00
C62    C     0.35960   0.29247   0.65945   0.00000  Uiso   1.00
C63    C     0.36134   0.33892   0.58724   0.00000  Uiso   1.00
C64    C     0.21611   0.15964   0.73988   0.00000  Uiso   1.00
C65    C     0.23164   0.08210   0.74728   0.00000  Uiso   1.00
C66    C     0.17486   0.03234   0.71523   0.00000  Uiso   1.00
C67    C     0.22024   0.27226   0.83160   0.00000  Uiso   1.00
C68    C     0.23923   0.28939   0.91613   0.00000  Uiso   1.00
C69    C     0.18591   0.33442   0.96131   0.00000  Uiso   1.00
H70    H     0.08723   0.29442   0.67087   0.00000  Uiso   1.00
H71    H     0.16348   0.36805   0.55250   0.00000  Uiso   1.00
H72    H     0.03554   0.15771   0.64032   0.00000  Uiso   1.00
H73    H     0.04313   0.36497   0.80914   0.00000  Uiso   1.00
H74    H     0.27879   0.43779   0.43804   0.00000  Uiso   1.00
H75    H     0.00900   0.99429   0.62324   0.00000  Uiso   1.00
H76    H     0.02500   0.43133   0.97923   0.00000  Uiso   1.00
H77    H     0.32431   0.20302   0.80019   0.00000  Uiso   1.00
H78    H     0.41358   0.27164   0.68892   0.00000  Uiso   1.00
H79    H     0.28563   0.06130   0.77673   0.00000  Uiso   1.00
H80    H     0.29322   0.26856   0.94555   0.00000  Uiso   1.00
H81    H     0.48178   0.35955   0.54875   0.00000  Uiso   1.00
H82    H     0.21199   0.91604   0.73395   0.00000  Uiso   1.00
H83    H     0.22799   0.35309   0.08994   0.00000  Uiso   1.00
O84    O     0.43473   0.44544   0.41785   0.00000  Uiso   1.00
O85    O     0.08077   0.86358   0.66083   0.00000  Uiso   1.00
O86    O     0.10176   0.43697   0.12788   0.00000  Uiso   1.00
N87    N     0.31431   0.40997   0.47937   0.00000  Uiso   1.00
N88    N     0.06208   0.99532   0.65251   0.00000  Uiso   1.00
N89    N     0.07703   0.40391   0.98534   0.00000  Uiso   1.00
N90    N     0.42354   0.36787   0.53895   0.00000  Uiso   1.00
N91    N     0.17131   0.95322   0.71209   0.00000  Uiso   1.00
N92    N     0.18625   0.36180   0.04492   0.00000  Uiso   1.00
C93    C     0.35845   0.22652   0.20050   0.00000  Uiso   1.00
C94    C     0.28415   0.19918   0.15412   0.00000  Uiso   1.00
C95    C     0.28251   0.15275   0.08194   0.00000  Uiso   1.00
C96    C     0.20855   0.13414   0.04911   0.00000  Uiso   1.00
C97    C     0.10379   0.08764   0.97129   0.00000  Uiso   1.00
C98    C     0.35366   0.31347   0.20183   0.00000  Uiso   1.00
C99    C     0.41047   0.36312   0.16976   0.00000  Uiso   1.00
C100   C     0.39503   0.44072   0.17710   0.00000  Uiso   1.00
C101   C     0.39821   0.57164   0.17340   0.00000  Uiso   1.00
C102   C     0.34953   0.20085   0.29355   0.00000  Uiso   1.00
C103   C     0.40289   0.15583   0.33861   0.00000  Uiso   1.00
C104   C     0.38398   0.13863   0.42319   0.00000  Uiso   1.00
C105   C     0.38075   0.09470   0.56189   0.00000  Uiso   1.00
C106   C     0.23001   0.27603   0.27056   0.00000  Uiso   1.00
C107   C     0.21438   0.22608   0.19218   0.00000  Uiso   1.00
C108   C     0.14040   0.20753   0.15945   0.00000  Uiso   1.00
C109   C     0.13866   0.16108   0.08724   0.00000  Uiso   1.00
C110   C     0.28389   0.34036   0.23988   0.00000  Uiso   1.00
C111   C     0.26836   0.41790   0.24728   0.00000  Uiso   1.00
C112   C     0.32514   0.46766   0.21523   0.00000  Uiso   1.00
C113   C     0.27976   0.22774   0.33160   0.00000  Uiso   1.00
C114   C     0.26077   0.21061   0.41613   0.00000  Uiso   1.00
C115   C     0.31409   0.16558   0.46131   0.00000  Uiso   1.00
H116   H     0.41277   0.20558   0.17087   0.00000  Uiso   1.00
H117   H     0.33652   0.13195   0.05250   0.00000  Uiso   1.00
H118   H     0.46446   0.34229   0.14032   0.00000  Uiso   1.00
H119   H     0.45687   0.13503   0.30914   0.00000  Uiso   1.00
H120   H     0.22121   0.06221   0.93804   0.00000  Uiso   1.00
H121   H     0.49100   0.50571   0.12324   0.00000  Uiso   1.00
H122   H     0.47500   0.06867   0.47923   0.00000  Uiso   1.00
H123   H     0.17569   0.29698   0.30019   0.00000  Uiso   1.00
H124   H     0.08642   0.22836   0.18892   0.00000  Uiso   1.00
H125   H     0.21437   0.43870   0.27673   0.00000  Uiso   1.00
H126   H     0.20678   0.23144   0.44555   0.00000  Uiso   1.00
H127   H     0.01822   0.14045   0.04875   0.00000  Uiso   1.00
H128   H     0.28801   0.58396   0.23395   0.00000  Uiso   1.00
H129   H     0.27201   0.14691   0.58994   0.00000  Uiso   1.00
O130   O     0.06527   0.05456   0.91785   0.00000  Uiso   1.00
O131   O     0.41923   0.63642   0.16083   0.00000  Uiso   1.00
O132   O     0.39824   0.06303   0.62788   0.00000  Uiso   1.00
N133   N     0.18569   0.09003   0.97937   0.00000  Uiso   1.00
N134   N     0.43792   0.50468   0.15251   0.00000  Uiso   1.00
N135   N     0.42297   0.09609   0.48534   0.00000  Uiso   1.00
N136   N     0.07646   0.13213   0.03895   0.00000  Uiso   1.00
N137   N     0.32869   0.54678   0.21209   0.00000  Uiso   1.00
N138   N     0.31375   0.13820   0.54492   0.00000  Uiso   1.00
C139   C     0.85845   0.72652   0.20050   0.00000  Uiso   1.00
C140   C     0.78415   0.69918   0.15412   0.00000  Uiso   1.00
C141   C     0.78251   0.65275   0.08194   0.00000  Uiso   1.00
C142   C     0.70855   0.63414   0.04911   0.00000  Uiso   1.00
C143   C     0.60379   0.58764   0.97129   0.00000  Uiso   1.00
C144   C     0.85366   0.81347   0.20183   0.00000  Uiso   1.00
C145   C     0.91047   0.86312   0.16976   0.00000  Uiso   1.00
C146   C     0.89503   0.94072   0.17710   0.00000  Uiso   1.00
C147   C     0.89821   0.07164   0.17340   0.00000  Uiso   1.00
C148   C     0.84953   0.70085   0.29355   0.00000  Uiso   1.00
C149   C     0.90289   0.65583   0.33861   0.00000  Uiso   1.00
C150   C     0.88398   0.63863   0.42319   0.00000  Uiso   1.00
C151   C     0.88075   0.59470   0.56189   0.00000  Uiso   1.00
C152   C     0.73001   0.77603   0.27056   0.00000  Uiso   1.00
C153   C     0.71438   0.72608   0.19218   0.00000  Uiso   1.00
C154   C     0.64040   0.70753   0.15945   0.00000  Uiso   1.00
C155   C     0.63866   0.66108   0.08724   0.00000  Uiso   1.00
C156   C     0.78389   0.84036   0.23988   0.00000  Uiso   1.00
C157   C     0.76836   0.91790   0.24728   0.00000  Uiso   1.00
C158   C     0.82514   0.96766   0.21523   0.00000  Uiso   1.00
C159   C     0.77976   0.72774   0.33160   0.00000  Uiso   1.00
C160   C     0.76077   0.71061   0.41613   0.00000  Uiso   1.00
C161   C     0.81409   0.66558   0.46131   0.00000  Uiso   1.00
H162   H     0.91277   0.70558   0.17087   0.00000  Uiso   1.00
H163   H     0.83652   0.63195   0.05250   0.00000  Uiso   1.00
H164   H     0.96446   0.84229   0.14032   0.00000  Uiso   1.00
H165   H     0.95687   0.63503   0.30914   0.00000  Uiso   1.00
H166   H     0.72121   0.56221   0.93804   0.00000  Uiso   1.00
H167   H     0.99100   0.00571   0.12324   0.00000  Uiso   1.00
H168   H     0.97500   0.56867   0.47923   0.00000  Uiso   1.00
H169   H     0.67569   0.79698   0.30019   0.00000  Uiso   1.00
H170   H     0.58642   0.72836   0.18892   0.00000  Uiso   1.00
H171   H     0.71437   0.93870   0.27673   0.00000  Uiso   1.00
H172   H     0.70678   0.73144   0.44555   0.00000  Uiso   1.00
H173   H     0.51822   0.64045   0.04875   0.00000  Uiso   1.00
H174   H     0.78801   0.08396   0.23395   0.00000  Uiso   1.00
H175   H     0.77201   0.64691   0.58994   0.00000  Uiso   1.00
O176   O     0.56527   0.55456   0.91785   0.00000  Uiso   1.00
O177   O     0.91923   0.13642   0.16083   0.00000  Uiso   1.00
O178   O     0.89824   0.56303   0.62788   0.00000  Uiso   1.00
N179   N     0.68569   0.59003   0.97937   0.00000  Uiso   1.00
N180   N     0.93792   0.00468   0.15251   0.00000  Uiso   1.00
N181   N     0.92297   0.59609   0.48534   0.00000  Uiso   1.00
N182   N     0.57646   0.63213   0.03895   0.00000  Uiso   1.00
N183   N     0.82869   0.04678   0.21209   0.00000  Uiso   1.00
N184   N     0.81375   0.63820   0.54492   0.00000  Uiso   1.00
C185   C     0.35845   0.77348   0.79950   0.00000  Uiso   1.00
C186   C     0.28415   0.80082   0.84588   0.00000  Uiso   1.00
C187   C     0.28251   0.84725   0.91806   0.00000  Uiso   1.00
C188   C     0.20855   0.86586   0.95089   0.00000  Uiso   1.00
C189   C     0.10379   0.91236   0.02871   0.00000  Uiso   1.00
C190   C     0.35366   0.68653   0.79817   0.00000  Uiso   1.00
C191   C     0.41047   0.63688   0.83024   0.00000  Uiso   1.00
C192   C     0.39503   0.55928   0.82290   0.00000  Uiso   1.00
C193   C     0.39821   0.42836   0.82660   0.00000  Uiso   1.00
C194   C     0.34953   0.79915   0.70645   0.00000  Uiso   1.00
C195   C     0.40289   0.84417   0.66139   0.00000  Uiso   1.00
C196   C     0.38398   0.86137   0.57681   0.00000  Uiso   1.00
C197   C     0.38075   0.90530   0.43811   0.00000  Uiso   1.00
C198   C     0.23001   0.72397   0.72944   0.00000  Uiso   1.00
C199   C     0.21438   0.77392   0.80782   0.00000  Uiso   1.00
C200   C     0.14040   0.79247   0.84055   0.00000  Uiso   1.00
C201   C     0.13866   0.83892   0.91276   0.00000  Uiso   1.00
C202   C     0.28389   0.65964   0.76012   0.00000  Uiso   1.00
C203   C     0.26836   0.58210   0.75272   0.00000  Uiso   1.00
C204   C     0.32514   0.53234   0.78477   0.00000  Uiso   1.00
C205   C     0.27976   0.77226   0.66840   0.00000  Uiso   1.00
C206   C     0.26077   0.78939   0.58387   0.00000  Uiso   1.00
C207   C     0.31409   0.83442   0.53869   0.00000  Uiso   1.00
H208   H     0.41277   0.79442   0.82913   0.00000  Uiso   1.00
H209   H     0.33652   0.86805   0.94750   0.00000  Uiso   1.00
H210   H     0.46446   0.65771   0.85968   0.00000  Uiso   1.00
H211   H     0.45687   0.86497   0.69086   0.00000  Uiso   1.00
H212   H     0.22121   0.93779   0.06196   0.00000  Uiso   1.00
H213   H     0.49100   0.49429   0.87676   0.00000  Uiso   1.00
H214   H     0.47500   0.93133   0.52077   0.00000  Uiso   1.00
H215   H     0.17569   0.70302   0.69981   0.00000  Uiso   1.00
H216   H     0.08642   0.77164   0.81108   0.00000  Uiso   1.00
H217   H     0.21437   0.56130   0.72327   0.00000  Uiso   1.00
H218   H     0.20678   0.76856   0.55445   0.00000  Uiso   1.00
H219   H     0.01822   0.85955   0.95125   0.00000  Uiso   1.00
H220   H     0.28801   0.41604   0.76605   0.00000  Uiso   1.00
H221   H     0.27201   0.85309   0.41006   0.00000  Uiso   1.00
O222   O     0.06527   0.94544   0.08215   0.00000  Uiso   1.00
O223   O     0.41923   0.36358   0.83917   0.00000  Uiso   1.00
O224   O     0.39824   0.93697   0.37212   0.00000  Uiso   1.00
N225   N     0.18569   0.90997   0.02063   0.00000  Uiso   1.00
N226   N     0.43792   0.49532   0.84749   0.00000  Uiso   1.00
N227   N     0.42297   0.90391   0.51466   0.00000  Uiso   1.00
N228   N     0.07646   0.86787   0.96105   0.00000  Uiso   1.00
N229   N     0.32869   0.45322   0.78791   0.00000  Uiso   1.00
N230   N     0.31375   0.86180   0.45508   0.00000  Uiso   1.00
C231   C     0.85845   0.27348   0.79950   0.00000  Uiso   1.00
C232   C     0.78415   0.30082   0.84588   0.00000  Uiso   1.00
C233   C     0.78251   0.34725   0.91806   0.00000  Uiso   1.00
C234   C     0.70855   0.36586   0.95089   0.00000  Uiso   1.00
C235   C     0.60379   0.41236   0.02871   0.00000  Uiso   1.00
C236   C     0.85366   0.18653   0.79817   0.00000  Uiso   1.00
C237   C     0.91047   0.13688   0.83024   0.00000  Uiso   1.00
C238   C     0.89503   0.05928   0.82290   0.00000  Uiso   1.00
C239   C     0.89821   0.92836   0.82660   0.00000  Uiso   1.00
C240   C     0.84953   0.29915   0.70645   0.00000  Uiso   1.00
C241   C     0.90289   0.34417   0.66139   0.00000  Uiso   1.00
C242   C     0.88398   0.36137   0.57681   0.00000  Uiso   1.00
C243   C     0.88075   0.40530   0.43811   0.00000  Uiso   1.00
C244   C     0.73001   0.22397   0.72944   0.00000  Uiso   1.00
C245   C     0.71438   0.27392   0.80782   0.00000  Uiso   1.00
C246   C     0.64040   0.29247   0.84055   0.00000  Uiso   1.00
C247   C     0.63866   0.33892   0.91276   0.00000  Uiso   1.00
C248   C     0.78389   0.15964   0.76012   0.00000  Uiso   1.00
C249   C     0.76836   0.08210   0.75272   0.00000  Uiso   1.00
C250   C     0.82514   0.03234   0.78477   0.00000  Uiso   1.00
C251   C     0.77976   0.27226   0.66840   0.00000  Uiso   1.00
C252   C     0.76077   0.28939   0.58387   0.00000  Uiso   1.00
C253   C     0.81409   0.33442   0.53869   0.00000  Uiso   1.00
H254   H     0.91277   0.29442   0.82913   0.00000  Uiso   1.00
H255   H     0.83652   0.36805   0.94750   0.00000  Uiso   1.00
H256   H     0.96446   0.15771   0.85968   0.00000  Uiso   1.00
H257   H     0.95687   0.36497   0.69086   0.00000  Uiso   1.00
H258   H     0.72121   0.43779   0.06196   0.00000  Uiso   1.00
H259   H     0.99100   0.99429   0.87676   0.00000  Uiso   1.00
H260   H     0.97500   0.43133   0.52077   0.00000  Uiso   1.00
H261   H     0.67569   0.20302   0.69981   0.00000  Uiso   1.00
H262   H     0.58642   0.27164   0.81108   0.00000  Uiso   1.00
H263   H     0.71437   0.06130   0.72327   0.00000  Uiso   1.00
H264   H     0.70678   0.26856   0.55445   0.00000  Uiso   1.00
H265   H     0.51822   0.35955   0.95125   0.00000  Uiso   1.00
H266   H     0.78801   0.91604   0.76605   0.00000  Uiso   1.00
H267   H     0.77201   0.35309   0.41006   0.00000  Uiso   1.00
O268   O     0.56527   0.44544   0.08215   0.00000  Uiso   1.00
O269   O     0.91923   0.86358   0.83917   0.00000  Uiso   1.00
O270   O     0.89824   0.43697   0.37212   0.00000  Uiso   1.00
N271   N     0.68569   0.40997   0.02063   0.00000  Uiso   1.00
N272   N     0.93792   0.99532   0.84749   0.00000  Uiso   1.00
N273   N     0.92297   0.40391   0.51466   0.00000  Uiso   1.00
N274   N     0.57646   0.36787   0.96105   0.00000  Uiso   1.00
N275   N     0.82869   0.95322   0.78791   0.00000  Uiso   1.00
N276   N     0.81375   0.36180   0.45508   0.00000  Uiso   1.00
C277   C     0.64155   0.22652   0.29950   0.00000  Uiso   1.00
C278   C     0.71585   0.19918   0.34588   0.00000  Uiso   1.00
C279   C     0.71749   0.15275   0.41806   0.00000  Uiso   1.00
C280   C     0.79145   0.13414   0.45089   0.00000  Uiso   1.00
C281   C     0.89621   0.08764   0.52871   0.00000  Uiso   1.00
C282   C     0.64634   0.31347   0.29817   0.00000  Uiso   1.00
C283   C     0.58953   0.36312   0.33024   0.00000  Uiso   1.00
C284   C     0.60497   0.44072   0.32290   0.00000  Uiso   1.00
C285   C     0.60179   0.57164   0.32660   0.00000  Uiso   1.00
C286   C     0.65047   0.20085   0.20645   0.00000  Uiso   1.00
C287   C     0.59711   0.15583   0.16139   0.00000  Uiso   1.00
C288   C     0.61602   0.13863   0.07681   0.00000  Uiso   1.00
C289   C     0.61925   0.09470   0.93811   0.00000  Uiso   1.00
C290   C     0.76999   0.27603   0.22944   0.00000  Uiso   1.00
C291   C     0.78562   0.22608   0.30782   0.00000  Uiso   1.00
C292   C     0.85960   0.20753   0.34055   0.00000  Uiso   1.00
C293   C     0.86134   0.16108   0.41276   0.00000  Uiso   1.00
C294   C     0.71611   0.34036   0.26012   0.00000  Uiso   1.00
C295   C     0.73164   0.41790   0.25272   0.00000  Uiso   1.00
C296   C     0.67486   0.46766   0.28477   0.00000  Uiso   1.00
C297   C     0.72024   0.22774   0.16840   0.00000  Uiso   1.00
C298   C     0.73923   0.21061   0.08387   0.00000  Uiso   1.00
C299   C     0.68591   0.16558   0.03869   0.00000  Uiso   1.00
H300   H     0.58723   0.20558   0.32913   0.00000  Uiso   1.00
H301   H     0.66348   0.13195   0.44750   0.00000  Uiso   1.00
H302   H     0.53554   0.34229   0.35968   0.00000  Uiso   1.00
H303   H     0.54313   0.13503   0.19086   0.00000  Uiso   1.00
H304   H     0.77879   0.06221   0.56196   0.00000  Uiso   1.00
H305   H     0.50900   0.50571   0.37676   0.00000  Uiso   1.00
H306   H     0.52500   0.06867   0.02077   0.00000  Uiso   1.00
H307   H     0.82431   0.29698   0.19981   0.00000  Uiso   1.00
H308   H     0.91358   0.22836   0.31108   0.00000  Uiso   1.00
H309   H     0.78563   0.43870   0.22327   0.00000  Uiso   1.00
H310   H     0.79322   0.23144   0.05445   0.00000  Uiso   1.00
H311   H     0.98178   0.14045   0.45125   0.00000  Uiso   1.00
H312   H     0.71199   0.58396   0.26605   0.00000  Uiso   1.00
H313   H     0.72799   0.14691   0.91006   0.00000  Uiso   1.00
O314   O     0.93473   0.05456   0.58215   0.00000  Uiso   1.00
O315   O     0.58077   0.63642   0.33917   0.00000  Uiso   1.00
O316   O     0.60176   0.06303   0.87212   0.00000  Uiso   1.00
N317   N     0.81431   0.09003   0.52063   0.00000  Uiso   1.00
N318   N     0.56208   0.50468   0.34749   0.00000  Uiso   1.00
N319   N     0.57703   0.09609   0.01466   0.00000  Uiso   1.00
N320   N     0.92354   0.13213   0.46105   0.00000  Uiso   1.00
N321   N     0.67131   0.54678   0.28791   0.00000  Uiso   1.00
N322   N     0.68625   0.13820   0.95508   0.00000  Uiso   1.00
C323   C     0.14155   0.72652   0.29950   0.00000  Uiso   1.00
C324   C     0.21585   0.69918   0.34588   0.00000  Uiso   1.00
C325   C     0.21749   0.65275   0.41806   0.00000  Uiso   1.00
C326   C     0.29145   0.63414   0.45089   0.00000  Uiso   1.00
C327   C     0.39621   0.58764   0.52871   0.00000  Uiso   1.00
C328   C     0.14634   0.81347   0.29817   0.00000  Uiso   1.00
C329   C     0.08953   0.86312   0.33024   0.00000  Uiso   1.00
C330   C     0.10497   0.94072   0.32290   0.00000  Uiso   1.00
C331   C     0.10179   0.07164   0.32660   0.00000  Uiso   1.00
C332   C     0.15047   0.70085   0.20645   0.00000  Uiso   1.00
C333   C     0.09711   0.65583   0.16139   0.00000  Uiso   1.00
C334   C     0.11602   0.63863   0.07681   0.00000  Uiso   1.00
C335   C     0.11925   0.59470   0.93811   0.00000  Uiso   1.00
C336   C     0.26999   0.77603   0.22944   0.00000  Uiso   1.00
C337   C     0.28562   0.72608   0.30782   0.00000  Uiso   1.00
C338   C     0.35960   0.70753   0.34055   0.00000  Uiso   1.00
C339   C     0.36134   0.66108   0.41276   0.00000  Uiso   1.00
C340   C     0.21611   0.84036   0.26012   0.00000  Uiso   1.00
C341   C     0.23164   0.91790   0.25272   0.00000  Uiso   1.00
C342   C     0.17486   0.96766   0.28477   0.00000  Uiso   1.00
C343   C     0.22024   0.72774   0.16840   0.00000  Uiso   1.00
C344   C     0.23923   0.71061   0.08387   0.00000  Uiso   1.00
C345   C     0.18591   0.66558   0.03869   0.00000  Uiso   1.00
H346   H     0.08723   0.70558   0.32913   0.00000  Uiso   1.00
H347   H     0.16348   0.63195   0.44750   0.00000  Uiso   1.00
H348   H     0.03554   0.84229   0.35968   0.00000  Uiso   1.00
H349   H     0.04313   0.63503   0.19086   0.00000  Uiso   1.00
H350   H     0.27879   0.56221   0.56196   0.00000  Uiso   1.00
H351   H     0.00900   0.00571   0.37676   0.00000  Uiso   1.00
H352   H     0.02500   0.56867   0.02077   0.00000  Uiso   1.00
H353   H     0.32431   0.79698   0.19981   0.00000  Uiso   1.00
H354   H     0.41358   0.72836   0.31108   0.00000  Uiso   1.00
H355   H     0.28563   0.93870   0.22327   0.00000  Uiso   1.00
H356   H     0.29322   0.73144   0.05445   0.00000  Uiso   1.00
H357   H     0.48178   0.64045   0.45125   0.00000  Uiso   1.00
H358   H     0.21199   0.08396   0.26605   0.00000  Uiso   1.00
H359   H     0.22799   0.64691   0.91006   0.00000  Uiso   1.00
O360   O     0.43473   0.55456   0.58215   0.00000  Uiso   1.00
O361   O     0.08077   0.13642   0.33917   0.00000  Uiso   1.00
O362   O     0.10176   0.56303   0.87212   0.00000  Uiso   1.00
N363   N     0.31431   0.59003   0.52063   0.00000  Uiso   1.00
N364   N     0.06208   0.00468   0.34749   0.00000  Uiso   1.00
N365   N     0.07703   0.59609   0.01466   0.00000  Uiso   1.00
N366   N     0.42354   0.63213   0.46105   0.00000  Uiso   1.00
N367   N     0.17131   0.04678   0.28791   0.00000  Uiso   1.00
N368   N     0.18625   0.63820   0.95508   0.00000  Uiso   1.00
