data_job_02795
_audit_creation_date              2018-12-19
_audit_creation_method            'Materials Studio'
_symmetry_space_group_name_H-M    'P1'
_symmetry_Int_Tables_number       1
_symmetry_cell_setting            triclinic
loop_
_symmetry_equiv_pos_as_xyz
  x,y,z
_cell_length_a                    15.5869
_cell_length_b                    16.7697
_cell_length_c                    23.2001
_cell_angle_alpha                 90.0000
_cell_angle_beta                  100.6550
_cell_angle_gamma                 90.0000
loop_
_atom_site_label
_atom_site_type_symbol
_atom_site_fract_x
_atom_site_fract_y
_atom_site_fract_z
_atom_site_U_iso_or_equiv
_atom_site_adp_type
_atom_site_occupancy
C1     C     0.63156   0.67612   0.28341   0.00000  Uiso   1.00
C2     C     0.65556   0.66584   0.22303   0.00000  Uiso   1.00
C3     C     0.60457   0.62869   0.17519   0.00000  Uiso   1.00
C4     C     0.63812   0.62537   0.12381   0.00000  Uiso   1.00
C5     C     0.66298   0.60441   0.03058   0.00000  Uiso   1.00
C6     C     0.70576   0.63835   0.32691   0.00000  Uiso   1.00
C7     C     0.69697   0.57809   0.36641   0.00000  Uiso   1.00
C8     C     0.77278   0.55164   0.40248   0.00000  Uiso   1.00
C9     C     0.87557   0.48804   0.47055   0.00000  Uiso   1.00
C10    C     0.63635   0.76540   0.29607   0.00000  Uiso   1.00
C11    C     0.56920   0.81195   0.30966   0.00000  Uiso   1.00
C12    C     0.58658   0.89246   0.31978   0.00000  Uiso   1.00
C13    C     0.58160   0.02611   0.33997   0.00000  Uiso   1.00
C14    C     0.78182   0.73631   0.27726   0.00000  Uiso   1.00
C15    C     0.73717   0.69853   0.21969   0.00000  Uiso   1.00
C16    C     0.77080   0.69528   0.16838   0.00000  Uiso   1.00
C17    C     0.71987   0.65812   0.12046   0.00000  Uiso   1.00
C18    C     0.78737   0.67104   0.32357   0.00000  Uiso   1.00
C19    C     0.86321   0.64468   0.35960   0.00000  Uiso   1.00
C20    C     0.85454   0.58439   0.39914   0.00000  Uiso   1.00
C21    C     0.71796   0.79809   0.29273   0.00000  Uiso   1.00
C22    C     0.73544   0.87854   0.30284   0.00000  Uiso   1.00
C23    C     0.66834   0.92521   0.31643   0.00000  Uiso   1.00
H24    H     0.56803   0.65067   0.28602   0.00000  Uiso   1.00
H25    H     0.54142   0.60339   0.17779   0.00000  Uiso   1.00
H26    H     0.63380   0.55281   0.36899   0.00000  Uiso   1.00
H27    H     0.50606   0.78663   0.31224   0.00000  Uiso   1.00
H28    H     0.54792   0.56536   0.05634   0.00000  Uiso   1.00
H29    H     0.74272   0.45873   0.45950   0.00000  Uiso   1.00
H30    H     0.47334   0.95180   0.33984   0.00000  Uiso   1.00
H31    H     0.84536   0.76176   0.27465   0.00000  Uiso   1.00
H32    H     0.83396   0.72058   0.16580   0.00000  Uiso   1.00
H33    H     0.92635   0.66999   0.35700   0.00000  Uiso   1.00
H34    H     0.79860   0.90382   0.30025   0.00000  Uiso   1.00
H35    H     0.78536   0.66047   0.04661   0.00000  Uiso   1.00
H36    H     0.98016   0.55385   0.44977   0.00000  Uiso   1.00
H37    H     0.71078   0.04691   0.33010   0.00000  Uiso   1.00
O38    O     0.65415   0.58380   0.98008   0.00000  Uiso   1.00
O39    O     0.90971   0.44392   0.50902   0.00000  Uiso   1.00
O40    O     0.55630   0.09081   0.35202   0.00000  Uiso   1.00
N41    N     0.60536   0.59341   0.06898   0.00000  Uiso   1.00
N42    N     0.78748   0.49371   0.44591   0.00000  Uiso   1.00
N43    N     0.53565   0.95468   0.33405   0.00000  Uiso   1.00
N44    N     0.73312   0.64459   0.06375   0.00000  Uiso   1.00
N45    N     0.91525   0.54489   0.44067   0.00000  Uiso   1.00
N46    N     0.66341   0.00586   0.32881   0.00000  Uiso   1.00
C47    C     0.13156   0.17612   0.28341   0.00000  Uiso   1.00
C48    C     0.15556   0.16584   0.22303   0.00000  Uiso   1.00
C49    C     0.10457   0.12869   0.17519   0.00000  Uiso   1.00
C50    C     0.13812   0.12537   0.12381   0.00000  Uiso   1.00
C51    C     0.16298   0.10441   0.03058   0.00000  Uiso   1.00
C52    C     0.20576   0.13835   0.32691   0.00000  Uiso   1.00
C53    C     0.19697   0.07809   0.36641   0.00000  Uiso   1.00
C54    C     0.27278   0.05164   0.40248   0.00000  Uiso   1.00
C55    C     0.37557   0.98804   0.47055   0.00000  Uiso   1.00
C56    C     0.13635   0.26540   0.29607   0.00000  Uiso   1.00
C57    C     0.06920   0.31195   0.30966   0.00000  Uiso   1.00
C58    C     0.08658   0.39246   0.31978   0.00000  Uiso   1.00
C59    C     0.08160   0.52611   0.33997   0.00000  Uiso   1.00
C60    C     0.28182   0.23631   0.27726   0.00000  Uiso   1.00
C61    C     0.23717   0.19853   0.21969   0.00000  Uiso   1.00
C62    C     0.27080   0.19528   0.16838   0.00000  Uiso   1.00
C63    C     0.21987   0.15812   0.12046   0.00000  Uiso   1.00
C64    C     0.28737   0.17104   0.32357   0.00000  Uiso   1.00
C65    C     0.36321   0.14468   0.35960   0.00000  Uiso   1.00
C66    C     0.35454   0.08439   0.39914   0.00000  Uiso   1.00
C67    C     0.21796   0.29809   0.29273   0.00000  Uiso   1.00
C68    C     0.23544   0.37854   0.30284   0.00000  Uiso   1.00
C69    C     0.16834   0.42521   0.31643   0.00000  Uiso   1.00
H70    H     0.06803   0.15067   0.28602   0.00000  Uiso   1.00
H71    H     0.04142   0.10339   0.17779   0.00000  Uiso   1.00
H72    H     0.13380   0.05281   0.36899   0.00000  Uiso   1.00
H73    H     0.00606   0.28663   0.31224   0.00000  Uiso   1.00
H74    H     0.04792   0.06536   0.05634   0.00000  Uiso   1.00
H75    H     0.24272   0.95873   0.45950   0.00000  Uiso   1.00
H76    H     0.97334   0.45180   0.33984   0.00000  Uiso   1.00
H77    H     0.34536   0.26176   0.27465   0.00000  Uiso   1.00
H78    H     0.33396   0.22058   0.16580   0.00000  Uiso   1.00
H79    H     0.42635   0.16999   0.35700   0.00000  Uiso   1.00
H80    H     0.29860   0.40382   0.30025   0.00000  Uiso   1.00
H81    H     0.28536   0.16047   0.04661   0.00000  Uiso   1.00
H82    H     0.48016   0.05385   0.44977   0.00000  Uiso   1.00
H83    H     0.21078   0.54691   0.33010   0.00000  Uiso   1.00
O84    O     0.15415   0.08380   0.98008   0.00000  Uiso   1.00
O85    O     0.40971   0.94392   0.50902   0.00000  Uiso   1.00
O86    O     0.05630   0.59081   0.35202   0.00000  Uiso   1.00
N87    N     0.10536   0.09341   0.06898   0.00000  Uiso   1.00
N88    N     0.28748   0.99371   0.44591   0.00000  Uiso   1.00
N89    N     0.03565   0.45468   0.33405   0.00000  Uiso   1.00
N90    N     0.23312   0.14459   0.06375   0.00000  Uiso   1.00
N91    N     0.41525   0.04489   0.44067   0.00000  Uiso   1.00
N92    N     0.16341   0.50586   0.32881   0.00000  Uiso   1.00
C93    C     0.36844   0.67612   0.21659   0.00000  Uiso   1.00
C94    C     0.34444   0.66584   0.27697   0.00000  Uiso   1.00
C95    C     0.39543   0.62869   0.32481   0.00000  Uiso   1.00
C96    C     0.36188   0.62537   0.37619   0.00000  Uiso   1.00
C97    C     0.33702   0.60441   0.46942   0.00000  Uiso   1.00
C98    C     0.29424   0.63835   0.17309   0.00000  Uiso   1.00
C99    C     0.30303   0.57809   0.13359   0.00000  Uiso   1.00
C100   C     0.22722   0.55164   0.09752   0.00000  Uiso   1.00
C101   C     0.12443   0.48804   0.02945   0.00000  Uiso   1.00
C102   C     0.36365   0.76540   0.20393   0.00000  Uiso   1.00
C103   C     0.43080   0.81195   0.19034   0.00000  Uiso   1.00
C104   C     0.41342   0.89246   0.18022   0.00000  Uiso   1.00
C105   C     0.41840   0.02611   0.16003   0.00000  Uiso   1.00
C106   C     0.21818   0.73631   0.22274   0.00000  Uiso   1.00
C107   C     0.26283   0.69853   0.28031   0.00000  Uiso   1.00
C108   C     0.22920   0.69528   0.33162   0.00000  Uiso   1.00
C109   C     0.28013   0.65812   0.37954   0.00000  Uiso   1.00
C110   C     0.21263   0.67104   0.17643   0.00000  Uiso   1.00
C111   C     0.13679   0.64468   0.14040   0.00000  Uiso   1.00
C112   C     0.14546   0.58439   0.10086   0.00000  Uiso   1.00
C113   C     0.28204   0.79809   0.20727   0.00000  Uiso   1.00
C114   C     0.26456   0.87854   0.19716   0.00000  Uiso   1.00
C115   C     0.33166   0.92521   0.18357   0.00000  Uiso   1.00
H116   H     0.43197   0.65067   0.21398   0.00000  Uiso   1.00
H117   H     0.45858   0.60339   0.32221   0.00000  Uiso   1.00
H118   H     0.36620   0.55281   0.13101   0.00000  Uiso   1.00
H119   H     0.49394   0.78663   0.18776   0.00000  Uiso   1.00
H120   H     0.45208   0.56536   0.44366   0.00000  Uiso   1.00
H121   H     0.25728   0.45873   0.04050   0.00000  Uiso   1.00
H122   H     0.52666   0.95180   0.16016   0.00000  Uiso   1.00
H123   H     0.15464   0.76176   0.22535   0.00000  Uiso   1.00
H124   H     0.16604   0.72058   0.33420   0.00000  Uiso   1.00
H125   H     0.07365   0.66999   0.14300   0.00000  Uiso   1.00
H126   H     0.20140   0.90382   0.19975   0.00000  Uiso   1.00
H127   H     0.21464   0.66047   0.45339   0.00000  Uiso   1.00
H128   H     0.01984   0.55385   0.05023   0.00000  Uiso   1.00
H129   H     0.28922   0.04691   0.16990   0.00000  Uiso   1.00
O130   O     0.34585   0.58380   0.51992   0.00000  Uiso   1.00
O131   O     0.09029   0.44392   0.99098   0.00000  Uiso   1.00
O132   O     0.44370   0.09081   0.14798   0.00000  Uiso   1.00
N133   N     0.39464   0.59341   0.43102   0.00000  Uiso   1.00
N134   N     0.21252   0.49371   0.05409   0.00000  Uiso   1.00
N135   N     0.46435   0.95468   0.16595   0.00000  Uiso   1.00
N136   N     0.26688   0.64459   0.43625   0.00000  Uiso   1.00
N137   N     0.08475   0.54489   0.05933   0.00000  Uiso   1.00
N138   N     0.33659   0.00586   0.17119   0.00000  Uiso   1.00
C139   C     0.86844   0.17612   0.21659   0.00000  Uiso   1.00
C140   C     0.84444   0.16584   0.27697   0.00000  Uiso   1.00
C141   C     0.89543   0.12869   0.32481   0.00000  Uiso   1.00
C142   C     0.86188   0.12537   0.37619   0.00000  Uiso   1.00
C143   C     0.83702   0.10441   0.46942   0.00000  Uiso   1.00
C144   C     0.79424   0.13835   0.17309   0.00000  Uiso   1.00
C145   C     0.80303   0.07809   0.13359   0.00000  Uiso   1.00
C146   C     0.72722   0.05164   0.09752   0.00000  Uiso   1.00
C147   C     0.62443   0.98804   0.02945   0.00000  Uiso   1.00
C148   C     0.86365   0.26540   0.20393   0.00000  Uiso   1.00
C149   C     0.93080   0.31195   0.19034   0.00000  Uiso   1.00
C150   C     0.91342   0.39246   0.18022   0.00000  Uiso   1.00
C151   C     0.91840   0.52611   0.16003   0.00000  Uiso   1.00
C152   C     0.71818   0.23631   0.22274   0.00000  Uiso   1.00
C153   C     0.76283   0.19853   0.28031   0.00000  Uiso   1.00
C154   C     0.72920   0.19528   0.33162   0.00000  Uiso   1.00
C155   C     0.78013   0.15812   0.37954   0.00000  Uiso   1.00
C156   C     0.71263   0.17104   0.17643   0.00000  Uiso   1.00
C157   C     0.63679   0.14468   0.14040   0.00000  Uiso   1.00
C158   C     0.64546   0.08439   0.10086   0.00000  Uiso   1.00
C159   C     0.78204   0.29809   0.20727   0.00000  Uiso   1.00
C160   C     0.76456   0.37854   0.19716   0.00000  Uiso   1.00
C161   C     0.83166   0.42521   0.18357   0.00000  Uiso   1.00
H162   H     0.93197   0.15067   0.21398   0.00000  Uiso   1.00
H163   H     0.95858   0.10339   0.32221   0.00000  Uiso   1.00
H164   H     0.86620   0.05281   0.13101   0.00000  Uiso   1.00
H165   H     0.99394   0.28663   0.18776   0.00000  Uiso   1.00
H166   H     0.95208   0.06536   0.44366   0.00000  Uiso   1.00
H167   H     0.75728   0.95873   0.04050   0.00000  Uiso   1.00
H168   H     0.02666   0.45180   0.16016   0.00000  Uiso   1.00
H169   H     0.65464   0.26176   0.22535   0.00000  Uiso   1.00
H170   H     0.66604   0.22058   0.33420   0.00000  Uiso   1.00
H171   H     0.57365   0.16999   0.14300   0.00000  Uiso   1.00
H172   H     0.70140   0.40382   0.19975   0.00000  Uiso   1.00
H173   H     0.71464   0.16047   0.45339   0.00000  Uiso   1.00
H174   H     0.51984   0.05385   0.05023   0.00000  Uiso   1.00
H175   H     0.78922   0.54691   0.16990   0.00000  Uiso   1.00
O176   O     0.84585   0.08380   0.51992   0.00000  Uiso   1.00
O177   O     0.59029   0.94392   0.99098   0.00000  Uiso   1.00
O178   O     0.94370   0.59081   0.14798   0.00000  Uiso   1.00
N179   N     0.89464   0.09341   0.43102   0.00000  Uiso   1.00
N180   N     0.71252   0.99371   0.05409   0.00000  Uiso   1.00
N181   N     0.96435   0.45468   0.16595   0.00000  Uiso   1.00
N182   N     0.76688   0.14459   0.43625   0.00000  Uiso   1.00
N183   N     0.58475   0.04489   0.05933   0.00000  Uiso   1.00
N184   N     0.83659   0.50586   0.17119   0.00000  Uiso   1.00
C185   C     0.36844   0.32388   0.71659   0.00000  Uiso   1.00
C186   C     0.34444   0.33416   0.77697   0.00000  Uiso   1.00
C187   C     0.39543   0.37131   0.82481   0.00000  Uiso   1.00
C188   C     0.36188   0.37463   0.87619   0.00000  Uiso   1.00
C189   C     0.33702   0.39559   0.96942   0.00000  Uiso   1.00
C190   C     0.29424   0.36165   0.67309   0.00000  Uiso   1.00
C191   C     0.30303   0.42191   0.63359   0.00000  Uiso   1.00
C192   C     0.22722   0.44836   0.59752   0.00000  Uiso   1.00
C193   C     0.12443   0.51196   0.52945   0.00000  Uiso   1.00
C194   C     0.36365   0.23460   0.70393   0.00000  Uiso   1.00
C195   C     0.43080   0.18805   0.69034   0.00000  Uiso   1.00
C196   C     0.41342   0.10754   0.68022   0.00000  Uiso   1.00
C197   C     0.41840   0.97389   0.66003   0.00000  Uiso   1.00
C198   C     0.21818   0.26369   0.72274   0.00000  Uiso   1.00
C199   C     0.26283   0.30147   0.78031   0.00000  Uiso   1.00
C200   C     0.22920   0.30472   0.83162   0.00000  Uiso   1.00
C201   C     0.28013   0.34188   0.87954   0.00000  Uiso   1.00
C202   C     0.21263   0.32896   0.67643   0.00000  Uiso   1.00
C203   C     0.13679   0.35532   0.64040   0.00000  Uiso   1.00
C204   C     0.14546   0.41561   0.60086   0.00000  Uiso   1.00
C205   C     0.28204   0.20191   0.70727   0.00000  Uiso   1.00
C206   C     0.26456   0.12146   0.69716   0.00000  Uiso   1.00
C207   C     0.33166   0.07479   0.68357   0.00000  Uiso   1.00
H208   H     0.43197   0.34933   0.71398   0.00000  Uiso   1.00
H209   H     0.45858   0.39661   0.82221   0.00000  Uiso   1.00
H210   H     0.36620   0.44719   0.63101   0.00000  Uiso   1.00
H211   H     0.49394   0.21337   0.68776   0.00000  Uiso   1.00
H212   H     0.45208   0.43464   0.94366   0.00000  Uiso   1.00
H213   H     0.25728   0.54127   0.54050   0.00000  Uiso   1.00
H214   H     0.52666   0.04820   0.66016   0.00000  Uiso   1.00
H215   H     0.15464   0.23824   0.72535   0.00000  Uiso   1.00
H216   H     0.16604   0.27942   0.83420   0.00000  Uiso   1.00
H217   H     0.07365   0.33001   0.64300   0.00000  Uiso   1.00
H218   H     0.20140   0.09618   0.69975   0.00000  Uiso   1.00
H219   H     0.21464   0.33953   0.95339   0.00000  Uiso   1.00
H220   H     0.01984   0.44615   0.55023   0.00000  Uiso   1.00
H221   H     0.28922   0.95309   0.66990   0.00000  Uiso   1.00
O222   O     0.34585   0.41620   0.01992   0.00000  Uiso   1.00
O223   O     0.09029   0.55608   0.49098   0.00000  Uiso   1.00
O224   O     0.44370   0.90919   0.64798   0.00000  Uiso   1.00
N225   N     0.39464   0.40659   0.93102   0.00000  Uiso   1.00
N226   N     0.21252   0.50629   0.55409   0.00000  Uiso   1.00
N227   N     0.46435   0.04532   0.66595   0.00000  Uiso   1.00
N228   N     0.26688   0.35541   0.93625   0.00000  Uiso   1.00
N229   N     0.08475   0.45511   0.55933   0.00000  Uiso   1.00
N230   N     0.33659   0.99414   0.67119   0.00000  Uiso   1.00
C231   C     0.86844   0.82388   0.71659   0.00000  Uiso   1.00
C232   C     0.84444   0.83416   0.77697   0.00000  Uiso   1.00
C233   C     0.89543   0.87131   0.82481   0.00000  Uiso   1.00
C234   C     0.86188   0.87463   0.87619   0.00000  Uiso   1.00
C235   C     0.83702   0.89559   0.96942   0.00000  Uiso   1.00
C236   C     0.79424   0.86165   0.67309   0.00000  Uiso   1.00
C237   C     0.80303   0.92191   0.63359   0.00000  Uiso   1.00
C238   C     0.72722   0.94836   0.59752   0.00000  Uiso   1.00
C239   C     0.62443   0.01196   0.52945   0.00000  Uiso   1.00
C240   C     0.86365   0.73460   0.70393   0.00000  Uiso   1.00
C241   C     0.93080   0.68805   0.69034   0.00000  Uiso   1.00
C242   C     0.91342   0.60754   0.68022   0.00000  Uiso   1.00
C243   C     0.91840   0.47389   0.66003   0.00000  Uiso   1.00
C244   C     0.71818   0.76369   0.72274   0.00000  Uiso   1.00
C245   C     0.76283   0.80147   0.78031   0.00000  Uiso   1.00
C246   C     0.72920   0.80472   0.83162   0.00000  Uiso   1.00
C247   C     0.78013   0.84188   0.87954   0.00000  Uiso   1.00
C248   C     0.71263   0.82896   0.67643   0.00000  Uiso   1.00
C249   C     0.63679   0.85532   0.64040   0.00000  Uiso   1.00
C250   C     0.64546   0.91561   0.60086   0.00000  Uiso   1.00
C251   C     0.78204   0.70191   0.70727   0.00000  Uiso   1.00
C252   C     0.76456   0.62146   0.69716   0.00000  Uiso   1.00
C253   C     0.83166   0.57479   0.68357   0.00000  Uiso   1.00
H254   H     0.93197   0.84933   0.71398   0.00000  Uiso   1.00
H255   H     0.95858   0.89661   0.82221   0.00000  Uiso   1.00
H256   H     0.86620   0.94719   0.63101   0.00000  Uiso   1.00
H257   H     0.99394   0.71337   0.68776   0.00000  Uiso   1.00
H258   H     0.95208   0.93464   0.94366   0.00000  Uiso   1.00
H259   H     0.75728   0.04127   0.54050   0.00000  Uiso   1.00
H260   H     0.02666   0.54820   0.66016   0.00000  Uiso   1.00
H261   H     0.65464   0.73824   0.72535   0.00000  Uiso   1.00
H262   H     0.66604   0.77942   0.83420   0.00000  Uiso   1.00
H263   H     0.57365   0.83001   0.64300   0.00000  Uiso   1.00
H264   H     0.70140   0.59618   0.69975   0.00000  Uiso   1.00
H265   H     0.71464   0.83953   0.95339   0.00000  Uiso   1.00
H266   H     0.51984   0.94615   0.55023   0.00000  Uiso   1.00
H267   H     0.78922   0.45309   0.66990   0.00000  Uiso   1.00
O268   O     0.84585   0.91620   0.01992   0.00000  Uiso   1.00
O269   O     0.59029   0.05608   0.49098   0.00000  Uiso   1.00
O270   O     0.94370   0.40919   0.64798   0.00000  Uiso   1.00
N271   N     0.89464   0.90659   0.93102   0.00000  Uiso   1.00
N272   N     0.71252   0.00629   0.55409   0.00000  Uiso   1.00
N273   N     0.96435   0.54532   0.66595   0.00000  Uiso   1.00
N274   N     0.76688   0.85541   0.93625   0.00000  Uiso   1.00
N275   N     0.58475   0.95511   0.55933   0.00000  Uiso   1.00
N276   N     0.83659   0.49414   0.67119   0.00000  Uiso   1.00
C277   C     0.63156   0.32388   0.78341   0.00000  Uiso   1.00
C278   C     0.65556   0.33416   0.72303   0.00000  Uiso   1.00
C279   C     0.60457   0.37131   0.67519   0.00000  Uiso   1.00
C280   C     0.63812   0.37463   0.62381   0.00000  Uiso   1.00
C281   C     0.66298   0.39559   0.53058   0.00000  Uiso   1.00
C282   C     0.70576   0.36165   0.82691   0.00000  Uiso   1.00
C283   C     0.69697   0.42191   0.86641   0.00000  Uiso   1.00
C284   C     0.77278   0.44836   0.90248   0.00000  Uiso   1.00
C285   C     0.87557   0.51196   0.97055   0.00000  Uiso   1.00
C286   C     0.63635   0.23460   0.79607   0.00000  Uiso   1.00
C287   C     0.56920   0.18805   0.80966   0.00000  Uiso   1.00
C288   C     0.58658   0.10754   0.81978   0.00000  Uiso   1.00
C289   C     0.58160   0.97389   0.83997   0.00000  Uiso   1.00
C290   C     0.78182   0.26369   0.77726   0.00000  Uiso   1.00
C291   C     0.73717   0.30147   0.71969   0.00000  Uiso   1.00
C292   C     0.77080   0.30472   0.66838   0.00000  Uiso   1.00
C293   C     0.71987   0.34188   0.62046   0.00000  Uiso   1.00
C294   C     0.78737   0.32896   0.82357   0.00000  Uiso   1.00
C295   C     0.86321   0.35532   0.85960   0.00000  Uiso   1.00
C296   C     0.85454   0.41561   0.89914   0.00000  Uiso   1.00
C297   C     0.71796   0.20191   0.79273   0.00000  Uiso   1.00
C298   C     0.73544   0.12146   0.80284   0.00000  Uiso   1.00
C299   C     0.66834   0.07479   0.81643   0.00000  Uiso   1.00
H300   H     0.56803   0.34933   0.78602   0.00000  Uiso   1.00
H301   H     0.54142   0.39661   0.67779   0.00000  Uiso   1.00
H302   H     0.63380   0.44719   0.86899   0.00000  Uiso   1.00
H303   H     0.50606   0.21337   0.81224   0.00000  Uiso   1.00
H304   H     0.54792   0.43464   0.55634   0.00000  Uiso   1.00
H305   H     0.74272   0.54127   0.95950   0.00000  Uiso   1.00
H306   H     0.47334   0.04820   0.83984   0.00000  Uiso   1.00
H307   H     0.84536   0.23824   0.77465   0.00000  Uiso   1.00
H308   H     0.83396   0.27942   0.66580   0.00000  Uiso   1.00
H309   H     0.92635   0.33001   0.85700   0.00000  Uiso   1.00
H310   H     0.79860   0.09618   0.80025   0.00000  Uiso   1.00
H311   H     0.78536   0.33953   0.54661   0.00000  Uiso   1.00
H312   H     0.98016   0.44615   0.94977   0.00000  Uiso   1.00
H313   H     0.71078   0.95309   0.83010   0.00000  Uiso   1.00
O314   O     0.65415   0.41620   0.48008   0.00000  Uiso   1.00
O315   O     0.90971   0.55608   0.00902   0.00000  Uiso   1.00
O316   O     0.55630   0.90919   0.85202   0.00000  Uiso   1.00
N317   N     0.60536   0.40659   0.56898   0.00000  Uiso   1.00
N318   N     0.78748   0.50629   0.94591   0.00000  Uiso   1.00
N319   N     0.53565   0.04532   0.83405   0.00000  Uiso   1.00
N320   N     0.73312   0.35541   0.56375   0.00000  Uiso   1.00
N321   N     0.91525   0.45511   0.94067   0.00000  Uiso   1.00
N322   N     0.66341   0.99414   0.82881   0.00000  Uiso   1.00
C323   C     0.13156   0.82388   0.78341   0.00000  Uiso   1.00
C324   C     0.15556   0.83416   0.72303   0.00000  Uiso   1.00
C325   C     0.10457   0.87131   0.67519   0.00000  Uiso   1.00
C326   C     0.13812   0.87463   0.62381   0.00000  Uiso   1.00
C327   C     0.16298   0.89559   0.53058   0.00000  Uiso   1.00
C328   C     0.20576   0.86165   0.82691   0.00000  Uiso   1.00
C329   C     0.19697   0.92191   0.86641   0.00000  Uiso   1.00
C330   C     0.27278   0.94836   0.90248   0.00000  Uiso   1.00
C331   C     0.37557   0.01196   0.97055   0.00000  Uiso   1.00
C332   C     0.13635   0.73460   0.79607   0.00000  Uiso   1.00
C333   C     0.06920   0.68805   0.80966   0.00000  Uiso   1.00
C334   C     0.08658   0.60754   0.81978   0.00000  Uiso   1.00
C335   C     0.08160   0.47389   0.83997   0.00000  Uiso   1.00
C336   C     0.28182   0.76369   0.77726   0.00000  Uiso   1.00
C337   C     0.23717   0.80147   0.71969   0.00000  Uiso   1.00
C338   C     0.27080   0.80472   0.66838   0.00000  Uiso   1.00
C339   C     0.21987   0.84188   0.62046   0.00000  Uiso   1.00
C340   C     0.28737   0.82896   0.82357   0.00000  Uiso   1.00
C341   C     0.36321   0.85532   0.85960   0.00000  Uiso   1.00
C342   C     0.35454   0.91561   0.89914   0.00000  Uiso   1.00
C343   C     0.21796   0.70191   0.79273   0.00000  Uiso   1.00
C344   C     0.23544   0.62146   0.80284   0.00000  Uiso   1.00
C345   C     0.16834   0.57479   0.81643   0.00000  Uiso   1.00
H346   H     0.06803   0.84933   0.78602   0.00000  Uiso   1.00
H347   H     0.04142   0.89661   0.67779   0.00000  Uiso   1.00
H348   H     0.13380   0.94719   0.86899   0.00000  Uiso   1.00
H349   H     0.00606   0.71337   0.81224   0.00000  Uiso   1.00
H350   H     0.04792   0.93464   0.55634   0.00000  Uiso   1.00
H351   H     0.24272   0.04127   0.95950   0.00000  Uiso   1.00
H352   H     0.97334   0.54820   0.83984   0.00000  Uiso   1.00
H353   H     0.34536   0.73824   0.77465   0.00000  Uiso   1.00
H354   H     0.33396   0.77942   0.66580   0.00000  Uiso   1.00
H355   H     0.42635   0.83001   0.85700   0.00000  Uiso   1.00
H356   H     0.29860   0.59618   0.80025   0.00000  Uiso   1.00
H357   H     0.28536   0.83953   0.54661   0.00000  Uiso   1.00
H358   H     0.48016   0.94615   0.94977   0.00000  Uiso   1.00
H359   H     0.21078   0.45309   0.83010   0.00000  Uiso   1.00
O360   O     0.15415   0.91620   0.48008   0.00000  Uiso   1.00
O361   O     0.40971   0.05608   0.00902   0.00000  Uiso   1.00
O362   O     0.05630   0.40919   0.85202   0.00000  Uiso   1.00
N363   N     0.10536   0.90659   0.56898   0.00000  Uiso   1.00
N364   N     0.28748   0.00629   0.94591   0.00000  Uiso   1.00
N365   N     0.03565   0.54532   0.83405   0.00000  Uiso   1.00
N366   N     0.23312   0.85541   0.56375   0.00000  Uiso   1.00
N367   N     0.41525   0.95511   0.94067   0.00000  Uiso   1.00
N368   N     0.16341   0.49414   0.82881   0.00000  Uiso   1.00
