data_job_06524
_audit_creation_date              2018-12-19
_audit_creation_method            'Materials Studio'
_symmetry_space_group_name_H-M    'P1'
_symmetry_Int_Tables_number       1
_symmetry_cell_setting            triclinic
loop_
_symmetry_equiv_pos_as_xyz
  x,y,z
_cell_length_a                    19.4289
_cell_length_b                    20.1551
_cell_length_c                    20.7181
_cell_angle_alpha                 113.5630
_cell_angle_beta                  100.1390
_cell_angle_gamma                 102.9360
loop_
_atom_site_label
_atom_site_type_symbol
_atom_site_fract_x
_atom_site_fract_y
_atom_site_fract_z
_atom_site_U_iso_or_equiv
_atom_site_adp_type
_atom_site_occupancy
C1     C     0.80289   0.63375   0.38468   0.00000  Uiso   1.00
C2     C     0.76215   0.61493   0.43492   0.00000  Uiso   1.00
C3     C     0.79488   0.61638   0.50087   0.00000  Uiso   1.00
C4     C     0.74802   0.59728   0.53872   0.00000  Uiso   1.00
C5     C     0.69644   0.57103   0.62085   0.00000  Uiso   1.00
C6     C     0.77012   0.56368   0.30922   0.00000  Uiso   1.00
C7     C     0.80955   0.52206   0.26949   0.00000  Uiso   1.00
C8     C     0.76940   0.45983   0.20152   0.00000  Uiso   1.00
C9     C     0.73021   0.35405   0.08849   0.00000  Uiso   1.00
C10    C     0.77948   0.69762   0.37557   0.00000  Uiso   1.00
C11    C     0.82680   0.76861   0.39161   0.00000  Uiso   1.00
C12    C     0.79453   0.81913   0.37948   0.00000  Uiso   1.00
C13    C     0.76988   0.92132   0.36947   0.00000  Uiso   1.00
C14    C     0.66147   0.59724   0.33461   0.00000  Uiso   1.00
C15    C     0.68533   0.59509   0.40772   0.00000  Uiso   1.00
C16    C     0.63841   0.57599   0.44548   0.00000  Uiso   1.00
C17    C     0.67107   0.57742   0.51148   0.00000  Uiso   1.00
C18    C     0.69331   0.54385   0.28203   0.00000  Uiso   1.00
C19    C     0.65309   0.48167   0.21410   0.00000  Uiso   1.00
C20    C     0.69245   0.43996   0.17428   0.00000  Uiso   1.00
C21    C     0.70267   0.67779   0.34838   0.00000  Uiso   1.00
C22    C     0.67033   0.72821   0.33622   0.00000  Uiso   1.00
C23    C     0.71758   0.79927   0.35224   0.00000  Uiso   1.00
H24    H     0.86269   0.64919   0.40584   0.00000  Uiso   1.00
H25    H     0.85432   0.63173   0.52189   0.00000  Uiso   1.00
H26    H     0.86900   0.53743   0.29055   0.00000  Uiso   1.00
H27    H     0.88623   0.78394   0.41265   0.00000  Uiso   1.00
H28    H     0.81117   0.60359   0.63855   0.00000  Uiso   1.00
H29    H     0.84212   0.40477   0.15073   0.00000  Uiso   1.00
H30    H     0.87847   0.92458   0.40821   0.00000  Uiso   1.00
H31    H     0.60167   0.58180   0.31344   0.00000  Uiso   1.00
H32    H     0.57897   0.56064   0.42442   0.00000  Uiso   1.00
H33    H     0.59365   0.46634   0.19308   0.00000  Uiso   1.00
H34    H     0.61089   0.71285   0.31518   0.00000  Uiso   1.00
H35    H     0.58769   0.54589   0.55944   0.00000  Uiso   1.00
H36    H     0.61864   0.34707   0.07162   0.00000  Uiso   1.00
H37    H     0.65498   0.86688   0.32910   0.00000  Uiso   1.00
O38    O     0.68921   0.56202   0.67365   0.00000  Uiso   1.00
O39    O     0.72981   0.30118   0.03366   0.00000  Uiso   1.00
O40    O     0.77750   0.98316   0.37146   0.00000  Uiso   1.00
N41    N     0.76169   0.59293   0.60471   0.00000  Uiso   1.00
N42    N     0.79062   0.40704   0.14863   0.00000  Uiso   1.00
N43    N     0.82461   0.89301   0.38933   0.00000  Uiso   1.00
N44    N     0.64143   0.56189   0.56214   0.00000  Uiso   1.00
N45    N     0.67037   0.37599   0.10606   0.00000  Uiso   1.00
N46    N     0.70435   0.86196   0.34676   0.00000  Uiso   1.00
C47    C     0.46656   0.80940   0.59570   0.00000  Uiso   1.00
C48    C     0.54335   0.81018   0.58810   0.00000  Uiso   1.00
C49    C     0.59102   0.86352   0.57606   0.00000  Uiso   1.00
C50    C     0.65883   0.85429   0.57071   0.00000  Uiso   1.00
C51    C     0.77511   0.86467   0.55789   0.00000  Uiso   1.00
C52    C     0.41353   0.73104   0.53724   0.00000  Uiso   1.00
C53    C     0.35204   0.71786   0.48244   0.00000  Uiso   1.00
C54    C     0.31056   0.64201   0.43427   0.00000  Uiso   1.00
C55    C     0.22526   0.52953   0.34252   0.00000  Uiso   1.00
C56    C     0.46723   0.81073   0.66993   0.00000  Uiso   1.00
C57    C     0.45087   0.86454   0.72668   0.00000  Uiso   1.00
C58    C     0.45460   0.85577   0.79023   0.00000  Uiso   1.00
C59    C     0.45268   0.86702   0.90449   0.00000  Uiso   1.00
C60    C     0.50223   0.69815   0.60762   0.00000  Uiso   1.00
C61    C     0.56273   0.74975   0.59458   0.00000  Uiso   1.00
C62    C     0.63049   0.74043   0.58924   0.00000  Uiso   1.00
C63    C     0.67825   0.79376   0.57719   0.00000  Uiso   1.00
C64    C     0.43290   0.67062   0.54371   0.00000  Uiso   1.00
C65    C     0.39151   0.59477   0.49562   0.00000  Uiso   1.00
C66    C     0.32997   0.58147   0.44075   0.00000  Uiso   1.00
C67    C     0.48661   0.75031   0.67640   0.00000  Uiso   1.00
C68    C     0.49035   0.74145   0.73987   0.00000  Uiso   1.00
C69    C     0.47401   0.79523   0.79671   0.00000  Uiso   1.00
H70    H     0.45147   0.85644   0.59066   0.00000  Uiso   1.00
H71    H     0.57600   0.91027   0.57105   0.00000  Uiso   1.00
H72    H     0.33705   0.76463   0.47745   0.00000  Uiso   1.00
H73    H     0.43588   0.91129   0.72165   0.00000  Uiso   1.00
H74    H     0.72260   0.94329   0.55213   0.00000  Uiso   1.00
H75    H     0.21876   0.63620   0.35478   0.00000  Uiso   1.00
H76    H     0.42715   0.94546   0.86974   0.00000  Uiso   1.00
H77    H     0.51732   0.65110   0.61266   0.00000  Uiso   1.00
H78    H     0.64547   0.69366   0.59425   0.00000  Uiso   1.00
H79    H     0.40652   0.54802   0.50065   0.00000  Uiso   1.00
H80    H     0.50535   0.69468   0.74486   0.00000  Uiso   1.00
H81    H     0.77898   0.76748   0.57096   0.00000  Uiso   1.00
H82    H     0.27513   0.46039   0.37361   0.00000  Uiso   1.00
H83    H     0.48354   0.76965   0.88857   0.00000  Uiso   1.00
O84    O     0.83389   0.88708   0.54901   0.00000  Uiso   1.00
O85    O     0.17286   0.48419   0.29011   0.00000  Uiso   1.00
O86    O     0.44628   0.88993   0.96573   0.00000  Uiso   1.00
N87    N     0.71829   0.89608   0.55910   0.00000  Uiso   1.00
N88    N     0.24723   0.60897   0.37458   0.00000  Uiso   1.00
N89    N     0.44204   0.89809   0.85602   0.00000  Uiso   1.00
N90    N     0.74863   0.80148   0.56924   0.00000  Uiso   1.00
N91    N     0.27757   0.51437   0.38472   0.00000  Uiso   1.00
N92    N     0.47239   0.80349   0.86616   0.00000  Uiso   1.00
C93    C     0.78220   0.28608   0.73572   0.00000  Uiso   1.00
C94    C     0.75997   0.35819   0.75914   0.00000  Uiso   1.00
C95    C     0.72761   0.38486   0.81482   0.00000  Uiso   1.00
C96    C     0.71144   0.45193   0.82778   0.00000  Uiso   1.00
C97    C     0.67451   0.55795   0.87040   0.00000  Uiso   1.00
C98    C     0.74211   0.23733   0.65351   0.00000  Uiso   1.00
C99    C     0.69474   0.16238   0.62038   0.00000  Uiso   1.00
C100   C     0.66355   0.12771   0.54442   0.00000  Uiso   1.00
C101   C     0.59892   0.04608   0.42304   0.00000  Uiso   1.00
C102   C     0.86427   0.31184   0.74242   0.00000  Uiso   1.00
C103   C     0.91963   0.29951   0.78404   0.00000  Uiso   1.00
C104   C     0.99129   0.32755   0.78292   0.00000  Uiso   1.00
C105   C     0.11634   0.36160   0.79959   0.00000  Uiso   1.00
C106   C     0.81103   0.35776   0.65972   0.00000  Uiso   1.00
C107   C     0.77562   0.39712   0.71785   0.00000  Uiso   1.00
C108   C     0.75950   0.46417   0.73074   0.00000  Uiso   1.00
C109   C     0.72713   0.49093   0.78643   0.00000  Uiso   1.00
C110   C     0.75776   0.27626   0.61223   0.00000  Uiso   1.00
C111   C     0.72663   0.24169   0.53629   0.00000  Uiso   1.00
C112   C     0.67923   0.16671   0.50306   0.00000  Uiso   1.00
C113   C     0.87993   0.35077   0.70114   0.00000  Uiso   1.00
C114   C     0.95152   0.37883   0.69995   0.00000  Uiso   1.00
C115   C     0.00697   0.36655   0.74156   0.00000  Uiso   1.00
H116   H     0.77001   0.25576   0.76786   0.00000  Uiso   1.00
H117   H     0.71550   0.35471   0.84676   0.00000  Uiso   1.00
H118   H     0.68264   0.13226   0.65234   0.00000  Uiso   1.00
H119   H     0.90749   0.26938   0.81597   0.00000  Uiso   1.00
H120   H     0.66194   0.48156   0.91601   0.00000  Uiso   1.00
H121   H     0.59268   0.01252   0.50608   0.00000  Uiso   1.00
H122   H     0.06682   0.30165   0.85112   0.00000  Uiso   1.00
H123   H     0.82321   0.38807   0.62757   0.00000  Uiso   1.00
H124   H     0.77162   0.49429   0.69878   0.00000  Uiso   1.00
H125   H     0.73877   0.27184   0.50437   0.00000  Uiso   1.00
H126   H     0.96361   0.40895   0.66800   0.00000  Uiso   1.00
H127   H     0.70749   0.59485   0.79590   0.00000  Uiso   1.00
H128   H     0.63823   0.12580   0.38597   0.00000  Uiso   1.00
H129   H     0.11237   0.41493   0.73102   0.00000  Uiso   1.00
O130   O     0.64980   0.60567   0.90531   0.00000  Uiso   1.00
O131   O     0.55894   0.99030   0.36750   0.00000  Uiso   1.00
O132   O     0.18100   0.36964   0.82019   0.00000  Uiso   1.00
N133   N     0.67976   0.49366   0.87798   0.00000  Uiso   1.00
N134   N     0.61499   0.05513   0.49472   0.00000  Uiso   1.00
N135   N     0.05827   0.32543   0.81729   0.00000  Uiso   1.00
N136   N     0.70427   0.55461   0.81335   0.00000  Uiso   1.00
N137   N     0.63950   0.11609   0.43009   0.00000  Uiso   1.00
N138   N     0.08278   0.38639   0.75267   0.00000  Uiso   1.00
C139   C     0.30973   0.91302   0.10427   0.00000  Uiso   1.00
C140   C     0.29200   0.98705   0.12075   0.00000  Uiso   1.00
C141   C     0.33655   0.05217   0.12211   0.00000  Uiso   1.00
C142   C     0.31048   0.11395   0.13831   0.00000  Uiso   1.00
C143   C     0.29332   0.22939   0.16168   0.00000  Uiso   1.00
C144   C     0.24503   0.84962   0.03967   0.00000  Uiso   1.00
C145   C     0.25009   0.79919   0.97286   0.00000  Uiso   1.00
C146   C     0.18448   0.74527   0.92081   0.00000  Uiso   1.00
C147   C     0.09440   0.64731   0.81832   0.00000  Uiso   1.00
C148   C     0.30612   0.89821   0.17045   0.00000  Uiso   1.00
C149   C     0.36254   0.88862   0.21360   0.00000  Uiso   1.00
C150   C     0.34835   0.87560   0.27165   0.00000  Uiso   1.00
C151   C     0.35312   0.85309   0.37221   0.00000  Uiso   1.00
C152   C     0.18421   0.90692   0.13061   0.00000  Uiso   1.00
C153   C     0.22383   0.98373   0.13505   0.00000  Uiso   1.00
C154   C     0.19769   0.04543   0.15125   0.00000  Uiso   1.00
C155   C     0.24219   0.11064   0.15264   0.00000  Uiso   1.00
C156   C     0.17686   0.84630   0.05397   0.00000  Uiso   1.00
C157   C     0.11122   0.79244   0.00201   0.00000  Uiso   1.00
C158   C     0.11618   0.74195   0.93514   0.00000  Uiso   1.00
C159   C     0.23795   0.89490   0.18476   0.00000  Uiso   1.00
C160   C     0.22367   0.88188   0.24274   0.00000  Uiso   1.00
C161   C     0.28005   0.87228   0.28598   0.00000  Uiso   1.00
H162   H     0.36280   0.91559   0.09313   0.00000  Uiso   1.00
H163   H     0.38930   0.05471   0.11103   0.00000  Uiso   1.00
H164   H     0.30286   0.80176   0.96181   0.00000  Uiso   1.00
H165   H     0.41528   0.89119   0.20251   0.00000  Uiso   1.00
H166   H     0.38861   0.20748   0.13716   0.00000  Uiso   1.00
H167   H     0.20634   0.67410   0.82253   0.00000  Uiso   1.00
H168   H     0.44341   0.86267   0.33009   0.00000  Uiso   1.00
H169   H     0.13113   0.90434   0.14175   0.00000  Uiso   1.00
H170   H     0.14493   0.04285   0.16232   0.00000  Uiso   1.00
H171   H     0.05848   0.78990   0.01310   0.00000  Uiso   1.00
H172   H     0.17091   0.87932   0.25380   0.00000  Uiso   1.00
H173   H     0.19026   0.19785   0.17879   0.00000  Uiso   1.00
H174   H     0.00799   0.66447   0.86415   0.00000  Uiso   1.00
H175   H     0.24506   0.85304   0.37172   0.00000  Uiso   1.00
O176   O     0.30268   0.29397   0.17060   0.00000  Uiso   1.00
O177   O     0.06355   0.59419   0.75783   0.00000  Uiso   1.00
O178   O     0.37458   0.84160   0.42374   0.00000  Uiso   1.00
N179   N     0.34005   0.18621   0.14415   0.00000  Uiso   1.00
N180   N     0.16963   0.68754   0.84998   0.00000  Uiso   1.00
N181   N     0.39127   0.86382   0.32450   0.00000  Uiso   1.00
N182   N     0.23332   0.18103   0.16655   0.00000  Uiso   1.00
N183   N     0.06290   0.68236   0.87238   0.00000  Uiso   1.00
N184   N     0.28454   0.85864   0.34690   0.00000  Uiso   1.00
C185   C     0.89717   0.14798   0.23129   0.00000  Uiso   1.00
C186   C     0.95966   0.12613   0.26436   0.00000  Uiso   1.00
C187   C     0.95808   0.09507   0.31322   0.00000  Uiso   1.00
C188   C     0.02083   0.07904   0.33710   0.00000  Uiso   1.00
C189   C     0.10842   0.04287   0.39209   0.00000  Uiso   1.00
C190   C     0.87993   0.10389   0.14784   0.00000  Uiso   1.00
C191   C     0.81131   0.05414   0.09873   0.00000  Uiso   1.00
C192   C     0.80695   0.01940   0.02453   0.00000  Uiso   1.00
C193   C     0.77074   0.94874   0.89862   0.00000  Uiso   1.00
C194   C     0.93020   0.23224   0.25120   0.00000  Uiso   1.00
C195   C     0.90384   0.29042   0.28897   0.00000  Uiso   1.00
C196   C     0.94179   0.36374   0.30177   0.00000  Uiso   1.00
C197   C     0.98364   0.49238   0.33634   0.00000  Uiso   1.00
C198   C     0.01142   0.17473   0.18684   0.00000  Uiso   1.00
C199   C     0.02172   0.14066   0.24021   0.00000  Uiso   1.00
C200   C     0.08449   0.12467   0.26403   0.00000  Uiso   1.00
C201   C     0.08301   0.09360   0.31292   0.00000  Uiso   1.00
C202   C     0.94199   0.11841   0.12370   0.00000  Uiso   1.00
C203   C     0.93772   0.08374   0.04955   0.00000  Uiso   1.00
C204   C     0.86912   0.03395   0.00034   0.00000  Uiso   1.00
C205   C     0.99226   0.24677   0.22706   0.00000  Uiso   1.00
C206   C     0.03026   0.32002   0.23979   0.00000  Uiso   1.00
C207   C     0.00396   0.37830   0.27758   0.00000  Uiso   1.00
H208   H     0.84885   0.13666   0.25008   0.00000  Uiso   1.00
H209   H     0.91004   0.08383   0.33188   0.00000  Uiso   1.00
H210   H     0.76330   0.04292   0.11743   0.00000  Uiso   1.00
H211   H     0.85582   0.27916   0.30765   0.00000  Uiso   1.00
H212   H     0.00524   0.03164   0.41190   0.00000  Uiso   1.00
H213   H     0.69582   0.94539   0.95972   0.00000  Uiso   1.00
H214   H     0.89091   0.44355   0.36082   0.00000  Uiso   1.00
H215   H     0.05974   0.18604   0.16804   0.00000  Uiso   1.00
H216   H     0.13251   0.13592   0.24534   0.00000  Uiso   1.00
H217   H     0.98576   0.09500   0.03089   0.00000  Uiso   1.00
H218   H     0.07828   0.33124   0.22110   0.00000  Uiso   1.00
H219   H     0.18580   0.07391   0.34166   0.00000  Uiso   1.00
H220   H     0.87638   0.98766   0.88947   0.00000  Uiso   1.00
H221   H     0.07147   0.48582   0.29058   0.00000  Uiso   1.00
O222   O     0.13958   0.01889   0.42909   0.00000  Uiso   1.00
O223   O     0.73362   0.90574   0.83584   0.00000  Uiso   1.00
O224   O     0.98958   0.55932   0.36208   0.00000  Uiso   1.00
N225   N     0.03776   0.04848   0.38477   0.00000  Uiso   1.00
N226   N     0.74847   0.96783   0.96201   0.00000  Uiso   1.00
N227   N     0.93085   0.43357   0.33699   0.00000  Uiso   1.00
N228   N     0.13492   0.07123   0.34698   0.00000  Uiso   1.00
N229   N     0.84563   0.99058   0.92421   0.00000  Uiso   1.00
N230   N     0.02801   0.45631   0.29919   0.00000  Uiso   1.00
C231   C     0.31843   0.26391   0.78701   0.00000  Uiso   1.00
C232   C     0.27292   0.23149   0.82696   0.00000  Uiso   1.00
C233   C     0.27345   0.27093   0.89949   0.00000  Uiso   1.00
C234   C     0.22785   0.23114   0.92582   0.00000  Uiso   1.00
C235   C     0.16391   0.19244   0.99463   0.00000  Uiso   1.00
C236   C     0.26309   0.25283   0.71844   0.00000  Uiso   1.00
C237   C     0.25537   0.31021   0.69972   0.00000  Uiso   1.00
C238   C     0.20150   0.28837   0.63469   0.00000  Uiso   1.00
C239   C     0.12235   0.28280   0.53499   0.00000  Uiso   1.00
C240   C     0.36313   0.21093   0.75929   0.00000  Uiso   1.00
C241   C     0.43953   0.23307   0.77490   0.00000  Uiso   1.00
C242   C     0.46989   0.17596   0.74425   0.00000  Uiso   1.00
C243   C     0.54607   0.10532   0.70798   0.00000  Uiso   1.00
C244   C     0.23649   0.12310   0.70479   0.00000  Uiso   1.00
C245   C     0.22841   0.15501   0.78230   0.00000  Uiso   1.00
C246   C     0.18279   0.11514   0.80852   0.00000  Uiso   1.00
C247   C     0.18326   0.15452   0.88108   0.00000  Uiso   1.00
C248   C     0.21858   0.17635   0.67378   0.00000  Uiso   1.00
C249   C     0.16471   0.15442   0.60875   0.00000  Uiso   1.00
C250   C     0.15691   0.21175   0.58994   0.00000  Uiso   1.00
C251   C     0.31863   0.13444   0.71463   0.00000  Uiso   1.00
C252   C     0.34887   0.07728   0.68394   0.00000  Uiso   1.00
C253   C     0.42530   0.09934   0.69950   0.00000  Uiso   1.00
H254   H     0.35308   0.32346   0.82178   0.00000  Uiso   1.00
H255   H     0.30790   0.33012   0.93404   0.00000  Uiso   1.00
H256   H     0.28982   0.36939   0.73429   0.00000  Uiso   1.00
H257   H     0.47395   0.29226   0.80946   0.00000  Uiso   1.00
H258   H     0.23815   0.30379   0.03879   0.00000  Uiso   1.00
H259   H     0.20007   0.38659   0.61760   0.00000  Uiso   1.00
H260   H     0.58834   0.22395   0.77612   0.00000  Uiso   1.00
H261   H     0.20184   0.06356   0.67002   0.00000  Uiso   1.00
H262   H     0.14836   0.05596   0.77395   0.00000  Uiso   1.00
H263   H     0.13029   0.09523   0.57420   0.00000  Uiso   1.00
H264   H     0.31442   0.01810   0.64938   0.00000  Uiso   1.00
H265   H     0.10867   0.08127   0.90886   0.00000  Uiso   1.00
H266   H     0.07058   0.16407   0.48767   0.00000  Uiso   1.00
H267   H     0.45886   0.00143   0.64619   0.00000  Uiso   1.00
O268   O     0.14094   0.19223   0.04492   0.00000  Uiso   1.00
O269   O     0.09098   0.30085   0.49234   0.00000  Uiso   1.00
O270   O     0.60039   0.08748   0.70031   0.00000  Uiso   1.00
N271   N     0.21503   0.25246   0.99395   0.00000  Uiso   1.00
N272   N     0.17941   0.32987   0.60017   0.00000  Uiso   1.00
N273   N     0.54242   0.17782   0.74836   0.00000  Uiso   1.00
N274   N     0.14535   0.13272   0.92404   0.00000  Uiso   1.00
N275   N     0.10974   0.21013   0.53026   0.00000  Uiso   1.00
N276   N     0.47274   0.05809   0.67844   0.00000  Uiso   1.00
C277   C     0.35889   0.35359   0.52716   0.00000  Uiso   1.00
C278   C     0.40436   0.36964   0.47892   0.00000  Uiso   1.00
C279   C     0.37798   0.37784   0.41673   0.00000  Uiso   1.00
C280   C     0.42838   0.39237   0.38018   0.00000  Uiso   1.00
C281   C     0.48772   0.41641   0.30152   0.00000  Uiso   1.00
C282   C     0.39816   0.41796   0.60521   0.00000  Uiso   1.00
C283   C     0.36657   0.46678   0.64921   0.00000  Uiso   1.00
C284   C     0.41174   0.52198   0.71898   0.00000  Uiso   1.00
C285   C     0.46144   0.62100   0.83641   0.00000  Uiso   1.00
C286   C     0.36763   0.28085   0.52866   0.00000  Uiso   1.00
C287   C     0.31037   0.21438   0.50831   0.00000  Uiso   1.00
C288   C     0.32984   0.15414   0.51364   0.00000  Uiso   1.00
C289   C     0.33213   0.04027   0.51221   0.00000  Uiso   1.00
C290   C     0.49529   0.36480   0.57285   0.00000  Uiso   1.00
C291   C     0.47845   0.37573   0.50374   0.00000  Uiso   1.00
C292   C     0.52889   0.39024   0.46727   0.00000  Uiso   1.00
C293   C     0.50260   0.39846   0.40503   0.00000  Uiso   1.00
C294   C     0.47224   0.42405   0.63003   0.00000  Uiso   1.00
C295   C     0.51747   0.47918   0.69975   0.00000  Uiso   1.00
C296   C     0.48596   0.52808   0.74384   0.00000  Uiso   1.00
C297   C     0.44172   0.28693   0.55347   0.00000  Uiso   1.00
C298   C     0.46128   0.22678   0.55885   0.00000  Uiso   1.00
C299   C     0.40406   0.16024   0.53850   0.00000  Uiso   1.00
H300   H     0.30122   0.34885   0.50785   0.00000  Uiso   1.00
H301   H     0.32065   0.37314   0.39755   0.00000  Uiso   1.00
H302   H     0.30923   0.46205   0.62999   0.00000  Uiso   1.00
H303   H     0.25304   0.20969   0.48911   0.00000  Uiso   1.00
H304   H     0.37487   0.40277   0.28622   0.00000  Uiso   1.00
H305   H     0.35079   0.59024   0.77635   0.00000  Uiso   1.00
H306   H     0.23231   0.05809   0.47927   0.00000  Uiso   1.00
H307   H     0.55297   0.36954   0.59217   0.00000  Uiso   1.00
H308   H     0.58622   0.39495   0.48649   0.00000  Uiso   1.00
H309   H     0.57480   0.48387   0.71894   0.00000  Uiso   1.00
H310   H     0.51862   0.23151   0.57805   0.00000  Uiso   1.00
H311   H     0.59042   0.42048   0.35841   0.00000  Uiso   1.00
H312   H     0.56634   0.60795   0.84854   0.00000  Uiso   1.00
H313   H     0.44786   0.07580   0.55146   0.00000  Uiso   1.00
O314   O     0.49998   0.42800   0.25129   0.00000  Uiso   1.00
O315   O     0.46838   0.67394   0.89433   0.00000  Uiso   1.00
O316   O     0.31294   0.97578   0.50456   0.00000  Uiso   1.00
N317   N     0.42103   0.40344   0.31770   0.00000  Uiso   1.00
N318   N     0.39852   0.57872   0.77594   0.00000  Uiso   1.00
N319   N     0.28775   0.08121   0.49822   0.00000  Uiso   1.00
N320   N     0.53702   0.41297   0.35654   0.00000  Uiso   1.00
N321   N     0.51451   0.58825   0.81479   0.00000  Uiso   1.00
N322   N     0.40374   0.09074   0.53706   0.00000  Uiso   1.00
C323   C     0.61441   0.12054   0.24306   0.00000  Uiso   1.00
C324   C     0.54489   0.12965   0.26500   0.00000  Uiso   1.00
C325   C     0.49559   0.07712   0.27659   0.00000  Uiso   1.00
C326   C     0.43536   0.09609   0.29637   0.00000  Uiso   1.00
C327   C     0.32903   0.09976   0.32928   0.00000  Uiso   1.00
C328   C     0.67828   0.19054   0.30192   0.00000  Uiso   1.00
C329   C     0.74115   0.18920   0.34452   0.00000  Uiso   1.00
C330   C     0.79320   0.25942   0.39537   0.00000  Uiso   1.00
C331   C     0.89400   0.35761   0.48555   0.00000  Uiso   1.00
C332   C     0.60682   0.12852   0.17221   0.00000  Uiso   1.00
C333   C     0.60961   0.07504   0.10577   0.00000  Uiso   1.00
C334   C     0.60152   0.09306   0.04741   0.00000  Uiso   1.00
C335   C     0.59135   0.09496   0.93621   0.00000  Uiso   1.00
C336   C     0.59509   0.24764   0.25758   0.00000  Uiso   1.00
C337   C     0.53440   0.19869   0.27290   0.00000  Uiso   1.00
C338   C     0.47422   0.21774   0.29266   0.00000  Uiso   1.00
C339   C     0.42484   0.16525   0.30427   0.00000  Uiso   1.00
C340   C     0.66779   0.25957   0.30981   0.00000  Uiso   1.00
C341   C     0.71977   0.32981   0.36060   0.00000  Uiso   1.00
C342   C     0.78269   0.32858   0.40327   0.00000  Uiso   1.00
C343   C     0.59632   0.19756   0.18010   0.00000  Uiso   1.00
C344   C     0.58823   0.21566   0.12184   0.00000  Uiso   1.00
C345   C     0.59101   0.16222   0.05532   0.00000  Uiso   1.00
H346   H     0.62258   0.06679   0.23692   0.00000  Uiso   1.00
H347   H     0.50374   0.02371   0.27048   0.00000  Uiso   1.00
H348   H     0.74925   0.13576   0.33840   0.00000  Uiso   1.00
H349   H     0.61774   0.02163   0.09968   0.00000  Uiso   1.00
H350   H     0.36737   0.00639   0.31120   0.00000  Uiso   1.00
H351   H     0.88506   0.24267   0.45440   0.00000  Uiso   1.00
H352   H     0.60773   0.00199   0.95101   0.00000  Uiso   1.00
H353   H     0.58692   0.30139   0.26373   0.00000  Uiso   1.00
H354   H     0.46611   0.27117   0.29876   0.00000  Uiso   1.00
H355   H     0.71163   0.38323   0.36668   0.00000  Uiso   1.00
H356   H     0.58011   0.26909   0.12797   0.00000  Uiso   1.00
H357   H     0.33683   0.20725   0.33416   0.00000  Uiso   1.00
H358   H     0.85453   0.44352   0.47735   0.00000  Uiso   1.00
H359   H     0.57720   0.20284   0.97397   0.00000  Uiso   1.00
O360   O     0.27329   0.08272   0.34527   0.00000  Uiso   1.00
O361   O     0.95249   0.39270   0.53312   0.00000  Uiso   1.00
O362   O     0.58863   0.07694   0.87269   0.00000  Uiso   1.00
N363   N     0.37675   0.05780   0.31178   0.00000  Uiso   1.00
N364   N     0.86076   0.27871   0.44567   0.00000  Uiso   1.00
N365   N     0.60150   0.05370   0.97505   0.00000  Uiso   1.00
N366   N     0.36032   0.16588   0.32414   0.00000  Uiso   1.00
N367   N     0.84433   0.38678   0.45802   0.00000  Uiso   1.00
N368   N     0.58507   0.16178   0.98740   0.00000  Uiso   1.00
C369   C     0.37088   0.58149   0.08854   0.00000  Uiso   1.00
C370   C     0.39651   0.51190   0.07265   0.00000  Uiso   1.00
C371   C     0.43139   0.48304   0.01977   0.00000  Uiso   1.00
C372   C     0.45049   0.41890   0.01382   0.00000  Uiso   1.00
C373   C     0.49265   0.31603   0.98228   0.00000  Uiso   1.00
C374   C     0.40837   0.63603   0.17027   0.00000  Uiso   1.00
C375   C     0.45320   0.71155   0.19947   0.00000  Uiso   1.00
C376   C     0.48228   0.75191   0.27569   0.00000  Uiso   1.00
C377   C     0.54280   0.84178   0.39571   0.00000  Uiso   1.00
C378   C     0.28850   0.55365   0.07988   0.00000  Uiso   1.00
C379   C     0.23253   0.55992   0.03310   0.00000  Uiso   1.00
C380   C     0.16068   0.53093   0.03323   0.00000  Uiso   1.00
C381   C     0.03508   0.49290   0.01292   0.00000  Uiso   1.00
C382   C     0.34278   0.51889   0.17199   0.00000  Uiso   1.00
C383   C     0.38125   0.47790   0.11798   0.00000  Uiso   1.00
C384   C     0.40030   0.41378   0.11210   0.00000  Uiso   1.00
C385   C     0.43520   0.38483   0.05923   0.00000  Uiso   1.00
C386   C     0.39311   0.60203   0.21560   0.00000  Uiso   1.00
C387   C     0.42212   0.64229   0.29180   0.00000  Uiso   1.00
C388   C     0.46699   0.71784   0.32110   0.00000  Uiso   1.00
C389   C     0.27323   0.51965   0.12521   0.00000  Uiso   1.00
C390   C     0.20145   0.49065   0.12543   0.00000  Uiso   1.00
C391   C     0.14539   0.49687   0.07865   0.00000  Uiso   1.00
H392   H     0.38276   0.60797   0.05325   0.00000  Uiso   1.00
H393   H     0.44320   0.50938   0.98471   0.00000  Uiso   1.00
H394   H     0.46500   0.73785   0.16438   0.00000  Uiso   1.00
H395   H     0.24437   0.58624   0.99803   0.00000  Uiso   1.00
H396   H     0.50349   0.38509   0.92873   0.00000  Uiso   1.00
H397   H     0.54945   0.86685   0.30756   0.00000  Uiso   1.00
H398   H     0.08420   0.54715   0.95679   0.00000  Uiso   1.00
H399   H     0.33089   0.49242   0.20728   0.00000  Uiso   1.00
H400   H     0.38848   0.38748   0.14719   0.00000  Uiso   1.00
H401   H     0.41029   0.61595   0.32686   0.00000  Uiso   1.00
H402   H     0.18966   0.46434   0.16051   0.00000  Uiso   1.00
H403   H     0.45909   0.28616   0.06060   0.00000  Uiso   1.00
H404   H     0.50505   0.76791   0.43944   0.00000  Uiso   1.00
H405   H     0.03980   0.44821   0.08867   0.00000  Uiso   1.00
O406   O     0.52013   0.26869   0.95237   0.00000  Uiso   1.00
O407   O     0.58041   0.90074   0.44939   0.00000  Uiso   1.00
O408   O     0.97002   0.48130   0.98918   0.00000  Uiso   1.00
N409   N     0.48513   0.37620   0.96800   0.00000  Uiso   1.00
N410   N     0.52810   0.82661   0.32219   0.00000  Uiso   1.00
N411   N     0.09314   0.52774   0.99426   0.00000  Uiso   1.00
N412   N     0.46123   0.32296   0.03896   0.00000  Uiso   1.00
N413   N     0.50421   0.77337   0.39315   0.00000  Uiso   1.00
N414   N     0.06924   0.47450   0.06522   0.00000  Uiso   1.00
C415   C     0.83139   0.06023   0.75432   0.00000  Uiso   1.00
C416   C     0.85981   0.99542   0.75382   0.00000  Uiso   1.00
C417   C     0.81626   0.92160   0.73415   0.00000  Uiso   1.00
C418   C     0.85284   0.87067   0.73735   0.00000  Uiso   1.00
C419   C     0.88521   0.76667   0.73324   0.00000  Uiso   1.00
C420   C     0.86633   0.12589   0.83232   0.00000  Uiso   1.00
C421   C     0.82825   0.16177   0.87865   0.00000  Uiso   1.00
C422   C     0.87031   0.22068   0.94793   0.00000  Uiso   1.00
C423   C     0.91280   0.31929   0.06568   0.00000  Uiso   1.00
C424   C     0.86561   0.08735   0.70470   0.00000  Uiso   1.00
C425   C     0.82694   0.09084   0.64372   0.00000  Uiso   1.00
C426   C     0.86840   0.11732   0.60556   0.00000  Uiso   1.00
C427   C     0.90977   0.15607   0.52516   0.00000  Uiso   1.00
C428   C     0.97379   0.10105   0.79498   0.00000  Uiso   1.00
C429   C     0.93716   0.01759   0.77591   0.00000  Uiso   1.00
C430   C     0.97381   0.96676   0.77913   0.00000  Uiso   1.00
C431   C     0.93032   0.89287   0.75947   0.00000  Uiso   1.00
C432   C     0.94367   0.14806   0.85441   0.00000  Uiso   1.00
C433   C     0.98580   0.20693   0.92363   0.00000  Uiso   1.00
C434   C     0.94780   0.24289   0.97005   0.00000  Uiso   1.00
C435   C     0.94296   0.10952   0.72678   0.00000  Uiso   1.00
C436   C     0.98449   0.13600   0.68871   0.00000  Uiso   1.00
C437   C     0.94589   0.13953   0.62769   0.00000  Uiso   1.00
H438   H     0.77117   0.04297   0.73713   0.00000  Uiso   1.00
H439   H     0.75640   0.90447   0.71707   0.00000  Uiso   1.00
H440   H     0.76839   0.14461   0.86154   0.00000  Uiso   1.00
H441   H     0.76708   0.07368   0.62665   0.00000  Uiso   1.00
H442   H     0.77414   0.76069   0.70458   0.00000  Uiso   1.00
H443   H     0.79942   0.26706   0.00921   0.00000  Uiso   1.00
H444   H     0.79665   0.11750   0.51390   0.00000  Uiso   1.00
H445   H     0.03401   0.11831   0.81218   0.00000  Uiso   1.00
H446   H     0.03367   0.98393   0.79623   0.00000  Uiso   1.00
H447   H     0.04566   0.22408   0.94070   0.00000  Uiso   1.00
H448   H     0.04435   0.15315   0.70581   0.00000  Uiso   1.00
H449   H     0.99918   0.82519   0.76883   0.00000  Uiso   1.00
H450   H     0.02446   0.33157   0.07346   0.00000  Uiso   1.00
H451   H     0.02170   0.18200   0.57815   0.00000  Uiso   1.00
O452   O     0.88169   0.70319   0.72488   0.00000  Uiso   1.00
O453   O     0.91486   0.36754   0.12453   0.00000  Uiso   1.00
O454   O     0.91123   0.17132   0.47470   0.00000  Uiso   1.00
N455   N     0.82715   0.79431   0.72188   0.00000  Uiso   1.00
N456   N     0.85079   0.26773   0.00669   0.00000  Uiso   1.00
N457   N     0.84820   0.12792   0.54363   0.00000  Uiso   1.00
N458   N     0.94825   0.82901   0.75645   0.00000  Uiso   1.00
N459   N     0.97188   0.30243   0.04126   0.00000  Uiso   1.00
N460   N     0.96929   0.16263   0.57820   0.00000  Uiso   1.00
C461   C     0.25114   0.88876   0.67417   0.00000  Uiso   1.00
C462   C     0.18192   0.89776   0.63566   0.00000  Uiso   1.00
C463   C     0.17421   0.91486   0.57676   0.00000  Uiso   1.00
C464   C     0.10647   0.92067   0.54932   0.00000  Uiso   1.00
C465   C     0.00780   0.93635   0.48493   0.00000  Uiso   1.00
C466   C     0.27143   0.94546   0.75550   0.00000  Uiso   1.00
C467   C     0.33898   0.00266   0.79734   0.00000  Uiso   1.00
C468   C     0.34659   0.04861   0.87079   0.00000  Uiso   1.00
C469   C     0.38691   0.13831   0.99245   0.00000  Uiso   1.00
C470   C     0.22703   0.80929   0.66975   0.00000  Uiso   1.00
C471   C     0.25727   0.75199   0.63952   0.00000  Uiso   1.00
C472   C     0.22752   0.68330   0.64079   0.00000  Uiso   1.00
C473   C     0.19890   0.56156   0.62932   0.00000  Uiso   1.00
C474   C     0.14455   0.86866   0.73020   0.00000  Uiso   1.00
C475   C     0.12402   0.88685   0.66610   0.00000  Uiso   1.00
C476   C     0.05628   0.89263   0.63875   0.00000  Uiso   1.00
C477   C     0.04847   0.90973   0.57981   0.00000  Uiso   1.00
C478   C     0.21353   0.93455   0.78593   0.00000  Uiso   1.00
C479   C     0.22105   0.98042   0.85934   0.00000  Uiso   1.00
C480   C     0.28859   0.03768   0.90128   0.00000  Uiso   1.00
C481   C     0.16913   0.79837   0.70019   0.00000  Uiso   1.00
C482   C     0.13933   0.72975   0.70151   0.00000  Uiso   1.00
C483   C     0.16952   0.67236   0.67128   0.00000  Uiso   1.00
H484   H     0.29622   0.89726   0.65048   0.00000  Uiso   1.00
H485   H     0.21903   0.92332   0.55322   0.00000  Uiso   1.00
H486   H     0.38378   0.01109   0.77378   0.00000  Uiso   1.00
H487   H     0.30207   0.76046   0.61597   0.00000  Uiso   1.00
H488   H     0.10793   0.94742   0.45883   0.00000  Uiso   1.00
H489   H     0.45532   0.13248   0.92389   0.00000  Uiso   1.00
H490   H     0.28303   0.60397   0.59113   0.00000  Uiso   1.00
H491   H     0.09947   0.86016   0.75390   0.00000  Uiso   1.00
H492   H     0.01148   0.88417   0.66231   0.00000  Uiso   1.00
H493   H     0.17623   0.97195   0.88287   0.00000  Uiso   1.00
H494   H     0.09453   0.72132   0.72507   0.00000  Uiso   1.00
H495   H     0.93948   0.91565   0.54738   0.00000  Uiso   1.00
H496   H     0.28687   0.10071   0.01244   0.00000  Uiso   1.00
H497   H     0.11458   0.57221   0.67968   0.00000  Uiso   1.00
O498   O     0.96938   0.94803   0.44101   0.00000  Uiso   1.00
O499   O     0.42515   0.19081   0.05114   0.00000  Uiso   1.00
O500   O     0.19911   0.49743   0.61457   0.00000  Uiso   1.00
N501   N     0.08035   0.93663   0.49223   0.00000  Uiso   1.00
N502   N     0.40514   0.10966   0.92703   0.00000  Uiso   1.00
N503   N     0.24408   0.61556   0.61595   0.00000  Uiso   1.00
N504   N     0.98971   0.91953   0.53988   0.00000  Uiso   1.00
N505   N     0.31450   0.09257   0.97467   0.00000  Uiso   1.00
N506   N     0.15344   0.59847   0.66359   0.00000  Uiso   1.00
C507   C     0.84034   0.75055   0.04295   0.00000  Uiso   1.00
C508   C     0.89515   0.81174   0.03480   0.00000  Uiso   1.00
C509   C     0.90274   0.80946   0.96865   0.00000  Uiso   1.00
C510   C     0.95611   0.87104   0.97291   0.00000  Uiso   1.00
C511   C     0.03453   0.95667   0.94991   0.00000  Uiso   1.00
C512   C     0.88639   0.72628   0.09153   0.00000  Uiso   1.00
C513   C     0.88661   0.65213   0.07308   0.00000  Uiso   1.00
C514   C     0.93260   0.64177   0.12510   0.00000  Uiso   1.00
C515   C     0.99738   0.59470   0.19019   0.00000  Uiso   1.00
C516   C     0.79517   0.79136   0.08831   0.00000  Uiso   1.00
C517   C     0.71870   0.77193   0.06717   0.00000  Uiso   1.00
C518   C     0.68789   0.81635   0.11649   0.00000  Uiso   1.00
C519   C     0.61104   0.87033   0.17658   0.00000  Uiso   1.00
C520   C     0.92160   0.86398   0.16814   0.00000  Uiso   1.00
C521   C     0.93929   0.87335   0.10280   0.00000  Uiso   1.00
C522   C     0.99265   0.93496   0.10716   0.00000  Uiso   1.00
C523   C     0.00033   0.93277   0.04102   0.00000  Uiso   1.00
C524   C     0.93053   0.78789   0.15952   0.00000  Uiso   1.00
C525   C     0.97653   0.77763   0.21158   0.00000  Uiso   1.00
C526   C     0.97682   0.70349   0.19322   0.00000  Uiso   1.00
C527   C     0.83931   0.85297   0.15631   0.00000  Uiso   1.00
C528   C     0.80861   0.89743   0.20567   0.00000  Uiso   1.00
C529   C     0.73211   0.87807   0.18460   0.00000  Uiso   1.00
H530   H     0.80598   0.70258   0.99002   0.00000  Uiso   1.00
H531   H     0.86858   0.76176   0.91604   0.00000  Uiso   1.00
H532   H     0.85245   0.60446   0.02046   0.00000  Uiso   1.00
H533   H     0.68456   0.72424   0.01455   0.00000  Uiso   1.00
H534   H     0.95747   0.85454   0.86402   0.00000  Uiso   1.00
H535   H     0.92344   0.52286   0.08420   0.00000  Uiso   1.00
H536   H     0.56941   0.77543   0.07173   0.00000  Uiso   1.00
H537   H     0.95597   0.91195   0.22108   0.00000  Uiso   1.00
H538   H     0.02680   0.98263   0.15978   0.00000  Uiso   1.00
H539   H     0.01067   0.82533   0.26420   0.00000  Uiso   1.00
H540   H     0.84279   0.94510   0.25828   0.00000  Uiso   1.00
H541   H     0.08590   0.03380   0.06184   0.00000  Uiso   1.00
H542   H     0.05186   0.70212   0.28202   0.00000  Uiso   1.00
H543   H     0.69783   0.95469   0.26955   0.00000  Uiso   1.00
O544   O     0.06559   0.98687   0.91844   0.00000  Uiso   1.00
O545   O     0.02092   0.55172   0.20731   0.00000  Uiso   1.00
O546   O     0.55646   0.88309   0.19095   0.00000  Uiso   1.00
N547   N     0.97796   0.88704   0.91899   0.00000  Uiso   1.00
N548   N     0.94615   0.57694   0.12484   0.00000  Uiso   1.00
N549   N     0.61517   0.81306   0.11319   0.00000  Uiso   1.00
N550   N     0.04707   0.98350   0.02544   0.00000  Uiso   1.00
N551   N     0.01526   0.67340   0.23128   0.00000  Uiso   1.00
N552   N     0.68427   0.90952   0.21964   0.00000  Uiso   1.00
