data_job_05107
_audit_creation_date              2018-12-19
_audit_creation_method            'Materials Studio'
_symmetry_space_group_name_H-M    'P1'
_symmetry_Int_Tables_number       1
_symmetry_cell_setting            triclinic
loop_
_symmetry_equiv_pos_as_xyz
  x,y,z
_cell_length_a                    12.4802
_cell_length_b                    12.3465
_cell_length_c                    40.7268
_cell_angle_alpha                 90.2340
_cell_angle_beta                  90.1863
_cell_angle_gamma                 82.0439
loop_
_atom_site_label
_atom_site_type_symbol
_atom_site_fract_x
_atom_site_fract_y
_atom_site_fract_z
_atom_site_U_iso_or_equiv
_atom_site_adp_type
_atom_site_occupancy
C1     C     0.07012   0.00765   0.92890   0.00000  Uiso   1.00
C2     C     0.07466   0.98748   0.89193   0.00000  Uiso   1.00
C3     C     0.16546   0.98667   0.87230   0.00000  Uiso   1.00
C4     C     0.15297   0.96668   0.83904   0.00000  Uiso   1.00
C5     C     0.17518   0.93822   0.78363   0.00000  Uiso   1.00
C6     C     0.98116   0.10379   0.93434   0.00000  Uiso   1.00
C7     C     0.99333   0.20077   0.95036   0.00000  Uiso   1.00
C8     C     0.90212   0.27869   0.95279   0.00000  Uiso   1.00
C9     C     0.77914   0.43078   0.96324   0.00000  Uiso   1.00
C10    C     0.02871   0.90835   0.94386   0.00000  Uiso   1.00
C11    C     0.08084   0.84102   0.96790   0.00000  Uiso   1.00
C12    C     0.02965   0.75439   0.97836   0.00000  Uiso   1.00
C13    C     0.98050   0.60303   0.00359   0.00000  Uiso   1.00
C14    C     0.88649   0.97358   0.90472   0.00000  Uiso   1.00
C15    C     0.97492   0.96898   0.87880   0.00000  Uiso   1.00
C16    C     0.96229   0.94897   0.84556   0.00000  Uiso   1.00
C17    C     0.05305   0.94813   0.82588   0.00000  Uiso   1.00
C18    C     0.88142   0.08529   0.92121   0.00000  Uiso   1.00
C19    C     0.79017   0.16308   0.92361   0.00000  Uiso   1.00
C20    C     0.80220   0.26015   0.93964   0.00000  Uiso   1.00
C21    C     0.92896   0.88984   0.93073   0.00000  Uiso   1.00
C22    C     0.87768   0.80332   0.94115   0.00000  Uiso   1.00
C23    C     0.92973   0.73586   0.96520   0.00000  Uiso   1.00
H24    H     0.14777   0.02207   0.93913   0.00000  Uiso   1.00
H25    H     0.24263   0.00101   0.88248   0.00000  Uiso   1.00
H26    H     0.07053   0.21507   0.96053   0.00000  Uiso   1.00
H27    H     0.15803   0.85536   0.97806   0.00000  Uiso   1.00
H28    H     0.30380   0.96953   0.81388   0.00000  Uiso   1.00
H29    H     0.94091   0.42088   0.97846   0.00000  Uiso   1.00
H30    H     0.12541   0.66237   0.01543   0.00000  Uiso   1.00
H31    H     0.80883   0.95917   0.89450   0.00000  Uiso   1.00
H32    H     0.88509   0.93465   0.83540   0.00000  Uiso   1.00
H33    H     0.71299   0.14872   0.91345   0.00000  Uiso   1.00
H34    H     0.80049   0.78902   0.93098   0.00000  Uiso   1.00
H35    H     0.01361   0.91569   0.77567   0.00000  Uiso   1.00
H36    H     0.65071   0.36703   0.94025   0.00000  Uiso   1.00
H37    H     0.83522   0.60852   0.97722   0.00000  Uiso   1.00
O38    O     0.21498   0.92765   0.75670   0.00000  Uiso   1.00
O39    O     0.73887   0.51979   0.97263   0.00000  Uiso   1.00
O40    O     0.98094   0.52465   0.02114   0.00000  Uiso   1.00
N41    N     0.22505   0.96020   0.81300   0.00000  Uiso   1.00
N42    N     0.88576   0.38219   0.96687   0.00000  Uiso   1.00
N43    N     0.05825   0.67307   0.00144   0.00000  Uiso   1.00
N44    N     0.06890   0.93123   0.79244   0.00000  Uiso   1.00
N45    N     0.72961   0.35322   0.94631   0.00000  Uiso   1.00
N46    N     0.90210   0.64409   0.98088   0.00000  Uiso   1.00
C47    C     0.36380   0.50736   0.67712   0.00000  Uiso   1.00
C48    C     0.37214   0.50990   0.63980   0.00000  Uiso   1.00
C49    C     0.34003   0.59994   0.62004   0.00000  Uiso   1.00
C50    C     0.35436   0.58559   0.58643   0.00000  Uiso   1.00
C51    C     0.36044   0.60484   0.53050   0.00000  Uiso   1.00
C52    C     0.29787   0.41566   0.68504   0.00000  Uiso   1.00
C53    C     0.20332   0.42648   0.70333   0.00000  Uiso   1.00
C54    C     0.15515   0.33279   0.70781   0.00000  Uiso   1.00
C55    C     0.04597   0.20573   0.72214   0.00000  Uiso   1.00
C56    C     0.47795   0.46933   0.68971   0.00000  Uiso   1.00
C57    C     0.53482   0.52525   0.71194   0.00000  Uiso   1.00
C58    C     0.63827   0.47673   0.72036   0.00000  Uiso   1.00
C59    C     0.80870   0.43299   0.74195   0.00000  Uiso   1.00
C60    C     0.44636   0.32175   0.65257   0.00000  Uiso   1.00
C61    C     0.41698   0.40908   0.62646   0.00000  Uiso   1.00
C62    C     0.43137   0.39458   0.59288   0.00000  Uiso   1.00
C63    C     0.39929   0.48459   0.57307   0.00000  Uiso   1.00
C64    C     0.34271   0.31485   0.67171   0.00000  Uiso   1.00
C65    C     0.29467   0.22112   0.67617   0.00000  Uiso   1.00
C66    C     0.20007   0.23179   0.69445   0.00000  Uiso   1.00
C67    C     0.52280   0.36851   0.67638   0.00000  Uiso   1.00
C68    C     0.62617   0.31989   0.68477   0.00000  Uiso   1.00
C69    C     0.68319   0.37573   0.70700   0.00000  Uiso   1.00
H70    H     0.32888   0.58585   0.68751   0.00000  Uiso   1.00
H71    H     0.30531   0.67795   0.63037   0.00000  Uiso   1.00
H72    H     0.16864   0.50451   0.71365   0.00000  Uiso   1.00
H73    H     0.50010   0.60326   0.72225   0.00000  Uiso   1.00
H74    H     0.29893   0.73558   0.56114   0.00000  Uiso   1.00
H75    H     0.01077   0.36987   0.73675   0.00000  Uiso   1.00
H76    H     0.70970   0.57811   0.75489   0.00000  Uiso   1.00
H77    H     0.48127   0.24325   0.64219   0.00000  Uiso   1.00
H78    H     0.46607   0.31655   0.58256   0.00000  Uiso   1.00
H79    H     0.32940   0.14311   0.66584   0.00000  Uiso   1.00
H80    H     0.66085   0.24187   0.67445   0.00000  Uiso   1.00
H81    H     0.42940   0.44226   0.52234   0.00000  Uiso   1.00
H82    H     0.14124   0.07654   0.69795   0.00000  Uiso   1.00
H83    H     0.84017   0.28479   0.71609   0.00000  Uiso   1.00
O84    O     0.35138   0.64331   0.50333   0.00000  Uiso   1.00
O85    O     0.97334   0.16350   0.73373   0.00000  Uiso   1.00
O86    O     0.89032   0.43673   0.75753   0.00000  Uiso   1.00
N87    N     0.33174   0.65650   0.56019   0.00000  Uiso   1.00
N88    N     0.06232   0.31458   0.72437   0.00000  Uiso   1.00
N89    N     0.71575   0.50926   0.74134   0.00000  Uiso   1.00
N90    N     0.40195   0.49866   0.53931   0.00000  Uiso   1.00
N91    N     0.13253   0.15674   0.70349   0.00000  Uiso   1.00
N92    N     0.78596   0.35143   0.72046   0.00000  Uiso   1.00
C93    C     0.86485   0.02810   0.42879   0.00000  Uiso   1.00
C94    C     0.86008   0.04771   0.39184   0.00000  Uiso   1.00
C95    C     0.76915   0.04826   0.37210   0.00000  Uiso   1.00
C96    C     0.78143   0.06774   0.33887   0.00000  Uiso   1.00
C97    C     0.75887   0.09537   0.28346   0.00000  Uiso   1.00
C98    C     0.95382   0.93201   0.43424   0.00000  Uiso   1.00
C99    C     0.94171   0.83528   0.45015   0.00000  Uiso   1.00
C100   C     0.03291   0.75737   0.45261   0.00000  Uiso   1.00
C101   C     0.15590   0.60540   0.46305   0.00000  Uiso   1.00
C102   C     0.90641   0.12760   0.44390   0.00000  Uiso   1.00
C103   C     0.85445   0.19532   0.46795   0.00000  Uiso   1.00
C104   C     0.90575   0.28208   0.47855   0.00000  Uiso   1.00
C105   C     0.95513   0.43380   0.50399   0.00000  Uiso   1.00
C106   C     0.04835   0.06173   0.40486   0.00000  Uiso   1.00
C107   C     0.95975   0.06598   0.37884   0.00000  Uiso   1.00
C108   C     0.97217   0.08547   0.34563   0.00000  Uiso   1.00
C109   C     0.88128   0.08605   0.32585   0.00000  Uiso   1.00
C110   C     0.05349   0.95027   0.42124   0.00000  Uiso   1.00
C111   C     0.14473   0.87249   0.42368   0.00000  Uiso   1.00
C112   C     0.13276   0.77567   0.43959   0.00000  Uiso   1.00
C113   C     0.00608   0.14588   0.43090   0.00000  Uiso   1.00
C114   C     0.05747   0.23253   0.44147   0.00000  Uiso   1.00
C115   C     0.00560   0.30038   0.46553   0.00000  Uiso   1.00
H116   H     0.78726   0.01387   0.43891   0.00000  Uiso   1.00
H117   H     0.69203   0.03411   0.38217   0.00000  Uiso   1.00
H118   H     0.86457   0.82117   0.46021   0.00000  Uiso   1.00
H119   H     0.77732   0.18116   0.47800   0.00000  Uiso   1.00
H120   H     0.63043   0.06456   0.31353   0.00000  Uiso   1.00
H121   H     0.99423   0.61559   0.47809   0.00000  Uiso   1.00
H122   H     0.81026   0.37470   0.51560   0.00000  Uiso   1.00
H123   H     0.12595   0.07595   0.39475   0.00000  Uiso   1.00
H124   H     0.04931   0.09960   0.33558   0.00000  Uiso   1.00
H125   H     0.22185   0.88666   0.41362   0.00000  Uiso   1.00
H126   H     0.13460   0.24665   0.43141   0.00000  Uiso   1.00
H127   H     0.92041   0.11771   0.27571   0.00000  Uiso   1.00
H128   H     0.28421   0.66874   0.44028   0.00000  Uiso   1.00
H129   H     0.10024   0.42785   0.47779   0.00000  Uiso   1.00
O130   O     0.71890   0.10554   0.25649   0.00000  Uiso   1.00
O131   O     0.19620   0.51652   0.47240   0.00000  Uiso   1.00
O132   O     0.95483   0.51244   0.52161   0.00000  Uiso   1.00
N133   N     0.70919   0.07385   0.31275   0.00000  Uiso   1.00
N134   N     0.04932   0.65408   0.46660   0.00000  Uiso   1.00
N135   N     0.87733   0.36376   0.50168   0.00000  Uiso   1.00
N136   N     0.86522   0.10245   0.29240   0.00000  Uiso   1.00
N137   N     0.20535   0.68268   0.44625   0.00000  Uiso   1.00
N138   N     0.03337   0.39236   0.48133   0.00000  Uiso   1.00
C139   C     0.57199   0.52900   0.17696   0.00000  Uiso   1.00
C140   C     0.56309   0.52681   0.13962   0.00000  Uiso   1.00
C141   C     0.59517   0.43703   0.11960   0.00000  Uiso   1.00
C142   C     0.58027   0.45167   0.08603   0.00000  Uiso   1.00
C143   C     0.57340   0.43294   0.03003   0.00000  Uiso   1.00
C144   C     0.63772   0.62088   0.18522   0.00000  Uiso   1.00
C145   C     0.73254   0.61019   0.20353   0.00000  Uiso   1.00
C146   C     0.78046   0.70403   0.20835   0.00000  Uiso   1.00
C147   C     0.88941   0.83137   0.22316   0.00000  Uiso   1.00
C148   C     0.45795   0.56655   0.18960   0.00000  Uiso   1.00
C149   C     0.40163   0.51020   0.21160   0.00000  Uiso   1.00
C150   C     0.29821   0.55832   0.22011   0.00000  Uiso   1.00
C151   C     0.12805   0.60130   0.24172   0.00000  Uiso   1.00
C152   C     0.48849   0.71467   0.15295   0.00000  Uiso   1.00
C153   C     0.51774   0.62766   0.12658   0.00000  Uiso   1.00
C154   C     0.50278   0.64244   0.09303   0.00000  Uiso   1.00
C155   C     0.53483   0.55269   0.07296   0.00000  Uiso   1.00
C156   C     0.59237   0.72172   0.17217   0.00000  Uiso   1.00
C157   C     0.64016   0.81561   0.17696   0.00000  Uiso   1.00
C158   C     0.73502   0.80506   0.19528   0.00000  Uiso   1.00
C159   C     0.41260   0.66740   0.17655   0.00000  Uiso   1.00
C160   C     0.30925   0.71562   0.18503   0.00000  Uiso   1.00
C161   C     0.25278   0.65935   0.20704   0.00000  Uiso   1.00
H162   H     0.60730   0.45049   0.18712   0.00000  Uiso   1.00
H163   H     0.63027   0.35900   0.12970   0.00000  Uiso   1.00
H164   H     0.76761   0.53214   0.21363   0.00000  Uiso   1.00
H165   H     0.43675   0.43217   0.22169   0.00000  Uiso   1.00
H166   H     0.63577   0.30204   0.06029   0.00000  Uiso   1.00
H167   H     0.92534   0.66713   0.23726   0.00000  Uiso   1.00
H168   H     0.22767   0.45631   0.25427   0.00000  Uiso   1.00
H169   H     0.45318   0.79318   0.14279   0.00000  Uiso   1.00
H170   H     0.46769   0.72049   0.08294   0.00000  Uiso   1.00
H171   H     0.60503   0.89363   0.16687   0.00000  Uiso   1.00
H172   H     0.27418   0.79366   0.17493   0.00000  Uiso   1.00
H173   H     0.50382   0.59544   0.02234   0.00000  Uiso   1.00
H174   H     0.79339   0.96053   0.19931   0.00000  Uiso   1.00
H175   H     0.09572   0.74971   0.21632   0.00000  Uiso   1.00
O176   O     0.58215   0.39475   0.00274   0.00000  Uiso   1.00
O177   O     0.96204   0.87374   0.23492   0.00000  Uiso   1.00
O178   O     0.04672   0.59714   0.25724   0.00000  Uiso   1.00
N179   N     0.60270   0.38106   0.05957   0.00000  Uiso   1.00
N180   N     0.87344   0.72240   0.22503   0.00000  Uiso   1.00
N181   N     0.22119   0.52531   0.24093   0.00000  Uiso   1.00
N182   N     0.53170   0.53894   0.03915   0.00000  Uiso   1.00
N183   N     0.80244   0.88027   0.20460   0.00000  Uiso   1.00
N184   N     0.15019   0.68319   0.22051   0.00000  Uiso   1.00
C185   C     0.01055   0.15282   0.06883   0.00000  Uiso   1.00
C186   C     0.00230   0.13294   0.10561   0.00000  Uiso   1.00
C187   C     0.00762   0.21030   0.13016   0.00000  Uiso   1.00
C188   C     0.99839   0.17592   0.16232   0.00000  Uiso   1.00
C189   C     0.98776   0.16145   0.21832   0.00000  Uiso   1.00
C190   C     0.10360   0.06955   0.05654   0.00000  Uiso   1.00
C191   C     0.19408   0.09361   0.03982   0.00000  Uiso   1.00
C192   C     0.27012   0.00586   0.03067   0.00000  Uiso   1.00
C193   C     0.41673   0.89297   0.01045   0.00000  Uiso   1.00
C194   C     0.90806   0.11987   0.05356   0.00000  Uiso   1.00
C195   C     0.83414   0.18623   0.03435   0.00000  Uiso   1.00
C196   C     0.74556   0.14084   0.02268   0.00000  Uiso   1.00
C197   C     0.58856   0.10607   0.99785   0.00000  Uiso   1.00
C198   C     0.98470   0.95422   0.08228   0.00000  Uiso   1.00
C199   C     0.98826   0.02507   0.11291   0.00000  Uiso   1.00
C200   C     0.97901   0.99057   0.14504   0.00000  Uiso   1.00
C201   C     0.98432   0.06786   0.16964   0.00000  Uiso   1.00
C202   C     0.08956   0.96168   0.06384   0.00000  Uiso   1.00
C203   C     0.16548   0.87388   0.05470   0.00000  Uiso   1.00
C204   C     0.25606   0.89779   0.03798   0.00000  Uiso   1.00
C205   C     0.89401   0.01200   0.06087   0.00000  Uiso   1.00
C206   C     0.80554   0.96650   0.04922   0.00000  Uiso   1.00
C207   C     0.73149   0.03277   0.03000   0.00000  Uiso   1.00
H208   H     0.02149   0.23680   0.06315   0.00000  Uiso   1.00
H209   H     0.01850   0.29377   0.12450   0.00000  Uiso   1.00
H210   H     0.20492   0.17709   0.03417   0.00000  Uiso   1.00
H211   H     0.84504   0.26970   0.02870   0.00000  Uiso   1.00
H212   H     0.00902   0.30934   0.19575   0.00000  Uiso   1.00
H213   H     0.40210   0.06332   0.00528   0.00000  Uiso   1.00
H214   H     0.64320   0.25860   0.99373   0.00000  Uiso   1.00
H215   H     0.97377   0.87023   0.08796   0.00000  Uiso   1.00
H216   H     0.96815   0.90708   0.15068   0.00000  Uiso   1.00
H217   H     0.15458   0.79041   0.06035   0.00000  Uiso   1.00
H218   H     0.79469   0.88302   0.05488   0.00000  Uiso   1.00
H219   H     0.96816   0.99549   0.21700   0.00000  Uiso   1.00
H220   H     0.36124   0.74948   0.02652   0.00000  Uiso   1.00
H221   H     0.60235   0.94475   0.01498   0.00000  Uiso   1.00
O222   O     0.98579   0.18326   0.24719   0.00000  Uiso   1.00
O223   O     0.50148   0.86050   0.99729   0.00000  Uiso   1.00
O224   O     0.50583   0.11670   0.98215   0.00000  Uiso   1.00
N225   N     0.00015   0.23042   0.19214   0.00000  Uiso   1.00
N226   N     0.36767   0.00042   0.01407   0.00000  Uiso   1.00
N227   N     0.65818   0.18297   0.00327   0.00000  Uiso   1.00
N228   N     0.97817   0.06155   0.20358   0.00000  Uiso   1.00
N229   N     0.34568   0.83154   0.02550   0.00000  Uiso   1.00
N230   N     0.63619   0.01410   0.01470   0.00000  Uiso   1.00
C231   C     0.51369   0.40501   0.31640   0.00000  Uiso   1.00
C232   C     0.49204   0.41488   0.35319   0.00000  Uiso   1.00
C233   C     0.56661   0.38325   0.37788   0.00000  Uiso   1.00
C234   C     0.53099   0.39903   0.41002   0.00000  Uiso   1.00
C235   C     0.51355   0.40736   0.46607   0.00000  Uiso   1.00
C236   C     0.43002   0.33800   0.30253   0.00000  Uiso   1.00
C237   C     0.45246   0.24172   0.28460   0.00000  Uiso   1.00
C238   C     0.36462   0.19279   0.27410   0.00000  Uiso   1.00
C239   C     0.25090   0.08179   0.25146   0.00000  Uiso   1.00
C240   C     0.48476   0.51989   0.30252   0.00000  Uiso   1.00
C241   C     0.55321   0.57655   0.28459   0.00000  Uiso   1.00
C242   C     0.51146   0.68076   0.27408   0.00000  Uiso   1.00
C243   C     0.48272   0.85218   0.25143   0.00000  Uiso   1.00
C244   C     0.31781   0.48931   0.32960   0.00000  Uiso   1.00
C245   C     0.38565   0.46067   0.36036   0.00000  Uiso   1.00
C246   C     0.34991   0.47652   0.39248   0.00000  Uiso   1.00
C247   C     0.42442   0.44491   0.41721   0.00000  Uiso   1.00
C248   C     0.32364   0.38378   0.30969   0.00000  Uiso   1.00
C249   C     0.23575   0.33499   0.29921   0.00000  Uiso   1.00
C250   C     0.25804   0.23866   0.28128   0.00000  Uiso   1.00
C251   C     0.37837   0.56569   0.30969   0.00000  Uiso   1.00
C252   C     0.33650   0.66982   0.29920   0.00000  Uiso   1.00
C253   C     0.40488   0.72663   0.28126   0.00000  Uiso   1.00
H254   H     0.59651   0.36935   0.31081   0.00000  Uiso   1.00
H255   H     0.64894   0.34780   0.37232   0.00000  Uiso   1.00
H256   H     0.53479   0.20631   0.27906   0.00000  Uiso   1.00
H257   H     0.63553   0.54109   0.27905   0.00000  Uiso   1.00
H258   H     0.66013   0.34407   0.44367   0.00000  Uiso   1.00
H259   H     0.41945   0.04575   0.24701   0.00000  Uiso   1.00
H260   H     0.63189   0.75169   0.24699   0.00000  Uiso   1.00
H261   H     0.23498   0.52496   0.33518   0.00000  Uiso   1.00
H262   H     0.26757   0.51195   0.39802   0.00000  Uiso   1.00
H263   H     0.15343   0.37045   0.30476   0.00000  Uiso   1.00
H264   H     0.25417   0.70523   0.30475   0.00000  Uiso   1.00
H265   H     0.35060   0.47729   0.46453   0.00000  Uiso   1.00
H266   H     0.10992   0.17897   0.26787   0.00000  Uiso   1.00
H267   H     0.32236   0.88492   0.26785   0.00000  Uiso   1.00
O268   O     0.53332   0.39928   0.49500   0.00000  Uiso   1.00
O269   O     0.21756   0.00791   0.23699   0.00000  Uiso   1.00
O270   O     0.49627   0.93409   0.23696   0.00000  Uiso   1.00
N271   N     0.58282   0.37723   0.43995   0.00000  Uiso   1.00
N272   N     0.35780   0.09830   0.25610   0.00000  Uiso   1.00
N273   N     0.55640   0.75829   0.25607   0.00000  Uiso   1.00
N274   N     0.41626   0.44892   0.45118   0.00000  Uiso   1.00
N275   N     0.19124   0.16999   0.26732   0.00000  Uiso   1.00
N276   N     0.38984   0.82998   0.26729   0.00000  Uiso   1.00
C277   C     0.92352   0.88469   0.56827   0.00000  Uiso   1.00
C278   C     0.93198   0.90398   0.60514   0.00000  Uiso   1.00
C279   C     0.92664   0.82627   0.62939   0.00000  Uiso   1.00
C280   C     0.93607   0.86012   0.66169   0.00000  Uiso   1.00
C281   C     0.94698   0.87370   0.71776   0.00000  Uiso   1.00
C282   C     0.83053   0.96828   0.55613   0.00000  Uiso   1.00
C283   C     0.73991   0.94463   0.53917   0.00000  Uiso   1.00
C284   C     0.66395   0.03262   0.53021   0.00000  Uiso   1.00
C285   C     0.51740   0.14604   0.51017   0.00000  Uiso   1.00
C286   C     0.02602   0.91771   0.55331   0.00000  Uiso   1.00
C287   C     0.09977   0.85155   0.53397   0.00000  Uiso   1.00
C288   C     0.18838   0.89697   0.52264   0.00000  Uiso   1.00
C289   C     0.34536   0.93186   0.49822   0.00000  Uiso   1.00
C290   C     0.94975   0.08299   0.58253   0.00000  Uiso   1.00
C291   C     0.94622   0.01169   0.61288   0.00000  Uiso   1.00
C292   C     0.95566   0.04567   0.64516   0.00000  Uiso   1.00
C293   C     0.95035   0.96802   0.66945   0.00000  Uiso   1.00
C294   C     0.84477   0.07599   0.56387   0.00000  Uiso   1.00
C295   C     0.76893   0.16403   0.55494   0.00000  Uiso   1.00
C296   C     0.67822   0.14053   0.53797   0.00000  Uiso   1.00
C297   C     0.04027   0.02542   0.56105   0.00000  Uiso   1.00
C298   C     0.12878   0.07095   0.54974   0.00000  Uiso   1.00
C299   C     0.20265   0.00488   0.53039   0.00000  Uiso   1.00
H300   H     0.91242   0.80084   0.56224   0.00000  Uiso   1.00
H301   H     0.91561   0.74293   0.62338   0.00000  Uiso   1.00
H302   H     0.72892   0.86127   0.53318   0.00000  Uiso   1.00
H303   H     0.08871   0.76821   0.52798   0.00000  Uiso   1.00
H304   H     0.92538   0.72623   0.69459   0.00000  Uiso   1.00
H305   H     0.53175   0.97578   0.50437   0.00000  Uiso   1.00
H306   H     0.29045   0.77952   0.49342   0.00000  Uiso   1.00
H307   H     0.96084   0.16685   0.58855   0.00000  Uiso   1.00
H308   H     0.96668   0.12903   0.65114   0.00000  Uiso   1.00
H309   H     0.77998   0.24737   0.56093   0.00000  Uiso   1.00
H310   H     0.13978   0.15431   0.55574   0.00000  Uiso   1.00
H311   H     0.96683   0.03961   0.71712   0.00000  Uiso   1.00
H312   H     0.57319   0.28915   0.52690   0.00000  Uiso   1.00
H313   H     0.33190   0.09290   0.51595   0.00000  Uiso   1.00
O314   O     0.94904   0.85144   0.74655   0.00000  Uiso   1.00
O315   O     0.43262   0.17883   0.49699   0.00000  Uiso   1.00
O316   O     0.42802   0.92135   0.48262   0.00000  Uiso   1.00
N317   N     0.93436   0.80517   0.69130   0.00000  Uiso   1.00
N318   N     0.56632   0.03848   0.51346   0.00000  Uiso   1.00
N319   N     0.27563   0.85501   0.50322   0.00000  Uiso   1.00
N320   N     0.95666   0.97379   0.70342   0.00000  Uiso   1.00
N321   N     0.58863   0.20710   0.52558   0.00000  Uiso   1.00
N322   N     0.29794   0.02363   0.51534   0.00000  Uiso   1.00
C323   C     0.42209   0.62873   0.81592   0.00000  Uiso   1.00
C324   C     0.44388   0.61983   0.85275   0.00000  Uiso   1.00
C325   C     0.36940   0.65213   0.87733   0.00000  Uiso   1.00
C326   C     0.40513   0.63720   0.90953   0.00000  Uiso   1.00
C327   C     0.42278   0.63037   0.96559   0.00000  Uiso   1.00
C328   C     0.50571   0.69537   0.80216   0.00000  Uiso   1.00
C329   C     0.48322   0.79117   0.78421   0.00000  Uiso   1.00
C330   C     0.57102   0.83980   0.77381   0.00000  Uiso   1.00
C331   C     0.68468   0.95019   0.75132   0.00000  Uiso   1.00
C332   C     0.45095   0.51348   0.80209   0.00000  Uiso   1.00
C333   C     0.38243   0.45635   0.78407   0.00000  Uiso   1.00
C334   C     0.42414   0.35186   0.77361   0.00000  Uiso   1.00
C335   C     0.45277   0.17983   0.75100   0.00000  Uiso   1.00
C336   C     0.61801   0.54477   0.82938   0.00000  Uiso   1.00
C337   C     0.55029   0.57423   0.86005   0.00000  Uiso   1.00
C338   C     0.58615   0.55923   0.89222   0.00000  Uiso   1.00
C339   C     0.51174   0.59151   0.91685   0.00000  Uiso   1.00
C340   C     0.61212   0.64976   0.80947   0.00000  Uiso   1.00
C341   C     0.69998   0.69827   0.79910   0.00000  Uiso   1.00
C342   C     0.67763   0.79412   0.78114   0.00000  Uiso   1.00
C343   C     0.55737   0.46786   0.80940   0.00000  Uiso   1.00
C344   C     0.59919   0.36345   0.79896   0.00000  Uiso   1.00
C345   C     0.53074   0.30617   0.78093   0.00000  Uiso   1.00
H346   H     0.33925   0.66425   0.81023   0.00000  Uiso   1.00
H347   H     0.28705   0.68744   0.87167   0.00000  Uiso   1.00
H348   H     0.40087   0.82643   0.77855   0.00000  Uiso   1.00
H349   H     0.30009   0.49167   0.77842   0.00000  Uiso   1.00
H350   H     0.27612   0.69307   0.94300   0.00000  Uiso   1.00
H351   H     0.51610   0.98614   0.74666   0.00000  Uiso   1.00
H352   H     0.30360   0.28022   0.74637   0.00000  Uiso   1.00
H353   H     0.70086   0.50926   0.83507   0.00000  Uiso   1.00
H354   H     0.66851   0.52394   0.89787   0.00000  Uiso   1.00
H355   H     0.78232   0.66294   0.80475   0.00000  Uiso   1.00
H356   H     0.68154   0.32818   0.80462   0.00000  Uiso   1.00
H357   H     0.58573   0.56038   0.96427   0.00000  Uiso   1.00
H358   H     0.82570   0.85344   0.76792   0.00000  Uiso   1.00
H359   H     0.61320   0.14752   0.76764   0.00000  Uiso   1.00
O360   O     0.40313   0.63921   0.99450   0.00000  Uiso   1.00
O361   O     0.71797   0.02369   0.73689   0.00000  Uiso   1.00
O362   O     0.43916   0.09754   0.73652   0.00000  Uiso   1.00
N363   N     0.35342   0.65980   0.93939   0.00000  Uiso   1.00
N364   N     0.57779   0.93382   0.75582   0.00000  Uiso   1.00
N365   N     0.37912   0.27385   0.75555   0.00000  Uiso   1.00
N366   N     0.52002   0.58840   0.95083   0.00000  Uiso   1.00
N367   N     0.74438   0.86241   0.76726   0.00000  Uiso   1.00
N368   N     0.54571   0.20245   0.76699   0.00000  Uiso   1.00
