data_job_06532
_audit_creation_date              2018-12-19
_audit_creation_method            'Materials Studio'
_symmetry_space_group_name_H-M    'P1'
_symmetry_Int_Tables_number       1
_symmetry_cell_setting            triclinic
loop_
_symmetry_equiv_pos_as_xyz
  x,y,z
_cell_length_a                    19.9544
_cell_length_b                    19.4916
_cell_length_c                    20.0833
_cell_angle_alpha                 79.7353
_cell_angle_beta                  103.4340
_cell_angle_gamma                 92.1964
loop_
_atom_site_label
_atom_site_type_symbol
_atom_site_fract_x
_atom_site_fract_y
_atom_site_fract_z
_atom_site_U_iso_or_equiv
_atom_site_adp_type
_atom_site_occupancy
C1     C     0.32022   0.02695   0.85047   0.00000  Uiso   1.00
C2     C     0.24753   0.02692   0.80487   0.00000  Uiso   1.00
C3     C     0.19201   0.98960   0.82328   0.00000  Uiso   1.00
C4     C     0.12977   0.99656   0.77425   0.00000  Uiso   1.00
C5     C     0.01788   0.98998   0.71334   0.00000  Uiso   1.00
C6     C     0.36782   0.00487   0.80861   0.00000  Uiso   1.00
C7     C     0.41344   0.94902   0.83016   0.00000  Uiso   1.00
C8     C     0.45246   0.93743   0.78427   0.00000  Uiso   1.00
C9     C     0.52736   0.89665   0.72918   0.00000  Uiso   1.00
C10    C     0.33722   0.10300   0.85583   0.00000  Uiso   1.00
C11    C     0.35714   0.12965   0.91708   0.00000  Uiso   1.00
C12    C     0.37042   0.20067   0.91095   0.00000  Uiso   1.00
C13    C     0.39782   0.31225   0.92917   0.00000  Uiso   1.00
C14    C     0.30841   0.10567   0.73067   0.00000  Uiso   1.00
C15    C     0.24112   0.06968   0.73980   0.00000  Uiso   1.00
C16    C     0.17894   0.07670   0.69073   0.00000  Uiso   1.00
C17    C     0.12334   0.03939   0.70906   0.00000  Uiso   1.00
C18    C     0.36141   0.04763   0.74354   0.00000  Uiso   1.00
C19    C     0.40037   0.03612   0.69761   0.00000  Uiso   1.00
C20    C     0.44604   0.98026   0.71908   0.00000  Uiso   1.00
C21    C     0.33081   0.14576   0.79075   0.00000  Uiso   1.00
C22    C     0.34407   0.21675   0.78453   0.00000  Uiso   1.00
C23    C     0.36400   0.24351   0.84576   0.00000  Uiso   1.00
H24    H     0.32522   0.99366   0.90113   0.00000  Uiso   1.00
H25    H     0.19700   0.95651   0.87364   0.00000  Uiso   1.00
H26    H     0.41840   0.91595   0.88052   0.00000  Uiso   1.00
H27    H     0.36210   0.09655   0.96743   0.00000  Uiso   1.00
H28    H     0.05202   0.93416   0.81446   0.00000  Uiso   1.00
H29    H     0.51886   0.84864   0.82898   0.00000  Uiso   1.00
H30    H     0.40016   0.22948   0.01224   0.00000  Uiso   1.00
H31    H     0.30342   0.13896   0.68000   0.00000  Uiso   1.00
H32    H     0.17400   0.10979   0.64038   0.00000  Uiso   1.00
H33    H     0.39540   0.06922   0.64726   0.00000  Uiso   1.00
H34    H     0.33910   0.24982   0.73417   0.00000  Uiso   1.00
H35    H     0.03335   0.05856   0.62513   0.00000  Uiso   1.00
H36    H     0.50020   0.97304   0.63965   0.00000  Uiso   1.00
H37    H     0.38149   0.35388   0.82291   0.00000  Uiso   1.00
O38    O     0.95795   0.97453   0.69771   0.00000  Uiso   1.00
O39    O     0.57044   0.86234   0.71676   0.00000  Uiso   1.00
O40    O     0.41469   0.36199   0.95720   0.00000  Uiso   1.00
N41    N     0.06538   0.96745   0.77534   0.00000  Uiso   1.00
N42    N     0.50185   0.88749   0.78891   0.00000  Uiso   1.00
N43    N     0.39088   0.24354   0.96025   0.00000  Uiso   1.00
N44    N     0.05534   0.03439   0.67347   0.00000  Uiso   1.00
N45    N     0.49180   0.95443   0.68704   0.00000  Uiso   1.00
N46    N     0.38084   0.31048   0.85837   0.00000  Uiso   1.00
C47    C     0.91875   0.25495   0.97525   0.00000  Uiso   1.00
C48    C     0.92045   0.18054   0.96179   0.00000  Uiso   1.00
C49    C     0.96559   0.15513   0.92876   0.00000  Uiso   1.00
C50    C     0.95882   0.08553   0.92149   0.00000  Uiso   1.00
C51    C     0.96906   0.97648   0.89678   0.00000  Uiso   1.00
C52    C     0.84567   0.28163   0.94189   0.00000  Uiso   1.00
C53    C     0.82796   0.34121   0.89213   0.00000  Uiso   1.00
C54    C     0.75824   0.35670   0.86811   0.00000  Uiso   1.00
C55    C     0.65240   0.40461   0.81254   0.00000  Uiso   1.00
C56    C     0.92686   0.24894   0.05346   0.00000  Uiso   1.00
C57    C     0.97739   0.28106   0.09752   0.00000  Uiso   1.00
C58    C     0.97601   0.26905   0.16745   0.00000  Uiso   1.00
C59    C     0.99622   0.26622   0.28511   0.00000  Uiso   1.00
C60    C     0.82643   0.17652   0.02108   0.00000  Uiso   1.00
C61    C     0.87030   0.13795   0.98668   0.00000  Uiso   1.00
C62    C     0.86346   0.06836   0.97946   0.00000  Uiso   1.00
C63    C     0.90859   0.04285   0.94643   0.00000  Uiso   1.00
C64    C     0.79553   0.23903   0.96678   0.00000  Uiso   1.00
C65    C     0.72582   0.25444   0.94283   0.00000  Uiso   1.00
C66    C     0.70800   0.31403   0.89305   0.00000  Uiso   1.00
C67    C     0.87672   0.20634   0.07836   0.00000  Uiso   1.00
C68    C     0.87526   0.19428   0.14823   0.00000  Uiso   1.00
C69    C     0.92578   0.22637   0.19238   0.00000  Uiso   1.00
H70    H     0.95778   0.28812   0.95587   0.00000  Uiso   1.00
H71    H     0.00438   0.18812   0.90950   0.00000  Uiso   1.00
H72    H     0.86677   0.37417   0.87288   0.00000  Uiso   1.00
H73    H     0.01618   0.31403   0.07824   0.00000  Uiso   1.00
H74    H     0.03393   0.05847   0.86905   0.00000  Uiso   1.00
H75    H     0.74376   0.45078   0.79185   0.00000  Uiso   1.00
H76    H     0.05882   0.32396   0.22490   0.00000  Uiso   1.00
H77    H     0.78740   0.14336   0.04046   0.00000  Uiso   1.00
H78    H     0.82465   0.03541   0.99873   0.00000  Uiso   1.00
H79    H     0.68704   0.22146   0.96211   0.00000  Uiso   1.00
H80    H     0.83645   0.16131   0.16747   0.00000  Uiso   1.00
H81    H     0.88805   0.93452   0.94147   0.00000  Uiso   1.00
H82    H     0.59788   0.32684   0.86427   0.00000  Uiso   1.00
H83    H     0.91294   0.20001   0.29732   0.00000  Uiso   1.00
O84    O     0.98855   0.92810   0.87626   0.00000  Uiso   1.00
O85    O     0.60787   0.44281   0.77500   0.00000  Uiso   1.00
O86    O     0.02122   0.27641   0.34314   0.00000  Uiso   1.00
N87    N     0.99449   0.04411   0.89183   0.00000  Uiso   1.00
N88    N     0.72320   0.41089   0.81965   0.00000  Uiso   1.00
N89    N     0.01774   0.29234   0.22451   0.00000  Uiso   1.00
N90    N     0.91599   0.97742   0.93080   0.00000  Uiso   1.00
N91    N     0.64470   0.34420   0.85862   0.00000  Uiso   1.00
N92    N     0.93925   0.22564   0.26347   0.00000  Uiso   1.00
C93    C     0.99030   0.79875   0.27703   0.00000  Uiso   1.00
C94    C     0.94655   0.77076   0.21471   0.00000  Uiso   1.00
C95    C     0.88345   0.79744   0.17511   0.00000  Uiso   1.00
C96    C     0.85154   0.76445   0.12025   0.00000  Uiso   1.00
C97    C     0.77900   0.72972   0.02574   0.00000  Uiso   1.00
C98    C     0.00185   0.73750   0.33744   0.00000  Uiso   1.00
C99    C     0.98526   0.73623   0.40104   0.00000  Uiso   1.00
C100   C     0.99992   0.67525   0.44950   0.00000  Uiso   1.00
C101   C     0.01329   0.58891   0.54556   0.00000  Uiso   1.00
C102   C     0.06056   0.81533   0.26043   0.00000  Uiso   1.00
C103   C     0.09334   0.87948   0.25929   0.00000  Uiso   1.00
C104   C     0.15744   0.88402   0.24293   0.00000  Uiso   1.00
C105   C     0.26196   0.91852   0.21941   0.00000  Uiso   1.00
C106   C     0.04585   0.69273   0.25002   0.00000  Uiso   1.00
C107   C     0.97672   0.71317   0.20004   0.00000  Uiso   1.00
C108   C     0.94491   0.68014   0.14523   0.00000  Uiso   1.00
C109   C     0.88177   0.70676   0.10555   0.00000  Uiso   1.00
C110   C     0.03202   0.67992   0.32278   0.00000  Uiso   1.00
C111   C     0.04672   0.61893   0.37116   0.00000  Uiso   1.00
C112   C     0.03015   0.61756   0.43481   0.00000  Uiso   1.00
C113   C     0.09073   0.75774   0.24576   0.00000  Uiso   1.00
C114   C     0.15480   0.76218   0.22941   0.00000  Uiso   1.00
C115   C     0.18766   0.82633   0.22824   0.00000  Uiso   1.00
H116   H     0.96681   0.84358   0.28845   0.00000  Uiso   1.00
H117   H     0.86011   0.84200   0.18648   0.00000  Uiso   1.00
H118   H     0.96191   0.78080   0.41238   0.00000  Uiso   1.00
H119   H     0.06997   0.92403   0.27064   0.00000  Uiso   1.00
H120   H     0.75511   0.81483   0.06697   0.00000  Uiso   1.00
H121   H     0.96979   0.68580   0.54330   0.00000  Uiso   1.00
H122   H     0.19766   0.98784   0.24443   0.00000  Uiso   1.00
H123   H     0.06934   0.64789   0.23861   0.00000  Uiso   1.00
H124   H     0.96827   0.63557   0.13389   0.00000  Uiso   1.00
H125   H     0.07007   0.57438   0.35980   0.00000  Uiso   1.00
H126   H     0.17813   0.71761   0.21806   0.00000  Uiso   1.00
H127   H     0.84289   0.64729   0.02429   0.00000  Uiso   1.00
H128   H     0.05758   0.51826   0.50063   0.00000  Uiso   1.00
H129   H     0.28544   0.82029   0.20176   0.00000  Uiso   1.00
O130   O     0.73065   0.72647   0.97766   0.00000  Uiso   1.00
O131   O     0.01231   0.55720   0.60259   0.00000  Uiso   1.00
O132   O     0.31127   0.95346   0.21048   0.00000  Uiso   1.00
N133   N     0.78965   0.77710   0.07129   0.00000  Uiso   1.00
N134   N     0.99035   0.65646   0.51662   0.00000  Uiso   1.00
N135   N     0.20339   0.93883   0.23723   0.00000  Uiso   1.00
N136   N     0.83688   0.68695   0.04832   0.00000  Uiso   1.00
N137   N     0.03759   0.56631   0.49366   0.00000  Uiso   1.00
N138   N     0.25063   0.84868   0.21426   0.00000  Uiso   1.00
C139   C     0.78545   0.33420   0.41728   0.00000  Uiso   1.00
C140   C     0.71392   0.31555   0.37825   0.00000  Uiso   1.00
C141   C     0.68018   0.34752   0.31215   0.00000  Uiso   1.00
C142   C     0.61502   0.32288   0.28553   0.00000  Uiso   1.00
C143   C     0.50858   0.30222   0.21910   0.00000  Uiso   1.00
C144   C     0.82768   0.26709   0.43570   0.00000  Uiso   1.00
C145   C     0.88959   0.25831   0.41791   0.00000  Uiso   1.00
C146   C     0.92020   0.19288   0.43965   0.00000  Uiso   1.00
C147   C     0.99040   0.09699   0.46246   0.00000  Uiso   1.00
C148   C     0.77656   0.35101   0.48604   0.00000  Uiso   1.00
C149   C     0.79550   0.41278   0.51059   0.00000  Uiso   1.00
C150   C     0.78308   0.41800   0.57473   0.00000  Uiso   1.00
C151   C     0.77390   0.45241   0.67571   0.00000  Uiso   1.00
C152   C     0.72973   0.23360   0.48754   0.00000  Uiso   1.00
C153   C     0.68366   0.26091   0.41642   0.00000  Uiso   1.00
C154   C     0.61854   0.23622   0.38988   0.00000  Uiso   1.00
C155   C     0.58470   0.26815   0.32376   0.00000  Uiso   1.00
C156   C     0.79742   0.21244   0.47386   0.00000  Uiso   1.00
C157   C     0.82795   0.14701   0.49564   0.00000  Uiso   1.00
C158   C     0.88988   0.13813   0.47788   0.00000  Uiso   1.00
C159   C     0.74630   0.29637   0.52421   0.00000  Uiso   1.00
C160   C     0.73385   0.30148   0.58832   0.00000  Uiso   1.00
C161   C     0.75277   0.36326   0.61296   0.00000  Uiso   1.00
H162   H     0.80901   0.37674   0.38758   0.00000  Uiso   1.00
H163   H     0.70362   0.38980   0.28264   0.00000  Uiso   1.00
H164   H     0.91300   0.30061   0.38838   0.00000  Uiso   1.00
H165   H     0.81892   0.45506   0.48105   0.00000  Uiso   1.00
H166   H     0.57344   0.38018   0.18311   0.00000  Uiso   1.00
H167   H     0.01494   0.19211   0.40610   0.00000  Uiso   1.00
H168   H     0.81655   0.51780   0.60151   0.00000  Uiso   1.00
H169   H     0.70617   0.19105   0.51725   0.00000  Uiso   1.00
H170   H     0.59513   0.19393   0.41943   0.00000  Uiso   1.00
H171   H     0.80452   0.10474   0.52517   0.00000  Uiso   1.00
H172   H     0.71043   0.25919   0.61784   0.00000  Uiso   1.00
H173   H     0.48539   0.22120   0.29413   0.00000  Uiso   1.00
H174   H     0.92689   0.03313   0.51713   0.00000  Uiso   1.00
H175   H     0.72850   0.35882   0.71253   0.00000  Uiso   1.00
O176   O     0.45823   0.30591   0.17192   0.00000  Uiso   1.00
O177   O     0.03747   0.05919   0.46449   0.00000  Uiso   1.00
O178   O     0.77719   0.48648   0.72085   0.00000  Uiso   1.00
N179   N     0.56795   0.34237   0.22267   0.00000  Uiso   1.00
N180   N     0.98072   0.16654   0.43114   0.00000  Uiso   1.00
N181   N     0.79526   0.47103   0.61384   0.00000  Uiso   1.00
N182   N     0.52057   0.25683   0.28241   0.00000  Uiso   1.00
N183   N     0.93334   0.08100   0.49088   0.00000  Uiso   1.00
N184   N     0.74788   0.38548   0.67358   0.00000  Uiso   1.00
C185   C     0.28315   0.48970   0.93514   0.00000  Uiso   1.00
C186   C     0.24025   0.48281   0.86317   0.00000  Uiso   1.00
C187   C     0.24917   0.43258   0.82491   0.00000  Uiso   1.00
C188   C     0.20461   0.43510   0.76015   0.00000  Uiso   1.00
C189   C     0.14583   0.41663   0.65230   0.00000  Uiso   1.00
C190   C     0.23219   0.48698   0.98158   0.00000  Uiso   1.00
C191   C     0.23435   0.44025   0.04289   0.00000  Uiso   1.00
C192   C     0.18302   0.44629   0.07782   0.00000  Uiso   1.00
C193   C     0.11176   0.43432   0.15383   0.00000  Uiso   1.00
C194   C     0.31189   0.56360   0.92848   0.00000  Uiso   1.00
C195   C     0.38106   0.58130   0.94515   0.00000  Uiso   1.00
C196   C     0.39682   0.65185   0.93539   0.00000  Uiso   1.00
C197   C     0.44930   0.75885   0.92895   0.00000  Uiso   1.00
C198   C     0.18815   0.58352   0.88816   0.00000  Uiso   1.00
C199   C     0.18865   0.53377   0.83766   0.00000  Uiso   1.00
C200   C     0.14407   0.53638   0.77294   0.00000  Uiso   1.00
C201   C     0.15292   0.48615   0.73459   0.00000  Uiso   1.00
C202   C     0.18059   0.53794   0.95607   0.00000  Uiso   1.00
C203   C     0.12925   0.54405   0.99092   0.00000  Uiso   1.00
C204   C     0.13132   0.49734   0.05226   0.00000  Uiso   1.00
C205   C     0.26029   0.61456   0.90296   0.00000  Uiso   1.00
C206   C     0.27595   0.68510   0.89318   0.00000  Uiso   1.00
C207   C     0.34513   0.70290   0.90983   0.00000  Uiso   1.00
H208   H     0.32332   0.45003   0.95501   0.00000  Uiso   1.00
H209   H     0.28911   0.39315   0.84468   0.00000  Uiso   1.00
H210   H     0.27429   0.40083   0.06263   0.00000  Uiso   1.00
H211   H     0.42097   0.54185   0.96490   0.00000  Uiso   1.00
H212   H     0.22841   0.35254   0.71112   0.00000  Uiso   1.00
H213   H     0.19719   0.36875   0.17068   0.00000  Uiso   1.00
H214   H     0.50649   0.66612   0.96461   0.00000  Uiso   1.00
H215   H     0.14797   0.62320   0.86830   0.00000  Uiso   1.00
H216   H     0.10414   0.57582   0.75321   0.00000  Uiso   1.00
H217   H     0.08932   0.58349   0.97116   0.00000  Uiso   1.00
H218   H     0.23600   0.72452   0.87343   0.00000  Uiso   1.00
H219   H     0.07828   0.50080   0.63688   0.00000  Uiso   1.00
H220   H     0.04706   0.51701   0.09645   0.00000  Uiso   1.00
H221   H     0.35636   0.81439   0.89037   0.00000  Uiso   1.00
O222   O     0.12766   0.39236   0.59986   0.00000  Uiso   1.00
O223   O     0.08671   0.41364   0.20280   0.00000  Uiso   1.00
O224   O     0.49250   0.80379   0.93243   0.00000  Uiso   1.00
N225   N     0.19910   0.39394   0.70943   0.00000  Uiso   1.00
N226   N     0.16990   0.40909   0.13909   0.00000  Uiso   1.00
N227   N     0.45907   0.68711   0.94645   0.00000  Uiso   1.00
N228   N     0.11832   0.47372   0.66948   0.00000  Uiso   1.00
N229   N     0.08912   0.48887   0.09915   0.00000  Uiso   1.00
N230   N     0.37829   0.76689   0.90650   0.00000  Uiso   1.00
C231   C     0.52174   0.76601   0.39955   0.00000  Uiso   1.00
C232   C     0.48855   0.69669   0.42231   0.00000  Uiso   1.00
C233   C     0.44691   0.68482   0.46975   0.00000  Uiso   1.00
C234   C     0.42153   0.61776   0.48359   0.00000  Uiso   1.00
C235   C     0.36757   0.51823   0.52385   0.00000  Uiso   1.00
C236   C     0.49763   0.78251   0.32059   0.00000  Uiso   1.00
C237   C     0.46363   0.84281   0.28250   0.00000  Uiso   1.00
C238   C     0.44590   0.84799   0.21071   0.00000  Uiso   1.00
C239   C     0.40608   0.88171   0.09303   0.00000  Uiso   1.00
C240   C     0.59889   0.75168   0.41479   0.00000  Uiso   1.00
C241   C     0.65005   0.78607   0.45589   0.00000  Uiso   1.00
C242   C     0.71758   0.76531   0.46341   0.00000  Uiso   1.00
C243   C     0.83498   0.75117   0.49199   0.00000  Uiso   1.00
C244   C     0.55070   0.66801   0.33978   0.00000  Uiso   1.00
C245   C     0.50428   0.64346   0.38984   0.00000  Uiso   1.00
C246   C     0.47895   0.57640   0.40362   0.00000  Uiso   1.00
C247   C     0.43729   0.56444   0.45108   0.00000  Uiso   1.00
C248   C     0.51335   0.72928   0.28812   0.00000  Uiso   1.00
C249   C     0.49567   0.73438   0.21637   0.00000  Uiso   1.00
C250   C     0.46166   0.79466   0.17819   0.00000  Uiso   1.00
C251   C     0.61462   0.69845   0.38233   0.00000  Uiso   1.00
C252   C     0.68209   0.67764   0.38977   0.00000  Uiso   1.00
C253   C     0.73334   0.71199   0.43088   0.00000  Uiso   1.00
H254   H     0.50949   0.80746   0.42482   0.00000  Uiso   1.00
H255   H     0.43475   0.72603   0.49485   0.00000  Uiso   1.00
H256   H     0.45147   0.88399   0.30763   0.00000  Uiso   1.00
H257   H     0.63786   0.82726   0.48101   0.00000  Uiso   1.00
H258   H     0.35879   0.61229   0.55817   0.00000  Uiso   1.00
H259   H     0.39408   0.94537   0.16340   0.00000  Uiso   1.00
H260   H     0.78711   0.82574   0.52899   0.00000  Uiso   1.00
H261   H     0.56295   0.62657   0.31451   0.00000  Uiso   1.00
H262   H     0.49114   0.53522   0.37849   0.00000  Uiso   1.00
H263   H     0.50786   0.69318   0.19127   0.00000  Uiso   1.00
H264   H     0.69424   0.63645   0.36464   0.00000  Uiso   1.00
H265   H     0.40456   0.45742   0.46372   0.00000  Uiso   1.00
H266   H     0.43985   0.79050   0.06895   0.00000  Uiso   1.00
H267   H     0.83287   0.67087   0.43454   0.00000  Uiso   1.00
O268   O     0.33345   0.47803   0.55501   0.00000  Uiso   1.00
O269   O     0.37976   0.91502   0.03709   0.00000  Uiso   1.00
O270   O     0.89540   0.75807   0.51674   0.00000  Uiso   1.00
N271   N     0.37943   0.58838   0.52717   0.00000  Uiso   1.00
N272   N     0.41241   0.89978   0.15809   0.00000  Uiso   1.00
N273   N     0.77986   0.78795   0.49987   0.00000  Uiso   1.00
N274   N     0.40406   0.50504   0.47635   0.00000  Uiso   1.00
N275   N     0.43704   0.81644   0.10727   0.00000  Uiso   1.00
N276   N     0.80449   0.70462   0.44904   0.00000  Uiso   1.00
C277   C     0.67978   0.97305   0.14953   0.00000  Uiso   1.00
C278   C     0.75247   0.97308   0.19513   0.00000  Uiso   1.00
C279   C     0.80799   0.01040   0.17672   0.00000  Uiso   1.00
C280   C     0.87023   0.00344   0.22575   0.00000  Uiso   1.00
C281   C     0.98212   0.01002   0.28666   0.00000  Uiso   1.00
C282   C     0.63218   0.99513   0.19139   0.00000  Uiso   1.00
C283   C     0.58656   0.05098   0.16984   0.00000  Uiso   1.00
C284   C     0.54754   0.06257   0.21573   0.00000  Uiso   1.00
C285   C     0.47264   0.10335   0.27082   0.00000  Uiso   1.00
C286   C     0.66278   0.89700   0.14417   0.00000  Uiso   1.00
C287   C     0.64286   0.87035   0.08292   0.00000  Uiso   1.00
C288   C     0.62958   0.79933   0.08905   0.00000  Uiso   1.00
C289   C     0.60218   0.68775   0.07083   0.00000  Uiso   1.00
C290   C     0.69159   0.89433   0.26933   0.00000  Uiso   1.00
C291   C     0.75888   0.93032   0.26020   0.00000  Uiso   1.00
C292   C     0.82106   0.92330   0.30927   0.00000  Uiso   1.00
C293   C     0.87666   0.96061   0.29094   0.00000  Uiso   1.00
C294   C     0.63859   0.95237   0.25646   0.00000  Uiso   1.00
C295   C     0.59963   0.96388   0.30239   0.00000  Uiso   1.00
C296   C     0.55396   0.01974   0.28092   0.00000  Uiso   1.00
C297   C     0.66919   0.85424   0.20925   0.00000  Uiso   1.00
C298   C     0.65593   0.78325   0.21547   0.00000  Uiso   1.00
C299   C     0.63600   0.75649   0.15424   0.00000  Uiso   1.00
H300   H     0.67478   0.00634   0.09887   0.00000  Uiso   1.00
H301   H     0.80300   0.04349   0.12636   0.00000  Uiso   1.00
H302   H     0.58160   0.08405   0.11948   0.00000  Uiso   1.00
H303   H     0.63790   0.90345   0.03257   0.00000  Uiso   1.00
H304   H     0.94798   0.06584   0.18554   0.00000  Uiso   1.00
H305   H     0.48114   0.15136   0.17102   0.00000  Uiso   1.00
H306   H     0.59984   0.77052   0.98776   0.00000  Uiso   1.00
H307   H     0.69658   0.86104   0.32000   0.00000  Uiso   1.00
H308   H     0.82600   0.89021   0.35962   0.00000  Uiso   1.00
H309   H     0.60460   0.93078   0.35274   0.00000  Uiso   1.00
H310   H     0.66090   0.75018   0.26583   0.00000  Uiso   1.00
H311   H     0.96665   0.94144   0.37487   0.00000  Uiso   1.00
H312   H     0.49980   0.02696   0.36035   0.00000  Uiso   1.00
H313   H     0.61851   0.64612   0.17709   0.00000  Uiso   1.00
O314   O     0.04205   0.02547   0.30229   0.00000  Uiso   1.00
O315   O     0.42956   0.13766   0.28324   0.00000  Uiso   1.00
O316   O     0.58531   0.63801   0.04280   0.00000  Uiso   1.00
N317   N     0.93462   0.03255   0.22466   0.00000  Uiso   1.00
N318   N     0.49815   0.11251   0.21109   0.00000  Uiso   1.00
N319   N     0.60912   0.75646   0.03975   0.00000  Uiso   1.00
N320   N     0.94466   0.96561   0.32653   0.00000  Uiso   1.00
N321   N     0.50820   0.04557   0.31296   0.00000  Uiso   1.00
N322   N     0.61916   0.68952   0.14163   0.00000  Uiso   1.00
C323   C     0.08125   0.74505   0.02475   0.00000  Uiso   1.00
C324   C     0.07955   0.81946   0.03821   0.00000  Uiso   1.00
C325   C     0.03441   0.84487   0.07124   0.00000  Uiso   1.00
C326   C     0.04118   0.91447   0.07851   0.00000  Uiso   1.00
C327   C     0.03094   0.02352   0.10322   0.00000  Uiso   1.00
C328   C     0.15433   0.71837   0.05811   0.00000  Uiso   1.00
C329   C     0.17204   0.65879   0.10787   0.00000  Uiso   1.00
C330   C     0.24176   0.64330   0.13189   0.00000  Uiso   1.00
C331   C     0.34760   0.59539   0.18746   0.00000  Uiso   1.00
C332   C     0.07314   0.75106   0.94654   0.00000  Uiso   1.00
C333   C     0.02261   0.71894   0.90248   0.00000  Uiso   1.00
C334   C     0.02399   0.73095   0.83255   0.00000  Uiso   1.00
C335   C     0.00378   0.73378   0.71489   0.00000  Uiso   1.00
C336   C     0.17357   0.82348   0.97892   0.00000  Uiso   1.00
C337   C     0.12970   0.86205   0.01332   0.00000  Uiso   1.00
C338   C     0.13654   0.93164   0.02054   0.00000  Uiso   1.00
C339   C     0.09141   0.95715   0.05357   0.00000  Uiso   1.00
C340   C     0.20447   0.76097   0.03322   0.00000  Uiso   1.00
C341   C     0.27418   0.74556   0.05717   0.00000  Uiso   1.00
C342   C     0.29200   0.68597   0.10695   0.00000  Uiso   1.00
C343   C     0.12328   0.79366   0.92164   0.00000  Uiso   1.00
C344   C     0.12474   0.80572   0.85177   0.00000  Uiso   1.00
C345   C     0.07422   0.77363   0.80762   0.00000  Uiso   1.00
H346   H     0.04222   0.71188   0.04413   0.00000  Uiso   1.00
H347   H     0.99562   0.81188   0.09050   0.00000  Uiso   1.00
H348   H     0.13323   0.62583   0.12712   0.00000  Uiso   1.00
H349   H     0.98382   0.68597   0.92176   0.00000  Uiso   1.00
H350   H     0.96607   0.94153   0.13095   0.00000  Uiso   1.00
H351   H     0.25624   0.54922   0.20815   0.00000  Uiso   1.00
H352   H     0.94118   0.67604   0.77510   0.00000  Uiso   1.00
H353   H     0.21260   0.85664   0.95954   0.00000  Uiso   1.00
H354   H     0.17535   0.96459   0.00127   0.00000  Uiso   1.00
H355   H     0.31296   0.77854   0.03789   0.00000  Uiso   1.00
H356   H     0.16355   0.83869   0.83253   0.00000  Uiso   1.00
H357   H     0.11195   0.06548   0.05853   0.00000  Uiso   1.00
H358   H     0.40212   0.67316   0.13573   0.00000  Uiso   1.00
H359   H     0.08706   0.79999   0.70268   0.00000  Uiso   1.00
O360   O     0.01145   0.07190   0.12374   0.00000  Uiso   1.00
O361   O     0.39213   0.55719   0.22500   0.00000  Uiso   1.00
O362   O     0.97878   0.72359   0.65686   0.00000  Uiso   1.00
N363   N     0.00551   0.95589   0.10817   0.00000  Uiso   1.00
N364   N     0.27680   0.58911   0.18035   0.00000  Uiso   1.00
N365   N     0.98226   0.70766   0.77549   0.00000  Uiso   1.00
N366   N     0.08401   0.02258   0.06920   0.00000  Uiso   1.00
N367   N     0.35530   0.65580   0.14138   0.00000  Uiso   1.00
N368   N     0.06075   0.77436   0.73653   0.00000  Uiso   1.00
C369   C     0.00970   0.20125   0.72297   0.00000  Uiso   1.00
C370   C     0.05345   0.22924   0.78529   0.00000  Uiso   1.00
C371   C     0.11655   0.20256   0.82489   0.00000  Uiso   1.00
C372   C     0.14846   0.23555   0.87975   0.00000  Uiso   1.00
C373   C     0.22100   0.27028   0.97426   0.00000  Uiso   1.00
C374   C     0.99815   0.26250   0.66256   0.00000  Uiso   1.00
C375   C     0.01474   0.26377   0.59896   0.00000  Uiso   1.00
C376   C     0.00008   0.32475   0.55050   0.00000  Uiso   1.00
C377   C     0.98671   0.41109   0.45444   0.00000  Uiso   1.00
C378   C     0.93944   0.18467   0.73957   0.00000  Uiso   1.00
C379   C     0.90666   0.12052   0.74071   0.00000  Uiso   1.00
C380   C     0.84256   0.11598   0.75707   0.00000  Uiso   1.00
C381   C     0.73804   0.08148   0.78059   0.00000  Uiso   1.00
C382   C     0.95415   0.30727   0.74998   0.00000  Uiso   1.00
C383   C     0.02328   0.28683   0.79996   0.00000  Uiso   1.00
C384   C     0.05509   0.31986   0.85477   0.00000  Uiso   1.00
C385   C     0.11823   0.29324   0.89445   0.00000  Uiso   1.00
C386   C     0.96798   0.32008   0.67722   0.00000  Uiso   1.00
C387   C     0.95328   0.38107   0.62884   0.00000  Uiso   1.00
C388   C     0.96985   0.38244   0.56519   0.00000  Uiso   1.00
C389   C     0.90927   0.24226   0.75424   0.00000  Uiso   1.00
C390   C     0.84520   0.23782   0.77059   0.00000  Uiso   1.00
C391   C     0.81234   0.17367   0.77176   0.00000  Uiso   1.00
H392   H     0.03319   0.15642   0.71155   0.00000  Uiso   1.00
H393   H     0.13989   0.15800   0.81352   0.00000  Uiso   1.00
H394   H     0.03809   0.21920   0.58762   0.00000  Uiso   1.00
H395   H     0.93003   0.07597   0.72936   0.00000  Uiso   1.00
H396   H     0.24489   0.18517   0.93303   0.00000  Uiso   1.00
H397   H     0.03021   0.31420   0.45670   0.00000  Uiso   1.00
H398   H     0.80234   0.01216   0.75557   0.00000  Uiso   1.00
H399   H     0.93066   0.35211   0.76139   0.00000  Uiso   1.00
H400   H     0.03173   0.36443   0.86611   0.00000  Uiso   1.00
H401   H     0.92993   0.42562   0.64020   0.00000  Uiso   1.00
H402   H     0.82187   0.28239   0.78194   0.00000  Uiso   1.00
H403   H     0.15711   0.35271   0.97571   0.00000  Uiso   1.00
H404   H     0.94242   0.48174   0.49937   0.00000  Uiso   1.00
H405   H     0.71456   0.17971   0.79824   0.00000  Uiso   1.00
O406   O     0.26935   0.27353   0.02234   0.00000  Uiso   1.00
O407   O     0.98769   0.44280   0.39741   0.00000  Uiso   1.00
O408   O     0.68873   0.04654   0.78952   0.00000  Uiso   1.00
N409   N     0.21035   0.22290   0.92871   0.00000  Uiso   1.00
N410   N     0.00965   0.34354   0.48338   0.00000  Uiso   1.00
N411   N     0.79661   0.06117   0.76277   0.00000  Uiso   1.00
N412   N     0.16312   0.31305   0.95168   0.00000  Uiso   1.00
N413   N     0.96241   0.43369   0.50634   0.00000  Uiso   1.00
N414   N     0.74937   0.15132   0.78574   0.00000  Uiso   1.00
C415   C     0.21455   0.66580   0.58272   0.00000  Uiso   1.00
C416   C     0.28608   0.68445   0.62175   0.00000  Uiso   1.00
C417   C     0.31982   0.65248   0.68785   0.00000  Uiso   1.00
C418   C     0.38498   0.67712   0.71447   0.00000  Uiso   1.00
C419   C     0.49142   0.69778   0.78090   0.00000  Uiso   1.00
C420   C     0.17232   0.73291   0.56430   0.00000  Uiso   1.00
C421   C     0.11041   0.74169   0.58209   0.00000  Uiso   1.00
C422   C     0.07980   0.80712   0.56035   0.00000  Uiso   1.00
C423   C     0.00960   0.90301   0.53754   0.00000  Uiso   1.00
C424   C     0.22344   0.64899   0.51396   0.00000  Uiso   1.00
C425   C     0.20450   0.58722   0.48941   0.00000  Uiso   1.00
C426   C     0.21692   0.58200   0.42527   0.00000  Uiso   1.00
C427   C     0.22610   0.54759   0.32429   0.00000  Uiso   1.00
C428   C     0.27027   0.76640   0.51246   0.00000  Uiso   1.00
C429   C     0.31634   0.73909   0.58358   0.00000  Uiso   1.00
C430   C     0.38146   0.76378   0.61012   0.00000  Uiso   1.00
C431   C     0.41530   0.73185   0.67624   0.00000  Uiso   1.00
C432   C     0.20258   0.78756   0.52614   0.00000  Uiso   1.00
C433   C     0.17205   0.85299   0.50436   0.00000  Uiso   1.00
C434   C     0.11012   0.86187   0.52212   0.00000  Uiso   1.00
C435   C     0.25370   0.70363   0.47579   0.00000  Uiso   1.00
C436   C     0.26615   0.69852   0.41168   0.00000  Uiso   1.00
C437   C     0.24723   0.63674   0.38704   0.00000  Uiso   1.00
H438   H     0.19099   0.62326   0.61242   0.00000  Uiso   1.00
H439   H     0.29638   0.61020   0.71736   0.00000  Uiso   1.00
H440   H     0.08700   0.69939   0.61162   0.00000  Uiso   1.00
H441   H     0.18108   0.54494   0.51895   0.00000  Uiso   1.00
H442   H     0.42656   0.61982   0.81689   0.00000  Uiso   1.00
H443   H     0.98506   0.80789   0.59390   0.00000  Uiso   1.00
H444   H     0.18345   0.48220   0.39849   0.00000  Uiso   1.00
H445   H     0.29383   0.80895   0.48275   0.00000  Uiso   1.00
H446   H     0.40487   0.80607   0.58057   0.00000  Uiso   1.00
H447   H     0.19548   0.89526   0.47483   0.00000  Uiso   1.00
H448   H     0.28957   0.74081   0.38216   0.00000  Uiso   1.00
H449   H     0.51461   0.77880   0.70587   0.00000  Uiso   1.00
H450   H     0.07311   0.96687   0.48287   0.00000  Uiso   1.00
H451   H     0.27150   0.64118   0.28747   0.00000  Uiso   1.00
O452   O     0.54177   0.69409   0.82808   0.00000  Uiso   1.00
O453   O     0.96253   0.94081   0.53551   0.00000  Uiso   1.00
O454   O     0.22281   0.51352   0.27915   0.00000  Uiso   1.00
N455   N     0.43205   0.65763   0.77733   0.00000  Uiso   1.00
N456   N     0.01928   0.83346   0.56886   0.00000  Uiso   1.00
N457   N     0.20474   0.52897   0.38616   0.00000  Uiso   1.00
N458   N     0.47943   0.74317   0.71759   0.00000  Uiso   1.00
N459   N     0.06666   0.91900   0.50912   0.00000  Uiso   1.00
N460   N     0.25212   0.61452   0.32642   0.00000  Uiso   1.00
C461   C     0.71685   0.51030   0.06486   0.00000  Uiso   1.00
C462   C     0.75975   0.51719   0.13683   0.00000  Uiso   1.00
C463   C     0.75083   0.56742   0.17509   0.00000  Uiso   1.00
C464   C     0.79539   0.56490   0.23985   0.00000  Uiso   1.00
C465   C     0.85417   0.58337   0.34770   0.00000  Uiso   1.00
C466   C     0.76781   0.51302   0.01842   0.00000  Uiso   1.00
C467   C     0.76565   0.55975   0.95711   0.00000  Uiso   1.00
C468   C     0.81698   0.55371   0.92218   0.00000  Uiso   1.00
C469   C     0.88824   0.56568   0.84617   0.00000  Uiso   1.00
C470   C     0.68811   0.43640   0.07152   0.00000  Uiso   1.00
C471   C     0.61894   0.41870   0.05485   0.00000  Uiso   1.00
C472   C     0.60318   0.34815   0.06461   0.00000  Uiso   1.00
C473   C     0.55070   0.24115   0.07105   0.00000  Uiso   1.00
C474   C     0.81185   0.41648   0.11184   0.00000  Uiso   1.00
C475   C     0.81135   0.46623   0.16234   0.00000  Uiso   1.00
C476   C     0.85593   0.46362   0.22706   0.00000  Uiso   1.00
C477   C     0.84708   0.51385   0.26541   0.00000  Uiso   1.00
C478   C     0.81941   0.46206   0.04393   0.00000  Uiso   1.00
C479   C     0.87075   0.45595   0.00908   0.00000  Uiso   1.00
C480   C     0.86868   0.50266   0.94774   0.00000  Uiso   1.00
C481   C     0.73971   0.38544   0.09704   0.00000  Uiso   1.00
C482   C     0.72405   0.31490   0.10682   0.00000  Uiso   1.00
C483   C     0.65487   0.29710   0.09017   0.00000  Uiso   1.00
H484   H     0.67668   0.54997   0.04499   0.00000  Uiso   1.00
H485   H     0.71089   0.60685   0.15532   0.00000  Uiso   1.00
H486   H     0.72571   0.59917   0.93737   0.00000  Uiso   1.00
H487   H     0.57903   0.45815   0.03510   0.00000  Uiso   1.00
H488   H     0.77159   0.64746   0.28888   0.00000  Uiso   1.00
H489   H     0.80281   0.63125   0.82932   0.00000  Uiso   1.00
H490   H     0.49351   0.33388   0.03539   0.00000  Uiso   1.00
H491   H     0.85203   0.37680   0.13170   0.00000  Uiso   1.00
H492   H     0.89586   0.42418   0.24679   0.00000  Uiso   1.00
H493   H     0.91068   0.41651   0.02884   0.00000  Uiso   1.00
H494   H     0.76400   0.27548   0.12657   0.00000  Uiso   1.00
H495   H     0.92172   0.49920   0.36312   0.00000  Uiso   1.00
H496   H     0.95294   0.48299   0.90355   0.00000  Uiso   1.00
H497   H     0.64364   0.18561   0.10963   0.00000  Uiso   1.00
O498   O     0.87234   0.60764   0.40014   0.00000  Uiso   1.00
O499   O     0.91329   0.58636   0.79720   0.00000  Uiso   1.00
O500   O     0.50750   0.19621   0.06757   0.00000  Uiso   1.00
N501   N     0.80090   0.60606   0.29057   0.00000  Uiso   1.00
N502   N     0.83010   0.59091   0.86091   0.00000  Uiso   1.00
N503   N     0.54093   0.31289   0.05355   0.00000  Uiso   1.00
N504   N     0.88168   0.52628   0.33052   0.00000  Uiso   1.00
N505   N     0.91088   0.51113   0.90085   0.00000  Uiso   1.00
N506   N     0.62171   0.23311   0.09350   0.00000  Uiso   1.00
C507   C     0.47826   0.23399   0.60045   0.00000  Uiso   1.00
C508   C     0.51145   0.30331   0.57769   0.00000  Uiso   1.00
C509   C     0.55309   0.31518   0.53025   0.00000  Uiso   1.00
C510   C     0.57847   0.38224   0.51641   0.00000  Uiso   1.00
C511   C     0.63243   0.48177   0.47615   0.00000  Uiso   1.00
C512   C     0.50237   0.21749   0.67941   0.00000  Uiso   1.00
C513   C     0.53637   0.15719   0.71750   0.00000  Uiso   1.00
C514   C     0.55410   0.15201   0.78929   0.00000  Uiso   1.00
C515   C     0.59392   0.11829   0.90697   0.00000  Uiso   1.00
C516   C     0.40111   0.24832   0.58521   0.00000  Uiso   1.00
C517   C     0.34995   0.21393   0.54411   0.00000  Uiso   1.00
C518   C     0.28242   0.23469   0.53659   0.00000  Uiso   1.00
C519   C     0.16502   0.24883   0.50801   0.00000  Uiso   1.00
C520   C     0.44930   0.33199   0.66022   0.00000  Uiso   1.00
C521   C     0.49572   0.35654   0.61016   0.00000  Uiso   1.00
C522   C     0.52105   0.42360   0.59638   0.00000  Uiso   1.00
C523   C     0.56271   0.43556   0.54892   0.00000  Uiso   1.00
C524   C     0.48665   0.27072   0.71188   0.00000  Uiso   1.00
C525   C     0.50433   0.26562   0.78363   0.00000  Uiso   1.00
C526   C     0.53834   0.20534   0.82181   0.00000  Uiso   1.00
C527   C     0.38538   0.30155   0.61767   0.00000  Uiso   1.00
C528   C     0.31791   0.32236   0.61023   0.00000  Uiso   1.00
C529   C     0.26666   0.28801   0.56912   0.00000  Uiso   1.00
H530   H     0.49051   0.19254   0.57518   0.00000  Uiso   1.00
H531   H     0.56525   0.27397   0.50515   0.00000  Uiso   1.00
H532   H     0.54853   0.11601   0.69237   0.00000  Uiso   1.00
H533   H     0.36214   0.17274   0.51899   0.00000  Uiso   1.00
H534   H     0.64121   0.38771   0.44183   0.00000  Uiso   1.00
H535   H     0.60592   0.05463   0.83660   0.00000  Uiso   1.00
H536   H     0.21289   0.17426   0.47101   0.00000  Uiso   1.00
H537   H     0.43705   0.37343   0.68549   0.00000  Uiso   1.00
H538   H     0.50886   0.46478   0.62151   0.00000  Uiso   1.00
H539   H     0.49214   0.30682   0.80873   0.00000  Uiso   1.00
H540   H     0.30576   0.36355   0.63536   0.00000  Uiso   1.00
H541   H     0.59544   0.54258   0.53628   0.00000  Uiso   1.00
H542   H     0.56015   0.20950   0.93105   0.00000  Uiso   1.00
H543   H     0.16713   0.32913   0.56546   0.00000  Uiso   1.00
O544   O     0.66655   0.52197   0.44499   0.00000  Uiso   1.00
O545   O     0.62024   0.08498   0.96291   0.00000  Uiso   1.00
O546   O     0.10460   0.24193   0.48326   0.00000  Uiso   1.00
N547   N     0.62057   0.41162   0.47283   0.00000  Uiso   1.00
N548   N     0.58759   0.10022   0.84191   0.00000  Uiso   1.00
N549   N     0.22014   0.21205   0.50013   0.00000  Uiso   1.00
N550   N     0.59594   0.49496   0.52365   0.00000  Uiso   1.00
N551   N     0.56296   0.18356   0.89273   0.00000  Uiso   1.00
N552   N     0.19551   0.29538   0.55096   0.00000  Uiso   1.00
