data_job_05697
_audit_creation_date              2018-12-19
_audit_creation_method            'Materials Studio'
_symmetry_space_group_name_H-M    'P1'
_symmetry_Int_Tables_number       1
_symmetry_cell_setting            triclinic
loop_
_symmetry_equiv_pos_as_xyz
  x,y,z
_cell_length_a                    22.9094
_cell_length_b                    12.3235
_cell_length_c                    22.0741
_cell_angle_alpha                 90.0000
_cell_angle_beta                  134.0671
_cell_angle_gamma                 90.0000
loop_
_atom_site_label
_atom_site_type_symbol
_atom_site_fract_x
_atom_site_fract_y
_atom_site_fract_z
_atom_site_U_iso_or_equiv
_atom_site_adp_type
_atom_site_occupancy
C1     C     0.30289   0.53499   0.27697   0.00000  Uiso   1.00
C2     C     0.30820   0.64643   0.31057   0.00000  Uiso   1.00
C3     C     0.37665   0.71208   0.36180   0.00000  Uiso   1.00
C4     C     0.36912   0.81115   0.38580   0.00000  Uiso   1.00
C5     C     0.38853   0.97927   0.44201   0.00000  Uiso   1.00
C6     C     0.27449   0.45715   0.30582   0.00000  Uiso   1.00
C7     C     0.31460   0.36366   0.35305   0.00000  Uiso   1.00
C8     C     0.27869   0.30338   0.37303   0.00000  Uiso   1.00
C9     C     0.24574   0.17761   0.42182   0.00000  Uiso   1.00
C10    C     0.23341   0.54195   0.18130   0.00000  Uiso   1.00
C11    C     0.23897   0.51972   0.12382   0.00000  Uiso   1.00
C12    C     0.16847   0.53081   0.03895   0.00000  Uiso   1.00
C13    C     0.07175   0.53669   0.89440   0.00000  Uiso   1.00
C14    C     0.16780   0.59418   0.22848   0.00000  Uiso   1.00
C15    C     0.23482   0.67857   0.28423   0.00000  Uiso   1.00
C16    C     0.22718   0.77757   0.30815   0.00000  Uiso   1.00
C17    C     0.29561   0.84336   0.35941   0.00000  Uiso   1.00
C18    C     0.20112   0.48930   0.27948   0.00000  Uiso   1.00
C19    C     0.16513   0.42914   0.29939   0.00000  Uiso   1.00
C20    C     0.20518   0.33559   0.34664   0.00000  Uiso   1.00
C21    C     0.16003   0.57409   0.15495   0.00000  Uiso   1.00
C22    C     0.08951   0.58521   0.07016   0.00000  Uiso   1.00
C23    C     0.09496   0.56301   0.01257   0.00000  Uiso   1.00
H24    H     0.36002   0.50996   0.29748   0.00000  Uiso   1.00
H25    H     0.43343   0.68717   0.38218   0.00000  Uiso   1.00
H26    H     0.37138   0.33880   0.37342   0.00000  Uiso   1.00
H27    H     0.29576   0.49484   0.14423   0.00000  Uiso   1.00
H28    H     0.48246   0.89780   0.46450   0.00000  Uiso   1.00
H29    H     0.35162   0.16322   0.44599   0.00000  Uiso   1.00
H30    H     0.19217   0.49227   0.96269   0.00000  Uiso   1.00
H31    H     0.11067   0.61920   0.20797   0.00000  Uiso   1.00
H32    H     0.17039   0.80242   0.28775   0.00000  Uiso   1.00
H33    H     0.10835   0.45404   0.27899   0.00000  Uiso   1.00
H34    H     0.03274   0.61009   0.04980   0.00000  Uiso   1.00
H35    H     0.26898   0.99134   0.38786   0.00000  Uiso   1.00
H36    H     0.13813   0.25675   0.36936   0.00000  Uiso   1.00
H37    H     0.97869   0.58580   0.88605   0.00000  Uiso   1.00
O38    O     0.41951   0.06311   0.48030   0.00000  Uiso   1.00
O39    O     0.24785   0.09935   0.45601   0.00000  Uiso   1.00
O40    O     0.03866   0.53106   0.82194   0.00000  Uiso   1.00
N41    N     0.42402   0.89469   0.43550   0.00000  Uiso   1.00
N42    N     0.30169   0.20790   0.41821   0.00000  Uiso   1.00
N43    N     0.15262   0.51550   0.96636   0.00000  Uiso   1.00
N44    N     0.30914   0.94502   0.39426   0.00000  Uiso   1.00
N45    N     0.18682   0.25823   0.37697   0.00000  Uiso   1.00
N46    N     0.03775   0.56584   0.92512   0.00000  Uiso   1.00
C47    C     0.69711   0.03499   0.22303   0.00000  Uiso   1.00
C48    C     0.69180   0.14643   0.18943   0.00000  Uiso   1.00
C49    C     0.62335   0.21208   0.13820   0.00000  Uiso   1.00
C50    C     0.63088   0.31115   0.11420   0.00000  Uiso   1.00
C51    C     0.61147   0.47927   0.05799   0.00000  Uiso   1.00
C52    C     0.72551   0.95715   0.19418   0.00000  Uiso   1.00
C53    C     0.68540   0.86366   0.14695   0.00000  Uiso   1.00
C54    C     0.72131   0.80338   0.12697   0.00000  Uiso   1.00
C55    C     0.75426   0.67761   0.07818   0.00000  Uiso   1.00
C56    C     0.76659   0.04195   0.31870   0.00000  Uiso   1.00
C57    C     0.76103   0.01972   0.37618   0.00000  Uiso   1.00
C58    C     0.83153   0.03081   0.46105   0.00000  Uiso   1.00
C59    C     0.92825   0.03669   0.60560   0.00000  Uiso   1.00
C60    C     0.83220   0.09418   0.27152   0.00000  Uiso   1.00
C61    C     0.76518   0.17857   0.21577   0.00000  Uiso   1.00
C62    C     0.77282   0.27757   0.19185   0.00000  Uiso   1.00
C63    C     0.70439   0.34336   0.14059   0.00000  Uiso   1.00
C64    C     0.79888   0.98930   0.22052   0.00000  Uiso   1.00
C65    C     0.83487   0.92914   0.20061   0.00000  Uiso   1.00
C66    C     0.79482   0.83559   0.15336   0.00000  Uiso   1.00
C67    C     0.83997   0.07409   0.34505   0.00000  Uiso   1.00
C68    C     0.91049   0.08521   0.42984   0.00000  Uiso   1.00
C69    C     0.90504   0.06301   0.48743   0.00000  Uiso   1.00
H70    H     0.63998   0.00996   0.20252   0.00000  Uiso   1.00
H71    H     0.56657   0.18717   0.11782   0.00000  Uiso   1.00
H72    H     0.62862   0.83880   0.12658   0.00000  Uiso   1.00
H73    H     0.70424   0.99484   0.35577   0.00000  Uiso   1.00
H74    H     0.51754   0.39780   0.03550   0.00000  Uiso   1.00
H75    H     0.64838   0.66322   0.05401   0.00000  Uiso   1.00
H76    H     0.80783   0.99227   0.53731   0.00000  Uiso   1.00
H77    H     0.88933   0.11920   0.29203   0.00000  Uiso   1.00
H78    H     0.82961   0.30242   0.21225   0.00000  Uiso   1.00
H79    H     0.89165   0.95404   0.22101   0.00000  Uiso   1.00
H80    H     0.96726   0.11009   0.45020   0.00000  Uiso   1.00
H81    H     0.73102   0.49134   0.11214   0.00000  Uiso   1.00
H82    H     0.86187   0.75675   0.13064   0.00000  Uiso   1.00
H83    H     0.02131   0.08580   0.61395   0.00000  Uiso   1.00
O84    O     0.58049   0.56311   0.01970   0.00000  Uiso   1.00
O85    O     0.75215   0.59935   0.04399   0.00000  Uiso   1.00
O86    O     0.96134   0.03106   0.67806   0.00000  Uiso   1.00
N87    N     0.57598   0.39469   0.06450   0.00000  Uiso   1.00
N88    N     0.69831   0.70790   0.08179   0.00000  Uiso   1.00
N89    N     0.84738   0.01550   0.53364   0.00000  Uiso   1.00
N90    N     0.69086   0.44502   0.10574   0.00000  Uiso   1.00
N91    N     0.81318   0.75823   0.12303   0.00000  Uiso   1.00
N92    N     0.96225   0.06584   0.57488   0.00000  Uiso   1.00
C93    C     0.69711   0.46501   0.72303   0.00000  Uiso   1.00
C94    C     0.69180   0.35357   0.68943   0.00000  Uiso   1.00
C95    C     0.62335   0.28792   0.63820   0.00000  Uiso   1.00
C96    C     0.63088   0.18885   0.61420   0.00000  Uiso   1.00
C97    C     0.61147   0.02073   0.55799   0.00000  Uiso   1.00
C98    C     0.72551   0.54285   0.69418   0.00000  Uiso   1.00
C99    C     0.68540   0.63634   0.64695   0.00000  Uiso   1.00
C100   C     0.72131   0.69662   0.62697   0.00000  Uiso   1.00
C101   C     0.75426   0.82239   0.57818   0.00000  Uiso   1.00
C102   C     0.76659   0.45805   0.81870   0.00000  Uiso   1.00
C103   C     0.76103   0.48028   0.87618   0.00000  Uiso   1.00
C104   C     0.83153   0.46919   0.96105   0.00000  Uiso   1.00
C105   C     0.92825   0.46331   0.10560   0.00000  Uiso   1.00
C106   C     0.83220   0.40582   0.77152   0.00000  Uiso   1.00
C107   C     0.76518   0.32143   0.71577   0.00000  Uiso   1.00
C108   C     0.77282   0.22243   0.69185   0.00000  Uiso   1.00
C109   C     0.70439   0.15664   0.64059   0.00000  Uiso   1.00
C110   C     0.79888   0.51070   0.72052   0.00000  Uiso   1.00
C111   C     0.83487   0.57086   0.70061   0.00000  Uiso   1.00
C112   C     0.79482   0.66441   0.65336   0.00000  Uiso   1.00
C113   C     0.83997   0.42591   0.84505   0.00000  Uiso   1.00
C114   C     0.91049   0.41479   0.92984   0.00000  Uiso   1.00
C115   C     0.90504   0.43699   0.98743   0.00000  Uiso   1.00
H116   H     0.63998   0.49004   0.70252   0.00000  Uiso   1.00
H117   H     0.56657   0.31283   0.61782   0.00000  Uiso   1.00
H118   H     0.62862   0.66120   0.62658   0.00000  Uiso   1.00
H119   H     0.70424   0.50516   0.85577   0.00000  Uiso   1.00
H120   H     0.51754   0.10220   0.53550   0.00000  Uiso   1.00
H121   H     0.64838   0.83678   0.55401   0.00000  Uiso   1.00
H122   H     0.80783   0.50773   0.03731   0.00000  Uiso   1.00
H123   H     0.88933   0.38080   0.79203   0.00000  Uiso   1.00
H124   H     0.82961   0.19758   0.71225   0.00000  Uiso   1.00
H125   H     0.89165   0.54596   0.72101   0.00000  Uiso   1.00
H126   H     0.96726   0.38991   0.95020   0.00000  Uiso   1.00
H127   H     0.73102   0.00866   0.61214   0.00000  Uiso   1.00
H128   H     0.86187   0.74325   0.63064   0.00000  Uiso   1.00
H129   H     0.02131   0.41420   0.11395   0.00000  Uiso   1.00
O130   O     0.58049   0.93689   0.51970   0.00000  Uiso   1.00
O131   O     0.75215   0.90065   0.54399   0.00000  Uiso   1.00
O132   O     0.96134   0.46894   0.17806   0.00000  Uiso   1.00
N133   N     0.57598   0.10531   0.56450   0.00000  Uiso   1.00
N134   N     0.69831   0.79210   0.58179   0.00000  Uiso   1.00
N135   N     0.84738   0.48450   0.03364   0.00000  Uiso   1.00
N136   N     0.69086   0.05498   0.60574   0.00000  Uiso   1.00
N137   N     0.81318   0.74177   0.62303   0.00000  Uiso   1.00
N138   N     0.96225   0.43416   0.07488   0.00000  Uiso   1.00
C139   C     0.30289   0.96501   0.77697   0.00000  Uiso   1.00
C140   C     0.30820   0.85357   0.81057   0.00000  Uiso   1.00
C141   C     0.37665   0.78792   0.86180   0.00000  Uiso   1.00
C142   C     0.36912   0.68885   0.88580   0.00000  Uiso   1.00
C143   C     0.38853   0.52073   0.94201   0.00000  Uiso   1.00
C144   C     0.27449   0.04285   0.80582   0.00000  Uiso   1.00
C145   C     0.31460   0.13634   0.85305   0.00000  Uiso   1.00
C146   C     0.27869   0.19662   0.87303   0.00000  Uiso   1.00
C147   C     0.24574   0.32239   0.92182   0.00000  Uiso   1.00
C148   C     0.23341   0.95805   0.68130   0.00000  Uiso   1.00
C149   C     0.23897   0.98028   0.62382   0.00000  Uiso   1.00
C150   C     0.16847   0.96919   0.53895   0.00000  Uiso   1.00
C151   C     0.07175   0.96331   0.39440   0.00000  Uiso   1.00
C152   C     0.16780   0.90582   0.72848   0.00000  Uiso   1.00
C153   C     0.23482   0.82143   0.78423   0.00000  Uiso   1.00
C154   C     0.22718   0.72243   0.80815   0.00000  Uiso   1.00
C155   C     0.29561   0.65664   0.85941   0.00000  Uiso   1.00
C156   C     0.20112   0.01070   0.77948   0.00000  Uiso   1.00
C157   C     0.16513   0.07086   0.79939   0.00000  Uiso   1.00
C158   C     0.20518   0.16441   0.84664   0.00000  Uiso   1.00
C159   C     0.16003   0.92591   0.65495   0.00000  Uiso   1.00
C160   C     0.08951   0.91479   0.57016   0.00000  Uiso   1.00
C161   C     0.09496   0.93699   0.51257   0.00000  Uiso   1.00
H162   H     0.36002   0.99004   0.79748   0.00000  Uiso   1.00
H163   H     0.43343   0.81283   0.88218   0.00000  Uiso   1.00
H164   H     0.37138   0.16120   0.87342   0.00000  Uiso   1.00
H165   H     0.29576   0.00516   0.64423   0.00000  Uiso   1.00
H166   H     0.48246   0.60220   0.96450   0.00000  Uiso   1.00
H167   H     0.35162   0.33678   0.94599   0.00000  Uiso   1.00
H168   H     0.19217   0.00773   0.46269   0.00000  Uiso   1.00
H169   H     0.11067   0.88080   0.70797   0.00000  Uiso   1.00
H170   H     0.17039   0.69758   0.78775   0.00000  Uiso   1.00
H171   H     0.10835   0.04596   0.77899   0.00000  Uiso   1.00
H172   H     0.03274   0.88991   0.54980   0.00000  Uiso   1.00
H173   H     0.26898   0.50866   0.88786   0.00000  Uiso   1.00
H174   H     0.13813   0.24325   0.86936   0.00000  Uiso   1.00
H175   H     0.97869   0.91420   0.38605   0.00000  Uiso   1.00
O176   O     0.41951   0.43689   0.98030   0.00000  Uiso   1.00
O177   O     0.24785   0.40065   0.95601   0.00000  Uiso   1.00
O178   O     0.03866   0.96894   0.32194   0.00000  Uiso   1.00
N179   N     0.42402   0.60531   0.93550   0.00000  Uiso   1.00
N180   N     0.30169   0.29210   0.91821   0.00000  Uiso   1.00
N181   N     0.15262   0.98450   0.46636   0.00000  Uiso   1.00
N182   N     0.30914   0.55498   0.89426   0.00000  Uiso   1.00
N183   N     0.18682   0.24177   0.87697   0.00000  Uiso   1.00
N184   N     0.03775   0.93416   0.42512   0.00000  Uiso   1.00
