data_job_00607
_audit_creation_date              2018-12-19
_audit_creation_method            'Materials Studio'
_symmetry_space_group_name_H-M    'P1'
_symmetry_Int_Tables_number       1
_symmetry_cell_setting            triclinic
loop_
_symmetry_equiv_pos_as_xyz
  x,y,z
_cell_length_a                    23.0632
_cell_length_b                    9.5388
_cell_length_c                    17.7276
_cell_angle_alpha                 90.0000
_cell_angle_beta                  147.7133
_cell_angle_gamma                 90.0000
loop_
_atom_site_label
_atom_site_type_symbol
_atom_site_fract_x
_atom_site_fract_y
_atom_site_fract_z
_atom_site_U_iso_or_equiv
_atom_site_adp_type
_atom_site_occupancy
C1     C     0.34356   0.68013   0.70655   0.00000  Uiso   1.00
C2     C     0.27651   0.64214   0.70217   0.00000  Uiso   1.00
C3     C     0.30918   0.55393   0.79606   0.00000  Uiso   1.00
C4     C     0.23604   0.53247   0.77407   0.00000  Uiso   1.00
C5     C     0.14744   0.46361   0.78425   0.00000  Uiso   1.00
C6     C     0.27456   0.63992   0.56260   0.00000  Uiso   1.00
C7     C     0.30559   0.54985   0.53916   0.00000  Uiso   1.00
C8     C     0.23080   0.52654   0.39967   0.00000  Uiso   1.00
C9     C     0.13920   0.45432   0.19317   0.00000  Uiso   1.00
C10    C     0.35078   0.83971   0.71368   0.00000  Uiso   1.00
C11    C     0.44589   0.91764   0.81724   0.00000  Uiso   1.00
C12    C     0.43527   0.06255   0.80493   0.00000  Uiso   1.00
C13    C     0.46201   0.30054   0.83301   0.00000  Uiso   1.00
C14    C     0.15557   0.79890   0.50052   0.00000  Uiso   1.00
C15    C     0.17440   0.70665   0.59026   0.00000  Uiso   1.00
C16    C     0.10119   0.68533   0.56812   0.00000  Uiso   1.00
C17    C     0.13374   0.59710   0.66197   0.00000  Uiso   1.00
C18    C     0.17245   0.70443   0.45070   0.00000  Uiso   1.00
C19    C     0.09760   0.68126   0.31121   0.00000  Uiso   1.00
C20    C     0.12851   0.59117   0.28756   0.00000  Uiso   1.00
C21    C     0.24867   0.90423   0.60178   0.00000  Uiso   1.00
C22    C     0.23790   0.04905   0.58930   0.00000  Uiso   1.00
C23    C     0.33298   0.12718   0.69282   0.00000  Uiso   1.00
H24    H     0.42306   0.62991   0.79367   0.00000  Uiso   1.00
H25    H     0.38821   0.50401   0.88265   0.00000  Uiso   1.00
H26    H     0.38462   0.49996   0.62578   0.00000  Uiso   1.00
H27    H     0.52490   0.86769   0.90382   0.00000  Uiso   1.00
H28    H     0.30453   0.39285   0.93191   0.00000  Uiso   1.00
H29    H     0.29698   0.38432   0.39030   0.00000  Uiso   1.00
H30    H     0.59278   0.15976   0.97661   0.00000  Uiso   1.00
H31    H     0.07606   0.84913   0.41339   0.00000  Uiso   1.00
H32    H     0.02217   0.73527   0.48151   0.00000  Uiso   1.00
H33    H     0.01859   0.73120   0.22464   0.00000  Uiso   1.00
H34    H     0.15886   0.09893   0.50269   0.00000  Uiso   1.00
H35    H     0.00744   0.58053   0.60633   0.00000  Uiso   1.00
H36    H     0.99989   0.57202   0.06471   0.00000  Uiso   1.00
H37    H     0.29569   0.34745   0.65103   0.00000  Uiso   1.00
O38    O     0.12678   0.40780   0.82076   0.00000  Uiso   1.00
O39    O     0.11688   0.39664   0.11019   0.00000  Uiso   1.00
O40    O     0.50497   0.41398   0.87942   0.00000  Uiso   1.00
N41    N     0.24201   0.45267   0.84596   0.00000  Uiso   1.00
N42    N     0.23494   0.44468   0.33958   0.00000  Uiso   1.00
N43    N     0.51150   0.16965   0.88771   0.00000  Uiso   1.00
N44    N     0.08215   0.55366   0.67076   0.00000  Uiso   1.00
N45    N     0.07508   0.54568   0.16438   0.00000  Uiso   1.00
N46    N     0.35164   0.27064   0.71252   0.00000  Uiso   1.00
C47    C     0.65644   0.18013   0.79345   0.00000  Uiso   1.00
C48    C     0.72349   0.14214   0.79783   0.00000  Uiso   1.00
C49    C     0.69082   0.05393   0.70394   0.00000  Uiso   1.00
C50    C     0.76396   0.03247   0.72593   0.00000  Uiso   1.00
C51    C     0.85256   0.96361   0.71575   0.00000  Uiso   1.00
C52    C     0.72544   0.13992   0.93740   0.00000  Uiso   1.00
C53    C     0.69441   0.04985   0.96084   0.00000  Uiso   1.00
C54    C     0.76920   0.02654   0.10033   0.00000  Uiso   1.00
C55    C     0.86080   0.95432   0.30683   0.00000  Uiso   1.00
C56    C     0.64922   0.33971   0.78632   0.00000  Uiso   1.00
C57    C     0.55411   0.41764   0.68276   0.00000  Uiso   1.00
C58    C     0.56473   0.56255   0.69507   0.00000  Uiso   1.00
C59    C     0.53799   0.80054   0.66699   0.00000  Uiso   1.00
C60    C     0.84443   0.29890   0.99948   0.00000  Uiso   1.00
C61    C     0.82560   0.20665   0.90974   0.00000  Uiso   1.00
C62    C     0.89881   0.18533   0.93188   0.00000  Uiso   1.00
C63    C     0.86626   0.09710   0.83803   0.00000  Uiso   1.00
C64    C     0.82755   0.20443   0.04930   0.00000  Uiso   1.00
C65    C     0.90240   0.18126   0.18879   0.00000  Uiso   1.00
C66    C     0.87149   0.09117   0.21244   0.00000  Uiso   1.00
C67    C     0.75133   0.40423   0.89822   0.00000  Uiso   1.00
C68    C     0.76210   0.54905   0.91070   0.00000  Uiso   1.00
C69    C     0.66702   0.62718   0.80718   0.00000  Uiso   1.00
H70    H     0.57694   0.12991   0.70633   0.00000  Uiso   1.00
H71    H     0.61179   0.00401   0.61735   0.00000  Uiso   1.00
H72    H     0.61538   0.99996   0.87422   0.00000  Uiso   1.00
H73    H     0.47510   0.36769   0.59618   0.00000  Uiso   1.00
H74    H     0.69547   0.89285   0.56809   0.00000  Uiso   1.00
H75    H     0.70302   0.88432   0.10970   0.00000  Uiso   1.00
H76    H     0.40722   0.65976   0.52339   0.00000  Uiso   1.00
H77    H     0.92394   0.34913   0.08661   0.00000  Uiso   1.00
H78    H     0.97783   0.23527   0.01849   0.00000  Uiso   1.00
H79    H     0.98141   0.23120   0.27536   0.00000  Uiso   1.00
H80    H     0.84114   0.59893   0.99731   0.00000  Uiso   1.00
H81    H     0.99256   0.08053   0.89367   0.00000  Uiso   1.00
H82    H     0.00011   0.07202   0.43529   0.00000  Uiso   1.00
H83    H     0.70431   0.84745   0.84897   0.00000  Uiso   1.00
O84    O     0.87322   0.90780   0.67924   0.00000  Uiso   1.00
O85    O     0.88312   0.89664   0.38981   0.00000  Uiso   1.00
O86    O     0.49503   0.91398   0.62058   0.00000  Uiso   1.00
N87    N     0.75799   0.95267   0.65404   0.00000  Uiso   1.00
N88    N     0.76506   0.94468   0.16042   0.00000  Uiso   1.00
N89    N     0.48850   0.66965   0.61229   0.00000  Uiso   1.00
N90    N     0.91785   0.05366   0.82924   0.00000  Uiso   1.00
N91    N     0.92492   0.04568   0.33562   0.00000  Uiso   1.00
N92    N     0.64836   0.77064   0.78748   0.00000  Uiso   1.00
C93    C     0.65644   0.31987   0.29345   0.00000  Uiso   1.00
C94    C     0.72349   0.35786   0.29783   0.00000  Uiso   1.00
C95    C     0.69082   0.44607   0.20394   0.00000  Uiso   1.00
C96    C     0.76396   0.46753   0.22593   0.00000  Uiso   1.00
C97    C     0.85256   0.53639   0.21575   0.00000  Uiso   1.00
C98    C     0.72544   0.36008   0.43740   0.00000  Uiso   1.00
C99    C     0.69441   0.45015   0.46084   0.00000  Uiso   1.00
C100   C     0.76920   0.47346   0.60033   0.00000  Uiso   1.00
C101   C     0.86080   0.54568   0.80683   0.00000  Uiso   1.00
C102   C     0.64922   0.16029   0.28632   0.00000  Uiso   1.00
C103   C     0.55411   0.08236   0.18276   0.00000  Uiso   1.00
C104   C     0.56473   0.93745   0.19507   0.00000  Uiso   1.00
C105   C     0.53799   0.69946   0.16699   0.00000  Uiso   1.00
C106   C     0.84443   0.20110   0.49948   0.00000  Uiso   1.00
C107   C     0.82560   0.29335   0.40974   0.00000  Uiso   1.00
C108   C     0.89881   0.31467   0.43188   0.00000  Uiso   1.00
C109   C     0.86626   0.40290   0.33803   0.00000  Uiso   1.00
C110   C     0.82755   0.29557   0.54930   0.00000  Uiso   1.00
C111   C     0.90240   0.31874   0.68879   0.00000  Uiso   1.00
C112   C     0.87149   0.40883   0.71244   0.00000  Uiso   1.00
C113   C     0.75133   0.09577   0.39822   0.00000  Uiso   1.00
C114   C     0.76210   0.95095   0.41070   0.00000  Uiso   1.00
C115   C     0.66702   0.87282   0.30718   0.00000  Uiso   1.00
H116   H     0.57694   0.37009   0.20633   0.00000  Uiso   1.00
H117   H     0.61179   0.49599   0.11735   0.00000  Uiso   1.00
H118   H     0.61538   0.50004   0.37422   0.00000  Uiso   1.00
H119   H     0.47510   0.13231   0.09618   0.00000  Uiso   1.00
H120   H     0.69547   0.60715   0.06809   0.00000  Uiso   1.00
H121   H     0.70302   0.61568   0.60970   0.00000  Uiso   1.00
H122   H     0.40722   0.84024   0.02339   0.00000  Uiso   1.00
H123   H     0.92394   0.15087   0.58661   0.00000  Uiso   1.00
H124   H     0.97783   0.26473   0.51849   0.00000  Uiso   1.00
H125   H     0.98141   0.26880   0.77536   0.00000  Uiso   1.00
H126   H     0.84114   0.90107   0.49731   0.00000  Uiso   1.00
H127   H     0.99256   0.41947   0.39367   0.00000  Uiso   1.00
H128   H     0.00011   0.42798   0.93529   0.00000  Uiso   1.00
H129   H     0.70431   0.65255   0.34897   0.00000  Uiso   1.00
O130   O     0.87322   0.59220   0.17924   0.00000  Uiso   1.00
O131   O     0.88312   0.60336   0.88981   0.00000  Uiso   1.00
O132   O     0.49503   0.58602   0.12058   0.00000  Uiso   1.00
N133   N     0.75799   0.54733   0.15404   0.00000  Uiso   1.00
N134   N     0.76506   0.55532   0.66042   0.00000  Uiso   1.00
N135   N     0.48850   0.83035   0.11229   0.00000  Uiso   1.00
N136   N     0.91785   0.44634   0.32924   0.00000  Uiso   1.00
N137   N     0.92492   0.45432   0.83562   0.00000  Uiso   1.00
N138   N     0.64836   0.72936   0.28748   0.00000  Uiso   1.00
C139   C     0.34356   0.81987   0.20655   0.00000  Uiso   1.00
C140   C     0.27651   0.85786   0.20217   0.00000  Uiso   1.00
C141   C     0.30918   0.94607   0.29606   0.00000  Uiso   1.00
C142   C     0.23604   0.96753   0.27407   0.00000  Uiso   1.00
C143   C     0.14744   0.03639   0.28425   0.00000  Uiso   1.00
C144   C     0.27456   0.86008   0.06260   0.00000  Uiso   1.00
C145   C     0.30559   0.95015   0.03916   0.00000  Uiso   1.00
C146   C     0.23080   0.97346   0.89967   0.00000  Uiso   1.00
C147   C     0.13920   0.04568   0.69317   0.00000  Uiso   1.00
C148   C     0.35078   0.66029   0.21368   0.00000  Uiso   1.00
C149   C     0.44589   0.58236   0.31724   0.00000  Uiso   1.00
C150   C     0.43527   0.43745   0.30493   0.00000  Uiso   1.00
C151   C     0.46201   0.19946   0.33301   0.00000  Uiso   1.00
C152   C     0.15557   0.70110   0.00052   0.00000  Uiso   1.00
C153   C     0.17440   0.79335   0.09026   0.00000  Uiso   1.00
C154   C     0.10119   0.81467   0.06812   0.00000  Uiso   1.00
C155   C     0.13374   0.90290   0.16197   0.00000  Uiso   1.00
C156   C     0.17245   0.79557   0.95070   0.00000  Uiso   1.00
C157   C     0.09760   0.81874   0.81121   0.00000  Uiso   1.00
C158   C     0.12851   0.90883   0.78756   0.00000  Uiso   1.00
C159   C     0.24867   0.59577   0.10178   0.00000  Uiso   1.00
C160   C     0.23790   0.45095   0.08930   0.00000  Uiso   1.00
C161   C     0.33298   0.37282   0.19282   0.00000  Uiso   1.00
H162   H     0.42306   0.87009   0.29367   0.00000  Uiso   1.00
H163   H     0.38821   0.99599   0.38265   0.00000  Uiso   1.00
H164   H     0.38462   0.00004   0.12578   0.00000  Uiso   1.00
H165   H     0.52490   0.63231   0.40382   0.00000  Uiso   1.00
H166   H     0.30453   0.10715   0.43191   0.00000  Uiso   1.00
H167   H     0.29698   0.11568   0.89030   0.00000  Uiso   1.00
H168   H     0.59278   0.34024   0.47661   0.00000  Uiso   1.00
H169   H     0.07606   0.65087   0.91339   0.00000  Uiso   1.00
H170   H     0.02217   0.76473   0.98151   0.00000  Uiso   1.00
H171   H     0.01859   0.76880   0.72464   0.00000  Uiso   1.00
H172   H     0.15886   0.40107   0.00269   0.00000  Uiso   1.00
H173   H     0.00744   0.91947   0.10633   0.00000  Uiso   1.00
H174   H     0.99989   0.92798   0.56471   0.00000  Uiso   1.00
H175   H     0.29569   0.15255   0.15103   0.00000  Uiso   1.00
O176   O     0.12678   0.09220   0.32076   0.00000  Uiso   1.00
O177   O     0.11688   0.10336   0.61019   0.00000  Uiso   1.00
O178   O     0.50497   0.08602   0.37942   0.00000  Uiso   1.00
N179   N     0.24201   0.04733   0.34596   0.00000  Uiso   1.00
N180   N     0.23494   0.05532   0.83958   0.00000  Uiso   1.00
N181   N     0.51150   0.33035   0.38771   0.00000  Uiso   1.00
N182   N     0.08215   0.94634   0.17076   0.00000  Uiso   1.00
N183   N     0.07508   0.95432   0.66438   0.00000  Uiso   1.00
N184   N     0.35164   0.22936   0.21252   0.00000  Uiso   1.00
