data_job_00921
_audit_creation_date              2018-12-19
_audit_creation_method            'Materials Studio'
_symmetry_space_group_name_H-M    'P1'
_symmetry_Int_Tables_number       1
_symmetry_cell_setting            triclinic
loop_
_symmetry_equiv_pos_as_xyz
  x,y,z
_cell_length_a                    10.8187
_cell_length_b                    13.7742
_cell_length_c                    33.7491
_cell_angle_alpha                 90.0000
_cell_angle_beta                  90.0000
_cell_angle_gamma                 90.0000
loop_
_atom_site_label
_atom_site_type_symbol
_atom_site_fract_x
_atom_site_fract_y
_atom_site_fract_z
_atom_site_U_iso_or_equiv
_atom_site_adp_type
_atom_site_occupancy
C1     C     0.14590   0.15491   0.85001   0.00000  Uiso   1.00
C2     C     0.24724   0.16758   0.88098   0.00000  Uiso   1.00
C3     C     0.28412   0.09816   0.90834   0.00000  Uiso   1.00
C4     C     0.37847   0.12384   0.93418   0.00000  Uiso   1.00
C5     C     0.52735   0.12955   0.98252   0.00000  Uiso   1.00
C6     C     0.05411   0.23713   0.85706   0.00000  Uiso   1.00
C7     C     0.92860   0.22619   0.86430   0.00000  Uiso   1.00
C8     C     0.86038   0.31042   0.87000   0.00000  Uiso   1.00
C9     C     0.70940   0.42411   0.88117   0.00000  Uiso   1.00
C10    C     0.20625   0.17588   0.81008   0.00000  Uiso   1.00
C11    C     0.20864   0.11345   0.77781   0.00000  Uiso   1.00
C12    C     0.26849   0.14612   0.74395   0.00000  Uiso   1.00
C13    C     0.35373   0.16472   0.68218   0.00000  Uiso   1.00
C14    C     0.24790   0.32395   0.84724   0.00000  Uiso   1.00
C15    C     0.30264   0.25939   0.87948   0.00000  Uiso   1.00
C16    C     0.39697   0.28518   0.90529   0.00000  Uiso   1.00
C17    C     0.43398   0.21581   0.93268   0.00000  Uiso   1.00
C18    C     0.10950   0.32894   0.85556   0.00000  Uiso   1.00
C19    C     0.04145   0.41321   0.86125   0.00000  Uiso   1.00
C20    C     0.91588   0.40240   0.86849   0.00000  Uiso   1.00
C21    C     0.26166   0.26769   0.80858   0.00000  Uiso   1.00
C22    C     0.32150   0.30047   0.77476   0.00000  Uiso   1.00
C23    C     0.32399   0.23811   0.74245   0.00000  Uiso   1.00
H24    H     0.10276   0.08344   0.85117   0.00000  Uiso   1.00
H25    H     0.24121   0.02712   0.90950   0.00000  Uiso   1.00
H26    H     0.88575   0.15513   0.86546   0.00000  Uiso   1.00
H27    H     0.16576   0.04241   0.77898   0.00000  Uiso   1.00
H28    H     0.41911   0.00518   0.97351   0.00000  Uiso   1.00
H29    H     0.66959   0.27510   0.88063   0.00000  Uiso   1.00
H30    H     0.26003   0.03741   0.69829   0.00000  Uiso   1.00
H31    H     0.29103   0.39544   0.84607   0.00000  Uiso   1.00
H32    H     0.43982   0.35624   0.90412   0.00000  Uiso   1.00
H33    H     0.08436   0.48425   0.86008   0.00000  Uiso   1.00
H34    H     0.36436   0.37153   0.77361   0.00000  Uiso   1.00
H35    H     0.58030   0.27231   0.96914   0.00000  Uiso   1.00
H36    H     0.83078   0.54222   0.87627   0.00000  Uiso   1.00
H37    H     0.42123   0.30453   0.69392   0.00000  Uiso   1.00
O38    O     0.59416   0.10734   0.00961   0.00000  Uiso   1.00
O39    O     0.61082   0.46146   0.88775   0.00000  Uiso   1.00
O40    O     0.38547   0.14961   0.64852   0.00000  Uiso   1.00
N41    N     0.43664   0.07342   0.96451   0.00000  Uiso   1.00
N42    N     0.73589   0.32578   0.87768   0.00000  Uiso   1.00
N43    N     0.28788   0.10357   0.70720   0.00000  Uiso   1.00
N44    N     0.52338   0.21716   0.96216   0.00000  Uiso   1.00
N45    N     0.82263   0.46952   0.87534   0.00000  Uiso   1.00
N46    N     0.37462   0.24730   0.70485   0.00000  Uiso   1.00
C47    C     0.35410   0.34509   0.35001   0.00000  Uiso   1.00
C48    C     0.25276   0.33242   0.38098   0.00000  Uiso   1.00
C49    C     0.21588   0.40184   0.40834   0.00000  Uiso   1.00
C50    C     0.12153   0.37616   0.43418   0.00000  Uiso   1.00
C51    C     0.97265   0.37045   0.48252   0.00000  Uiso   1.00
C52    C     0.44589   0.26287   0.35706   0.00000  Uiso   1.00
C53    C     0.57140   0.27381   0.36430   0.00000  Uiso   1.00
C54    C     0.63962   0.18958   0.37000   0.00000  Uiso   1.00
C55    C     0.79060   0.07589   0.38117   0.00000  Uiso   1.00
C56    C     0.29375   0.32412   0.31008   0.00000  Uiso   1.00
C57    C     0.29136   0.38655   0.27781   0.00000  Uiso   1.00
C58    C     0.23151   0.35388   0.24395   0.00000  Uiso   1.00
C59    C     0.14627   0.33528   0.18218   0.00000  Uiso   1.00
C60    C     0.25210   0.17605   0.34724   0.00000  Uiso   1.00
C61    C     0.19736   0.24061   0.37948   0.00000  Uiso   1.00
C62    C     0.10303   0.21482   0.40529   0.00000  Uiso   1.00
C63    C     0.06602   0.28419   0.43268   0.00000  Uiso   1.00
C64    C     0.39050   0.17106   0.35556   0.00000  Uiso   1.00
C65    C     0.45855   0.08679   0.36125   0.00000  Uiso   1.00
C66    C     0.58412   0.09760   0.36849   0.00000  Uiso   1.00
C67    C     0.23834   0.23231   0.30858   0.00000  Uiso   1.00
C68    C     0.17850   0.19953   0.27476   0.00000  Uiso   1.00
C69    C     0.17601   0.26189   0.24245   0.00000  Uiso   1.00
H70    H     0.39724   0.41656   0.35117   0.00000  Uiso   1.00
H71    H     0.25879   0.47288   0.40950   0.00000  Uiso   1.00
H72    H     0.61425   0.34487   0.36546   0.00000  Uiso   1.00
H73    H     0.33424   0.45759   0.27898   0.00000  Uiso   1.00
H74    H     0.08089   0.49482   0.47351   0.00000  Uiso   1.00
H75    H     0.83041   0.22490   0.38063   0.00000  Uiso   1.00
H76    H     0.23997   0.46259   0.19829   0.00000  Uiso   1.00
H77    H     0.20897   0.10456   0.34607   0.00000  Uiso   1.00
H78    H     0.06018   0.14376   0.40412   0.00000  Uiso   1.00
H79    H     0.41564   0.01575   0.36008   0.00000  Uiso   1.00
H80    H     0.13564   0.12847   0.27361   0.00000  Uiso   1.00
H81    H     0.91970   0.22769   0.46914   0.00000  Uiso   1.00
H82    H     0.66922   0.95778   0.37627   0.00000  Uiso   1.00
H83    H     0.07877   0.19547   0.19392   0.00000  Uiso   1.00
O84    O     0.90584   0.39266   0.50961   0.00000  Uiso   1.00
O85    O     0.88918   0.03854   0.38775   0.00000  Uiso   1.00
O86    O     0.11453   0.35039   0.14852   0.00000  Uiso   1.00
N87    N     0.06336   0.42658   0.46451   0.00000  Uiso   1.00
N88    N     0.76411   0.17422   0.37768   0.00000  Uiso   1.00
N89    N     0.21212   0.39643   0.20720   0.00000  Uiso   1.00
N90    N     0.97662   0.28284   0.46216   0.00000  Uiso   1.00
N91    N     0.67737   0.03048   0.37534   0.00000  Uiso   1.00
N92    N     0.12538   0.25270   0.20485   0.00000  Uiso   1.00
C93    C     0.85410   0.15491   0.64999   0.00000  Uiso   1.00
C94    C     0.75276   0.16758   0.61902   0.00000  Uiso   1.00
C95    C     0.71588   0.09816   0.59166   0.00000  Uiso   1.00
C96    C     0.62153   0.12384   0.56582   0.00000  Uiso   1.00
C97    C     0.47265   0.12955   0.51748   0.00000  Uiso   1.00
C98    C     0.94589   0.23713   0.64294   0.00000  Uiso   1.00
C99    C     0.07140   0.22619   0.63570   0.00000  Uiso   1.00
C100   C     0.13962   0.31042   0.63000   0.00000  Uiso   1.00
C101   C     0.29060   0.42411   0.61883   0.00000  Uiso   1.00
C102   C     0.79375   0.17588   0.68992   0.00000  Uiso   1.00
C103   C     0.79136   0.11345   0.72219   0.00000  Uiso   1.00
C104   C     0.73151   0.14612   0.75605   0.00000  Uiso   1.00
C105   C     0.64627   0.16472   0.81782   0.00000  Uiso   1.00
C106   C     0.75210   0.32395   0.65276   0.00000  Uiso   1.00
C107   C     0.69736   0.25939   0.62052   0.00000  Uiso   1.00
C108   C     0.60303   0.28518   0.59471   0.00000  Uiso   1.00
C109   C     0.56602   0.21581   0.56732   0.00000  Uiso   1.00
C110   C     0.89050   0.32894   0.64444   0.00000  Uiso   1.00
C111   C     0.95855   0.41321   0.63875   0.00000  Uiso   1.00
C112   C     0.08412   0.40240   0.63151   0.00000  Uiso   1.00
C113   C     0.73834   0.26769   0.69142   0.00000  Uiso   1.00
C114   C     0.67850   0.30047   0.72524   0.00000  Uiso   1.00
C115   C     0.67601   0.23811   0.75755   0.00000  Uiso   1.00
H116   H     0.89724   0.08344   0.64883   0.00000  Uiso   1.00
H117   H     0.75879   0.02712   0.59050   0.00000  Uiso   1.00
H118   H     0.11425   0.15513   0.63454   0.00000  Uiso   1.00
H119   H     0.83424   0.04241   0.72102   0.00000  Uiso   1.00
H120   H     0.58089   0.00518   0.52649   0.00000  Uiso   1.00
H121   H     0.33041   0.27510   0.61937   0.00000  Uiso   1.00
H122   H     0.73997   0.03741   0.80171   0.00000  Uiso   1.00
H123   H     0.70897   0.39544   0.65393   0.00000  Uiso   1.00
H124   H     0.56018   0.35624   0.59588   0.00000  Uiso   1.00
H125   H     0.91564   0.48425   0.63992   0.00000  Uiso   1.00
H126   H     0.63564   0.37153   0.72639   0.00000  Uiso   1.00
H127   H     0.41970   0.27231   0.53086   0.00000  Uiso   1.00
H128   H     0.16922   0.54222   0.62373   0.00000  Uiso   1.00
H129   H     0.57877   0.30453   0.80608   0.00000  Uiso   1.00
O130   O     0.40584   0.10734   0.49039   0.00000  Uiso   1.00
O131   O     0.38918   0.46146   0.61225   0.00000  Uiso   1.00
O132   O     0.61453   0.14961   0.85148   0.00000  Uiso   1.00
N133   N     0.56336   0.07342   0.53549   0.00000  Uiso   1.00
N134   N     0.26411   0.32578   0.62232   0.00000  Uiso   1.00
N135   N     0.71212   0.10357   0.79280   0.00000  Uiso   1.00
N136   N     0.47662   0.21716   0.53784   0.00000  Uiso   1.00
N137   N     0.17737   0.46952   0.62466   0.00000  Uiso   1.00
N138   N     0.62538   0.24730   0.79515   0.00000  Uiso   1.00
C139   C     0.64590   0.34509   0.14999   0.00000  Uiso   1.00
C140   C     0.74724   0.33242   0.11902   0.00000  Uiso   1.00
C141   C     0.78412   0.40184   0.09166   0.00000  Uiso   1.00
C142   C     0.87847   0.37616   0.06582   0.00000  Uiso   1.00
C143   C     0.02735   0.37045   0.01748   0.00000  Uiso   1.00
C144   C     0.55411   0.26287   0.14294   0.00000  Uiso   1.00
C145   C     0.42860   0.27381   0.13570   0.00000  Uiso   1.00
C146   C     0.36038   0.18958   0.13000   0.00000  Uiso   1.00
C147   C     0.20940   0.07589   0.11883   0.00000  Uiso   1.00
C148   C     0.70625   0.32412   0.18992   0.00000  Uiso   1.00
C149   C     0.70864   0.38655   0.22219   0.00000  Uiso   1.00
C150   C     0.76849   0.35388   0.25605   0.00000  Uiso   1.00
C151   C     0.85373   0.33528   0.31782   0.00000  Uiso   1.00
C152   C     0.74790   0.17605   0.15276   0.00000  Uiso   1.00
C153   C     0.80264   0.24061   0.12052   0.00000  Uiso   1.00
C154   C     0.89697   0.21482   0.09471   0.00000  Uiso   1.00
C155   C     0.93398   0.28419   0.06732   0.00000  Uiso   1.00
C156   C     0.60950   0.17106   0.14444   0.00000  Uiso   1.00
C157   C     0.54145   0.08679   0.13875   0.00000  Uiso   1.00
C158   C     0.41588   0.09760   0.13151   0.00000  Uiso   1.00
C159   C     0.76166   0.23231   0.19142   0.00000  Uiso   1.00
C160   C     0.82150   0.19953   0.22524   0.00000  Uiso   1.00
C161   C     0.82399   0.26189   0.25755   0.00000  Uiso   1.00
H162   H     0.60276   0.41656   0.14883   0.00000  Uiso   1.00
H163   H     0.74121   0.47288   0.09050   0.00000  Uiso   1.00
H164   H     0.38575   0.34487   0.13454   0.00000  Uiso   1.00
H165   H     0.66576   0.45759   0.22102   0.00000  Uiso   1.00
H166   H     0.91911   0.49482   0.02649   0.00000  Uiso   1.00
H167   H     0.16959   0.22490   0.11937   0.00000  Uiso   1.00
H168   H     0.76003   0.46259   0.30171   0.00000  Uiso   1.00
H169   H     0.79103   0.10456   0.15393   0.00000  Uiso   1.00
H170   H     0.93982   0.14376   0.09588   0.00000  Uiso   1.00
H171   H     0.58436   0.01575   0.13992   0.00000  Uiso   1.00
H172   H     0.86436   0.12847   0.22639   0.00000  Uiso   1.00
H173   H     0.08030   0.22769   0.03086   0.00000  Uiso   1.00
H174   H     0.33078   0.95778   0.12373   0.00000  Uiso   1.00
H175   H     0.92123   0.19547   0.30608   0.00000  Uiso   1.00
O176   O     0.09416   0.39266   0.99039   0.00000  Uiso   1.00
O177   O     0.11082   0.03854   0.11225   0.00000  Uiso   1.00
O178   O     0.88547   0.35039   0.35148   0.00000  Uiso   1.00
N179   N     0.93664   0.42658   0.03549   0.00000  Uiso   1.00
N180   N     0.23589   0.17422   0.12232   0.00000  Uiso   1.00
N181   N     0.78788   0.39643   0.29280   0.00000  Uiso   1.00
N182   N     0.02338   0.28284   0.03784   0.00000  Uiso   1.00
N183   N     0.32263   0.03048   0.12466   0.00000  Uiso   1.00
N184   N     0.87462   0.25270   0.29515   0.00000  Uiso   1.00
C185   C     0.85410   0.84509   0.14999   0.00000  Uiso   1.00
C186   C     0.75276   0.83242   0.11902   0.00000  Uiso   1.00
C187   C     0.71588   0.90184   0.09166   0.00000  Uiso   1.00
C188   C     0.62153   0.87616   0.06582   0.00000  Uiso   1.00
C189   C     0.47265   0.87045   0.01748   0.00000  Uiso   1.00
C190   C     0.94589   0.76287   0.14294   0.00000  Uiso   1.00
C191   C     0.07140   0.77381   0.13570   0.00000  Uiso   1.00
C192   C     0.13962   0.68958   0.13000   0.00000  Uiso   1.00
C193   C     0.29060   0.57589   0.11883   0.00000  Uiso   1.00
C194   C     0.79375   0.82412   0.18992   0.00000  Uiso   1.00
C195   C     0.79136   0.88655   0.22219   0.00000  Uiso   1.00
C196   C     0.73151   0.85388   0.25605   0.00000  Uiso   1.00
C197   C     0.64627   0.83528   0.31782   0.00000  Uiso   1.00
C198   C     0.75210   0.67605   0.15276   0.00000  Uiso   1.00
C199   C     0.69736   0.74061   0.12052   0.00000  Uiso   1.00
C200   C     0.60303   0.71482   0.09471   0.00000  Uiso   1.00
C201   C     0.56602   0.78419   0.06732   0.00000  Uiso   1.00
C202   C     0.89050   0.67106   0.14444   0.00000  Uiso   1.00
C203   C     0.95855   0.58679   0.13875   0.00000  Uiso   1.00
C204   C     0.08412   0.59760   0.13151   0.00000  Uiso   1.00
C205   C     0.73834   0.73231   0.19142   0.00000  Uiso   1.00
C206   C     0.67850   0.69953   0.22524   0.00000  Uiso   1.00
C207   C     0.67601   0.76189   0.25755   0.00000  Uiso   1.00
H208   H     0.89724   0.91656   0.14883   0.00000  Uiso   1.00
H209   H     0.75879   0.97288   0.09050   0.00000  Uiso   1.00
H210   H     0.11425   0.84487   0.13454   0.00000  Uiso   1.00
H211   H     0.83424   0.95759   0.22102   0.00000  Uiso   1.00
H212   H     0.58089   0.99482   0.02649   0.00000  Uiso   1.00
H213   H     0.33041   0.72490   0.11937   0.00000  Uiso   1.00
H214   H     0.73997   0.96259   0.30171   0.00000  Uiso   1.00
H215   H     0.70897   0.60456   0.15393   0.00000  Uiso   1.00
H216   H     0.56018   0.64376   0.09588   0.00000  Uiso   1.00
H217   H     0.91564   0.51575   0.13992   0.00000  Uiso   1.00
H218   H     0.63564   0.62847   0.22639   0.00000  Uiso   1.00
H219   H     0.41970   0.72769   0.03086   0.00000  Uiso   1.00
H220   H     0.16922   0.45778   0.12373   0.00000  Uiso   1.00
H221   H     0.57877   0.69547   0.30608   0.00000  Uiso   1.00
O222   O     0.40584   0.89266   0.99039   0.00000  Uiso   1.00
O223   O     0.38918   0.53854   0.11225   0.00000  Uiso   1.00
O224   O     0.61453   0.85039   0.35148   0.00000  Uiso   1.00
N225   N     0.56336   0.92658   0.03549   0.00000  Uiso   1.00
N226   N     0.26411   0.67422   0.12232   0.00000  Uiso   1.00
N227   N     0.71212   0.89643   0.29280   0.00000  Uiso   1.00
N228   N     0.47662   0.78284   0.03784   0.00000  Uiso   1.00
N229   N     0.17737   0.53048   0.12466   0.00000  Uiso   1.00
N230   N     0.62538   0.75270   0.29515   0.00000  Uiso   1.00
C231   C     0.64590   0.65491   0.64999   0.00000  Uiso   1.00
C232   C     0.74724   0.66758   0.61902   0.00000  Uiso   1.00
C233   C     0.78412   0.59816   0.59166   0.00000  Uiso   1.00
C234   C     0.87847   0.62384   0.56582   0.00000  Uiso   1.00
C235   C     0.02735   0.62955   0.51748   0.00000  Uiso   1.00
C236   C     0.55411   0.73713   0.64294   0.00000  Uiso   1.00
C237   C     0.42860   0.72619   0.63570   0.00000  Uiso   1.00
C238   C     0.36038   0.81042   0.63000   0.00000  Uiso   1.00
C239   C     0.20940   0.92411   0.61883   0.00000  Uiso   1.00
C240   C     0.70625   0.67588   0.68992   0.00000  Uiso   1.00
C241   C     0.70864   0.61345   0.72219   0.00000  Uiso   1.00
C242   C     0.76849   0.64612   0.75605   0.00000  Uiso   1.00
C243   C     0.85373   0.66472   0.81782   0.00000  Uiso   1.00
C244   C     0.74790   0.82395   0.65276   0.00000  Uiso   1.00
C245   C     0.80264   0.75939   0.62052   0.00000  Uiso   1.00
C246   C     0.89697   0.78518   0.59471   0.00000  Uiso   1.00
C247   C     0.93398   0.71581   0.56732   0.00000  Uiso   1.00
C248   C     0.60950   0.82894   0.64444   0.00000  Uiso   1.00
C249   C     0.54145   0.91321   0.63875   0.00000  Uiso   1.00
C250   C     0.41588   0.90240   0.63151   0.00000  Uiso   1.00
C251   C     0.76166   0.76769   0.69142   0.00000  Uiso   1.00
C252   C     0.82150   0.80047   0.72524   0.00000  Uiso   1.00
C253   C     0.82399   0.73811   0.75755   0.00000  Uiso   1.00
H254   H     0.60276   0.58344   0.64883   0.00000  Uiso   1.00
H255   H     0.74121   0.52712   0.59050   0.00000  Uiso   1.00
H256   H     0.38575   0.65513   0.63454   0.00000  Uiso   1.00
H257   H     0.66576   0.54241   0.72102   0.00000  Uiso   1.00
H258   H     0.91911   0.50518   0.52649   0.00000  Uiso   1.00
H259   H     0.16959   0.77510   0.61937   0.00000  Uiso   1.00
H260   H     0.76003   0.53741   0.80171   0.00000  Uiso   1.00
H261   H     0.79103   0.89544   0.65393   0.00000  Uiso   1.00
H262   H     0.93982   0.85624   0.59588   0.00000  Uiso   1.00
H263   H     0.58436   0.98425   0.63992   0.00000  Uiso   1.00
H264   H     0.86436   0.87153   0.72639   0.00000  Uiso   1.00
H265   H     0.08030   0.77231   0.53086   0.00000  Uiso   1.00
H266   H     0.33078   0.04222   0.62373   0.00000  Uiso   1.00
H267   H     0.92123   0.80453   0.80608   0.00000  Uiso   1.00
O268   O     0.09416   0.60734   0.49039   0.00000  Uiso   1.00
O269   O     0.11082   0.96146   0.61225   0.00000  Uiso   1.00
O270   O     0.88547   0.64961   0.85148   0.00000  Uiso   1.00
N271   N     0.93664   0.57342   0.53549   0.00000  Uiso   1.00
N272   N     0.23589   0.82578   0.62232   0.00000  Uiso   1.00
N273   N     0.78788   0.60357   0.79280   0.00000  Uiso   1.00
N274   N     0.02338   0.71716   0.53784   0.00000  Uiso   1.00
N275   N     0.32263   0.96952   0.62466   0.00000  Uiso   1.00
N276   N     0.87462   0.74730   0.79515   0.00000  Uiso   1.00
C277   C     0.14590   0.84509   0.35001   0.00000  Uiso   1.00
C278   C     0.24724   0.83242   0.38098   0.00000  Uiso   1.00
C279   C     0.28412   0.90184   0.40834   0.00000  Uiso   1.00
C280   C     0.37847   0.87616   0.43418   0.00000  Uiso   1.00
C281   C     0.52735   0.87045   0.48252   0.00000  Uiso   1.00
C282   C     0.05411   0.76287   0.35706   0.00000  Uiso   1.00
C283   C     0.92860   0.77381   0.36430   0.00000  Uiso   1.00
C284   C     0.86038   0.68958   0.37000   0.00000  Uiso   1.00
C285   C     0.70940   0.57589   0.38117   0.00000  Uiso   1.00
C286   C     0.20625   0.82412   0.31008   0.00000  Uiso   1.00
C287   C     0.20864   0.88655   0.27781   0.00000  Uiso   1.00
C288   C     0.26849   0.85388   0.24395   0.00000  Uiso   1.00
C289   C     0.35373   0.83528   0.18218   0.00000  Uiso   1.00
C290   C     0.24790   0.67605   0.34724   0.00000  Uiso   1.00
C291   C     0.30264   0.74061   0.37948   0.00000  Uiso   1.00
C292   C     0.39697   0.71482   0.40529   0.00000  Uiso   1.00
C293   C     0.43398   0.78419   0.43268   0.00000  Uiso   1.00
C294   C     0.10950   0.67106   0.35556   0.00000  Uiso   1.00
C295   C     0.04145   0.58679   0.36125   0.00000  Uiso   1.00
C296   C     0.91588   0.59760   0.36849   0.00000  Uiso   1.00
C297   C     0.26166   0.73231   0.30858   0.00000  Uiso   1.00
C298   C     0.32150   0.69953   0.27476   0.00000  Uiso   1.00
C299   C     0.32399   0.76189   0.24245   0.00000  Uiso   1.00
H300   H     0.10276   0.91656   0.35117   0.00000  Uiso   1.00
H301   H     0.24121   0.97288   0.40950   0.00000  Uiso   1.00
H302   H     0.88575   0.84487   0.36546   0.00000  Uiso   1.00
H303   H     0.16576   0.95759   0.27898   0.00000  Uiso   1.00
H304   H     0.41911   0.99482   0.47351   0.00000  Uiso   1.00
H305   H     0.66959   0.72490   0.38063   0.00000  Uiso   1.00
H306   H     0.26003   0.96259   0.19829   0.00000  Uiso   1.00
H307   H     0.29103   0.60456   0.34607   0.00000  Uiso   1.00
H308   H     0.43982   0.64376   0.40412   0.00000  Uiso   1.00
H309   H     0.08436   0.51575   0.36008   0.00000  Uiso   1.00
H310   H     0.36436   0.62847   0.27361   0.00000  Uiso   1.00
H311   H     0.58030   0.72769   0.46914   0.00000  Uiso   1.00
H312   H     0.83078   0.45778   0.37627   0.00000  Uiso   1.00
H313   H     0.42123   0.69547   0.19392   0.00000  Uiso   1.00
O314   O     0.59416   0.89266   0.50961   0.00000  Uiso   1.00
O315   O     0.61082   0.53854   0.38775   0.00000  Uiso   1.00
O316   O     0.38547   0.85039   0.14852   0.00000  Uiso   1.00
N317   N     0.43664   0.92658   0.46451   0.00000  Uiso   1.00
N318   N     0.73589   0.67422   0.37768   0.00000  Uiso   1.00
N319   N     0.28788   0.89643   0.20720   0.00000  Uiso   1.00
N320   N     0.52338   0.78284   0.46216   0.00000  Uiso   1.00
N321   N     0.82263   0.53048   0.37534   0.00000  Uiso   1.00
N322   N     0.37462   0.75270   0.20485   0.00000  Uiso   1.00
C323   C     0.35410   0.65491   0.85001   0.00000  Uiso   1.00
C324   C     0.25276   0.66758   0.88098   0.00000  Uiso   1.00
C325   C     0.21588   0.59816   0.90834   0.00000  Uiso   1.00
C326   C     0.12153   0.62384   0.93418   0.00000  Uiso   1.00
C327   C     0.97265   0.62955   0.98252   0.00000  Uiso   1.00
C328   C     0.44589   0.73713   0.85706   0.00000  Uiso   1.00
C329   C     0.57140   0.72619   0.86430   0.00000  Uiso   1.00
C330   C     0.63962   0.81042   0.87000   0.00000  Uiso   1.00
C331   C     0.79060   0.92411   0.88117   0.00000  Uiso   1.00
C332   C     0.29375   0.67588   0.81008   0.00000  Uiso   1.00
C333   C     0.29136   0.61345   0.77781   0.00000  Uiso   1.00
C334   C     0.23151   0.64612   0.74395   0.00000  Uiso   1.00
C335   C     0.14627   0.66472   0.68218   0.00000  Uiso   1.00
C336   C     0.25210   0.82395   0.84724   0.00000  Uiso   1.00
C337   C     0.19736   0.75939   0.87948   0.00000  Uiso   1.00
C338   C     0.10303   0.78518   0.90529   0.00000  Uiso   1.00
C339   C     0.06602   0.71581   0.93268   0.00000  Uiso   1.00
C340   C     0.39050   0.82894   0.85556   0.00000  Uiso   1.00
C341   C     0.45855   0.91321   0.86125   0.00000  Uiso   1.00
C342   C     0.58412   0.90240   0.86849   0.00000  Uiso   1.00
C343   C     0.23834   0.76769   0.80858   0.00000  Uiso   1.00
C344   C     0.17850   0.80047   0.77476   0.00000  Uiso   1.00
C345   C     0.17601   0.73811   0.74245   0.00000  Uiso   1.00
H346   H     0.39724   0.58344   0.85117   0.00000  Uiso   1.00
H347   H     0.25879   0.52712   0.90950   0.00000  Uiso   1.00
H348   H     0.61425   0.65513   0.86546   0.00000  Uiso   1.00
H349   H     0.33424   0.54241   0.77898   0.00000  Uiso   1.00
H350   H     0.08089   0.50518   0.97351   0.00000  Uiso   1.00
H351   H     0.83041   0.77510   0.88063   0.00000  Uiso   1.00
H352   H     0.23997   0.53741   0.69829   0.00000  Uiso   1.00
H353   H     0.20897   0.89544   0.84607   0.00000  Uiso   1.00
H354   H     0.06018   0.85624   0.90412   0.00000  Uiso   1.00
H355   H     0.41564   0.98425   0.86008   0.00000  Uiso   1.00
H356   H     0.13564   0.87153   0.77361   0.00000  Uiso   1.00
H357   H     0.91970   0.77231   0.96914   0.00000  Uiso   1.00
H358   H     0.66922   0.04222   0.87627   0.00000  Uiso   1.00
H359   H     0.07877   0.80453   0.69392   0.00000  Uiso   1.00
O360   O     0.90584   0.60734   0.00961   0.00000  Uiso   1.00
O361   O     0.88918   0.96146   0.88775   0.00000  Uiso   1.00
O362   O     0.11453   0.64961   0.64852   0.00000  Uiso   1.00
N363   N     0.06336   0.57342   0.96451   0.00000  Uiso   1.00
N364   N     0.76411   0.82578   0.87768   0.00000  Uiso   1.00
N365   N     0.21212   0.60357   0.70720   0.00000  Uiso   1.00
N366   N     0.97662   0.71716   0.96216   0.00000  Uiso   1.00
N367   N     0.67737   0.96952   0.87534   0.00000  Uiso   1.00
N368   N     0.12538   0.74730   0.70485   0.00000  Uiso   1.00
