data_job_03102
_audit_creation_date              2018-12-19
_audit_creation_method            'Materials Studio'
_symmetry_space_group_name_H-M    'P1'
_symmetry_Int_Tables_number       1
_symmetry_cell_setting            triclinic
loop_
_symmetry_equiv_pos_as_xyz
  x,y,z
_cell_length_a                    10.7171
_cell_length_b                    22.7759
_cell_length_c                    19.6151
_cell_angle_alpha                 90.0000
_cell_angle_beta                  90.0000
_cell_angle_gamma                 90.0000
loop_
_atom_site_label
_atom_site_type_symbol
_atom_site_fract_x
_atom_site_fract_y
_atom_site_fract_z
_atom_site_U_iso_or_equiv
_atom_site_adp_type
_atom_site_occupancy
C1     C     0.57898   0.37384   0.67391   0.00000  Uiso   1.00
C2     C     0.54539   0.43558   0.65010   0.00000  Uiso   1.00
C3     C     0.60172   0.46572   0.59687   0.00000  Uiso   1.00
C4     C     0.55761   0.52179   0.58305   0.00000  Uiso   1.00
C5     C     0.52025   0.61388   0.54029   0.00000  Uiso   1.00
C6     C     0.61056   0.37920   0.74946   0.00000  Uiso   1.00
C7     C     0.72167   0.36193   0.77977   0.00000  Uiso   1.00
C8     C     0.73240   0.37053   0.84960   0.00000  Uiso   1.00
C9     C     0.79618   0.37505   0.96112   0.00000  Uiso   1.00
C10    C     0.45867   0.33824   0.67024   0.00000  Uiso   1.00
C11    C     0.44207   0.28651   0.63396   0.00000  Uiso   1.00
C12    C     0.32493   0.26061   0.63711   0.00000  Uiso   1.00
C13    C     0.15287   0.20152   0.62562   0.00000  Uiso   1.00
C14    C     0.40048   0.41981   0.74403   0.00000  Uiso   1.00
C15    C     0.44844   0.46055   0.68819   0.00000  Uiso   1.00
C16    C     0.40423   0.51659   0.67444   0.00000  Uiso   1.00
C17    C     0.46047   0.54681   0.62120   0.00000  Uiso   1.00
C18    C     0.51361   0.40417   0.78755   0.00000  Uiso   1.00
C19    C     0.52418   0.41280   0.85735   0.00000  Uiso   1.00
C20    C     0.63528   0.39555   0.88776   0.00000  Uiso   1.00
C21    C     0.36171   0.36321   0.70833   0.00000  Uiso   1.00
C22    C     0.24458   0.33738   0.71154   0.00000  Uiso   1.00
C23    C     0.22780   0.28562   0.67526   0.00000  Uiso   1.00
H24    H     0.65446   0.35440   0.64427   0.00000  Uiso   1.00
H25    H     0.67676   0.44639   0.56741   0.00000  Uiso   1.00
H26    H     0.79668   0.34261   0.75029   0.00000  Uiso   1.00
H27    H     0.51712   0.26720   0.60449   0.00000  Uiso   1.00
H28    H     0.65874   0.55939   0.49900   0.00000  Uiso   1.00
H29    H     0.91159   0.34055   0.88462   0.00000  Uiso   1.00
H30    H     0.32208   0.18154   0.57719   0.00000  Uiso   1.00
H31    H     0.32499   0.43925   0.77369   0.00000  Uiso   1.00
H32    H     0.32920   0.53590   0.70392   0.00000  Uiso   1.00
H33    H     0.44913   0.43212   0.88681   0.00000  Uiso   1.00
H34    H     0.16957   0.35671   0.74101   0.00000  Uiso   1.00
H35    H     0.37666   0.63205   0.60981   0.00000  Uiso   1.00
H36    H     0.62950   0.41320   0.99543   0.00000  Uiso   1.00
H37    H     0.04000   0.25419   0.68799   0.00000  Uiso   1.00
O38    O     0.52644   0.65778   0.50620   0.00000  Uiso   1.00
O39    O     0.85816   0.37065   0.01211   0.00000  Uiso   1.00
O40    O     0.08474   0.16203   0.60876   0.00000  Uiso   1.00
N41    N     0.59176   0.56322   0.53465   0.00000  Uiso   1.00
N42    N     0.82816   0.35863   0.89518   0.00000  Uiso   1.00
N43    N     0.27704   0.20995   0.60777   0.00000  Uiso   1.00
N44    N     0.43997   0.60232   0.59427   0.00000  Uiso   1.00
N45    N     0.67638   0.39772   0.95480   0.00000  Uiso   1.00
N46    N     0.12525   0.24905   0.66739   0.00000  Uiso   1.00
C47    C     0.92102   0.62616   0.67391   0.00000  Uiso   1.00
C48    C     0.95461   0.56442   0.65010   0.00000  Uiso   1.00
C49    C     0.89828   0.53428   0.59687   0.00000  Uiso   1.00
C50    C     0.94239   0.47821   0.58305   0.00000  Uiso   1.00
C51    C     0.97975   0.38612   0.54029   0.00000  Uiso   1.00
C52    C     0.88944   0.62080   0.74946   0.00000  Uiso   1.00
C53    C     0.77833   0.63807   0.77977   0.00000  Uiso   1.00
C54    C     0.76760   0.62947   0.84960   0.00000  Uiso   1.00
C55    C     0.70382   0.62495   0.96112   0.00000  Uiso   1.00
C56    C     0.04133   0.66176   0.67024   0.00000  Uiso   1.00
C57    C     0.05793   0.71349   0.63396   0.00000  Uiso   1.00
C58    C     0.17507   0.73939   0.63711   0.00000  Uiso   1.00
C59    C     0.34713   0.79848   0.62562   0.00000  Uiso   1.00
C60    C     0.09952   0.58019   0.74403   0.00000  Uiso   1.00
C61    C     0.05156   0.53945   0.68819   0.00000  Uiso   1.00
C62    C     0.09577   0.48341   0.67444   0.00000  Uiso   1.00
C63    C     0.03953   0.45319   0.62120   0.00000  Uiso   1.00
C64    C     0.98639   0.59583   0.78755   0.00000  Uiso   1.00
C65    C     0.97582   0.58720   0.85735   0.00000  Uiso   1.00
C66    C     0.86472   0.60445   0.88776   0.00000  Uiso   1.00
C67    C     0.13829   0.63679   0.70833   0.00000  Uiso   1.00
C68    C     0.25542   0.66262   0.71154   0.00000  Uiso   1.00
C69    C     0.27220   0.71438   0.67526   0.00000  Uiso   1.00
H70    H     0.84554   0.64560   0.64427   0.00000  Uiso   1.00
H71    H     0.82324   0.55361   0.56741   0.00000  Uiso   1.00
H72    H     0.70332   0.65739   0.75029   0.00000  Uiso   1.00
H73    H     0.98288   0.73280   0.60449   0.00000  Uiso   1.00
H74    H     0.84126   0.44061   0.49900   0.00000  Uiso   1.00
H75    H     0.58841   0.65945   0.88462   0.00000  Uiso   1.00
H76    H     0.17792   0.81846   0.57719   0.00000  Uiso   1.00
H77    H     0.17501   0.56075   0.77369   0.00000  Uiso   1.00
H78    H     0.17080   0.46410   0.70392   0.00000  Uiso   1.00
H79    H     0.05087   0.56788   0.88681   0.00000  Uiso   1.00
H80    H     0.33043   0.64329   0.74101   0.00000  Uiso   1.00
H81    H     0.12334   0.36795   0.60981   0.00000  Uiso   1.00
H82    H     0.87050   0.58680   0.99543   0.00000  Uiso   1.00
H83    H     0.46000   0.74581   0.68799   0.00000  Uiso   1.00
O84    O     0.97356   0.34222   0.50620   0.00000  Uiso   1.00
O85    O     0.64184   0.62935   0.01211   0.00000  Uiso   1.00
O86    O     0.41526   0.83797   0.60876   0.00000  Uiso   1.00
N87    N     0.90824   0.43678   0.53465   0.00000  Uiso   1.00
N88    N     0.67184   0.64137   0.89518   0.00000  Uiso   1.00
N89    N     0.22296   0.79005   0.60777   0.00000  Uiso   1.00
N90    N     0.06003   0.39768   0.59427   0.00000  Uiso   1.00
N91    N     0.82362   0.60228   0.95480   0.00000  Uiso   1.00
N92    N     0.37475   0.75095   0.66739   0.00000  Uiso   1.00
C93    C     0.92102   0.87384   0.82609   0.00000  Uiso   1.00
C94    C     0.95461   0.93558   0.84990   0.00000  Uiso   1.00
C95    C     0.89828   0.96572   0.90313   0.00000  Uiso   1.00
C96    C     0.94239   0.02179   0.91695   0.00000  Uiso   1.00
C97    C     0.97975   0.11388   0.95971   0.00000  Uiso   1.00
C98    C     0.88944   0.87920   0.75054   0.00000  Uiso   1.00
C99    C     0.77833   0.86193   0.72023   0.00000  Uiso   1.00
C100   C     0.76760   0.87053   0.65040   0.00000  Uiso   1.00
C101   C     0.70382   0.87505   0.53888   0.00000  Uiso   1.00
C102   C     0.04133   0.83824   0.82976   0.00000  Uiso   1.00
C103   C     0.05793   0.78651   0.86604   0.00000  Uiso   1.00
C104   C     0.17507   0.76061   0.86289   0.00000  Uiso   1.00
C105   C     0.34713   0.70152   0.87438   0.00000  Uiso   1.00
C106   C     0.09952   0.91981   0.75597   0.00000  Uiso   1.00
C107   C     0.05156   0.96055   0.81181   0.00000  Uiso   1.00
C108   C     0.09577   0.01659   0.82556   0.00000  Uiso   1.00
C109   C     0.03953   0.04681   0.87880   0.00000  Uiso   1.00
C110   C     0.98639   0.90417   0.71245   0.00000  Uiso   1.00
C111   C     0.97582   0.91280   0.64265   0.00000  Uiso   1.00
C112   C     0.86472   0.89555   0.61224   0.00000  Uiso   1.00
C113   C     0.13829   0.86321   0.79167   0.00000  Uiso   1.00
C114   C     0.25542   0.83738   0.78846   0.00000  Uiso   1.00
C115   C     0.27220   0.78562   0.82474   0.00000  Uiso   1.00
H116   H     0.84554   0.85440   0.85573   0.00000  Uiso   1.00
H117   H     0.82324   0.94639   0.93259   0.00000  Uiso   1.00
H118   H     0.70332   0.84261   0.74971   0.00000  Uiso   1.00
H119   H     0.98288   0.76720   0.89551   0.00000  Uiso   1.00
H120   H     0.84126   0.05939   0.00100   0.00000  Uiso   1.00
H121   H     0.58841   0.84055   0.61538   0.00000  Uiso   1.00
H122   H     0.17792   0.68154   0.92281   0.00000  Uiso   1.00
H123   H     0.17501   0.93925   0.72631   0.00000  Uiso   1.00
H124   H     0.17080   0.03590   0.79608   0.00000  Uiso   1.00
H125   H     0.05087   0.93212   0.61319   0.00000  Uiso   1.00
H126   H     0.33043   0.85671   0.75899   0.00000  Uiso   1.00
H127   H     0.12334   0.13205   0.89019   0.00000  Uiso   1.00
H128   H     0.87050   0.91320   0.50457   0.00000  Uiso   1.00
H129   H     0.46000   0.75419   0.81201   0.00000  Uiso   1.00
O130   O     0.97356   0.15778   0.99380   0.00000  Uiso   1.00
O131   O     0.64184   0.87065   0.48789   0.00000  Uiso   1.00
O132   O     0.41526   0.66203   0.89124   0.00000  Uiso   1.00
N133   N     0.90824   0.06322   0.96535   0.00000  Uiso   1.00
N134   N     0.67184   0.85863   0.60482   0.00000  Uiso   1.00
N135   N     0.22296   0.70995   0.89223   0.00000  Uiso   1.00
N136   N     0.06003   0.10232   0.90573   0.00000  Uiso   1.00
N137   N     0.82362   0.89772   0.54520   0.00000  Uiso   1.00
N138   N     0.37475   0.74905   0.83261   0.00000  Uiso   1.00
C139   C     0.57898   0.12616   0.82609   0.00000  Uiso   1.00
C140   C     0.54539   0.06442   0.84990   0.00000  Uiso   1.00
C141   C     0.60172   0.03428   0.90313   0.00000  Uiso   1.00
C142   C     0.55761   0.97821   0.91695   0.00000  Uiso   1.00
C143   C     0.52025   0.88612   0.95971   0.00000  Uiso   1.00
C144   C     0.61056   0.12080   0.75054   0.00000  Uiso   1.00
C145   C     0.72167   0.13807   0.72023   0.00000  Uiso   1.00
C146   C     0.73240   0.12947   0.65040   0.00000  Uiso   1.00
C147   C     0.79618   0.12495   0.53888   0.00000  Uiso   1.00
C148   C     0.45867   0.16176   0.82976   0.00000  Uiso   1.00
C149   C     0.44207   0.21349   0.86604   0.00000  Uiso   1.00
C150   C     0.32493   0.23939   0.86289   0.00000  Uiso   1.00
C151   C     0.15287   0.29848   0.87438   0.00000  Uiso   1.00
C152   C     0.40048   0.08019   0.75597   0.00000  Uiso   1.00
C153   C     0.44844   0.03945   0.81181   0.00000  Uiso   1.00
C154   C     0.40423   0.98341   0.82556   0.00000  Uiso   1.00
C155   C     0.46047   0.95319   0.87880   0.00000  Uiso   1.00
C156   C     0.51361   0.09583   0.71245   0.00000  Uiso   1.00
C157   C     0.52418   0.08720   0.64265   0.00000  Uiso   1.00
C158   C     0.63528   0.10445   0.61224   0.00000  Uiso   1.00
C159   C     0.36171   0.13679   0.79167   0.00000  Uiso   1.00
C160   C     0.24458   0.16262   0.78846   0.00000  Uiso   1.00
C161   C     0.22780   0.21438   0.82474   0.00000  Uiso   1.00
H162   H     0.65446   0.14560   0.85573   0.00000  Uiso   1.00
H163   H     0.67676   0.05361   0.93259   0.00000  Uiso   1.00
H164   H     0.79668   0.15739   0.74971   0.00000  Uiso   1.00
H165   H     0.51712   0.23280   0.89551   0.00000  Uiso   1.00
H166   H     0.65874   0.94061   0.00100   0.00000  Uiso   1.00
H167   H     0.91159   0.15945   0.61538   0.00000  Uiso   1.00
H168   H     0.32208   0.31846   0.92281   0.00000  Uiso   1.00
H169   H     0.32499   0.06075   0.72631   0.00000  Uiso   1.00
H170   H     0.32920   0.96410   0.79608   0.00000  Uiso   1.00
H171   H     0.44913   0.06788   0.61319   0.00000  Uiso   1.00
H172   H     0.16957   0.14329   0.75899   0.00000  Uiso   1.00
H173   H     0.37666   0.86795   0.89019   0.00000  Uiso   1.00
H174   H     0.62950   0.08680   0.50457   0.00000  Uiso   1.00
H175   H     0.04000   0.24581   0.81201   0.00000  Uiso   1.00
O176   O     0.52644   0.84222   0.99380   0.00000  Uiso   1.00
O177   O     0.85816   0.12935   0.48789   0.00000  Uiso   1.00
O178   O     0.08474   0.33797   0.89124   0.00000  Uiso   1.00
N179   N     0.59176   0.93678   0.96535   0.00000  Uiso   1.00
N180   N     0.82816   0.14137   0.60482   0.00000  Uiso   1.00
N181   N     0.27704   0.29005   0.89223   0.00000  Uiso   1.00
N182   N     0.43997   0.89768   0.90573   0.00000  Uiso   1.00
N183   N     0.67638   0.10228   0.54520   0.00000  Uiso   1.00
N184   N     0.12525   0.25095   0.83261   0.00000  Uiso   1.00
C185   C     0.42102   0.62616   0.32609   0.00000  Uiso   1.00
C186   C     0.45461   0.56442   0.34990   0.00000  Uiso   1.00
C187   C     0.39828   0.53428   0.40313   0.00000  Uiso   1.00
C188   C     0.44239   0.47821   0.41695   0.00000  Uiso   1.00
C189   C     0.47975   0.38612   0.45971   0.00000  Uiso   1.00
C190   C     0.38944   0.62080   0.25054   0.00000  Uiso   1.00
C191   C     0.27833   0.63807   0.22023   0.00000  Uiso   1.00
C192   C     0.26760   0.62947   0.15040   0.00000  Uiso   1.00
C193   C     0.20382   0.62495   0.03888   0.00000  Uiso   1.00
C194   C     0.54133   0.66176   0.32976   0.00000  Uiso   1.00
C195   C     0.55793   0.71349   0.36604   0.00000  Uiso   1.00
C196   C     0.67507   0.73939   0.36289   0.00000  Uiso   1.00
C197   C     0.84713   0.79848   0.37438   0.00000  Uiso   1.00
C198   C     0.59952   0.58019   0.25597   0.00000  Uiso   1.00
C199   C     0.55156   0.53945   0.31181   0.00000  Uiso   1.00
C200   C     0.59577   0.48341   0.32556   0.00000  Uiso   1.00
C201   C     0.53953   0.45319   0.37880   0.00000  Uiso   1.00
C202   C     0.48639   0.59583   0.21245   0.00000  Uiso   1.00
C203   C     0.47582   0.58720   0.14265   0.00000  Uiso   1.00
C204   C     0.36472   0.60445   0.11224   0.00000  Uiso   1.00
C205   C     0.63829   0.63679   0.29167   0.00000  Uiso   1.00
C206   C     0.75542   0.66262   0.28846   0.00000  Uiso   1.00
C207   C     0.77220   0.71438   0.32474   0.00000  Uiso   1.00
H208   H     0.34554   0.64560   0.35573   0.00000  Uiso   1.00
H209   H     0.32324   0.55361   0.43259   0.00000  Uiso   1.00
H210   H     0.20332   0.65739   0.24971   0.00000  Uiso   1.00
H211   H     0.48288   0.73280   0.39551   0.00000  Uiso   1.00
H212   H     0.34126   0.44061   0.50100   0.00000  Uiso   1.00
H213   H     0.08841   0.65945   0.11538   0.00000  Uiso   1.00
H214   H     0.67792   0.81846   0.42281   0.00000  Uiso   1.00
H215   H     0.67501   0.56075   0.22631   0.00000  Uiso   1.00
H216   H     0.67080   0.46410   0.29608   0.00000  Uiso   1.00
H217   H     0.55087   0.56788   0.11319   0.00000  Uiso   1.00
H218   H     0.83043   0.64329   0.25899   0.00000  Uiso   1.00
H219   H     0.62334   0.36795   0.39019   0.00000  Uiso   1.00
H220   H     0.37050   0.58680   0.00457   0.00000  Uiso   1.00
H221   H     0.96000   0.74581   0.31201   0.00000  Uiso   1.00
O222   O     0.47356   0.34222   0.49380   0.00000  Uiso   1.00
O223   O     0.14184   0.62935   0.98789   0.00000  Uiso   1.00
O224   O     0.91526   0.83797   0.39124   0.00000  Uiso   1.00
N225   N     0.40824   0.43678   0.46535   0.00000  Uiso   1.00
N226   N     0.17184   0.64137   0.10482   0.00000  Uiso   1.00
N227   N     0.72296   0.79005   0.39223   0.00000  Uiso   1.00
N228   N     0.56003   0.39768   0.40573   0.00000  Uiso   1.00
N229   N     0.32362   0.60228   0.04520   0.00000  Uiso   1.00
N230   N     0.87475   0.75095   0.33261   0.00000  Uiso   1.00
C231   C     0.07898   0.37384   0.32609   0.00000  Uiso   1.00
C232   C     0.04539   0.43558   0.34990   0.00000  Uiso   1.00
C233   C     0.10172   0.46572   0.40313   0.00000  Uiso   1.00
C234   C     0.05761   0.52179   0.41695   0.00000  Uiso   1.00
C235   C     0.02025   0.61388   0.45971   0.00000  Uiso   1.00
C236   C     0.11056   0.37920   0.25054   0.00000  Uiso   1.00
C237   C     0.22167   0.36193   0.22023   0.00000  Uiso   1.00
C238   C     0.23240   0.37053   0.15040   0.00000  Uiso   1.00
C239   C     0.29618   0.37505   0.03888   0.00000  Uiso   1.00
C240   C     0.95867   0.33824   0.32976   0.00000  Uiso   1.00
C241   C     0.94207   0.28651   0.36604   0.00000  Uiso   1.00
C242   C     0.82493   0.26061   0.36289   0.00000  Uiso   1.00
C243   C     0.65287   0.20152   0.37438   0.00000  Uiso   1.00
C244   C     0.90048   0.41981   0.25597   0.00000  Uiso   1.00
C245   C     0.94844   0.46055   0.31181   0.00000  Uiso   1.00
C246   C     0.90423   0.51659   0.32556   0.00000  Uiso   1.00
C247   C     0.96047   0.54681   0.37880   0.00000  Uiso   1.00
C248   C     0.01361   0.40417   0.21245   0.00000  Uiso   1.00
C249   C     0.02418   0.41280   0.14265   0.00000  Uiso   1.00
C250   C     0.13528   0.39555   0.11224   0.00000  Uiso   1.00
C251   C     0.86171   0.36321   0.29167   0.00000  Uiso   1.00
C252   C     0.74458   0.33738   0.28846   0.00000  Uiso   1.00
C253   C     0.72780   0.28562   0.32474   0.00000  Uiso   1.00
H254   H     0.15446   0.35440   0.35573   0.00000  Uiso   1.00
H255   H     0.17676   0.44639   0.43259   0.00000  Uiso   1.00
H256   H     0.29668   0.34261   0.24971   0.00000  Uiso   1.00
H257   H     0.01712   0.26720   0.39551   0.00000  Uiso   1.00
H258   H     0.15874   0.55939   0.50100   0.00000  Uiso   1.00
H259   H     0.41159   0.34055   0.11538   0.00000  Uiso   1.00
H260   H     0.82208   0.18154   0.42281   0.00000  Uiso   1.00
H261   H     0.82499   0.43925   0.22631   0.00000  Uiso   1.00
H262   H     0.82920   0.53590   0.29608   0.00000  Uiso   1.00
H263   H     0.94913   0.43212   0.11319   0.00000  Uiso   1.00
H264   H     0.66957   0.35671   0.25899   0.00000  Uiso   1.00
H265   H     0.87666   0.63205   0.39019   0.00000  Uiso   1.00
H266   H     0.12950   0.41320   0.00457   0.00000  Uiso   1.00
H267   H     0.54000   0.25419   0.31201   0.00000  Uiso   1.00
O268   O     0.02644   0.65778   0.49380   0.00000  Uiso   1.00
O269   O     0.35816   0.37065   0.98789   0.00000  Uiso   1.00
O270   O     0.58474   0.16203   0.39124   0.00000  Uiso   1.00
N271   N     0.09176   0.56322   0.46535   0.00000  Uiso   1.00
N272   N     0.32816   0.35863   0.10482   0.00000  Uiso   1.00
N273   N     0.77704   0.20995   0.39223   0.00000  Uiso   1.00
N274   N     0.93997   0.60232   0.40573   0.00000  Uiso   1.00
N275   N     0.17638   0.39772   0.04520   0.00000  Uiso   1.00
N276   N     0.62525   0.24905   0.33261   0.00000  Uiso   1.00
C277   C     0.07898   0.12616   0.17391   0.00000  Uiso   1.00
C278   C     0.04539   0.06442   0.15010   0.00000  Uiso   1.00
C279   C     0.10172   0.03428   0.09687   0.00000  Uiso   1.00
C280   C     0.05761   0.97821   0.08305   0.00000  Uiso   1.00
C281   C     0.02025   0.88612   0.04029   0.00000  Uiso   1.00
C282   C     0.11056   0.12080   0.24946   0.00000  Uiso   1.00
C283   C     0.22167   0.13807   0.27977   0.00000  Uiso   1.00
C284   C     0.23240   0.12947   0.34960   0.00000  Uiso   1.00
C285   C     0.29618   0.12495   0.46112   0.00000  Uiso   1.00
C286   C     0.95867   0.16176   0.17024   0.00000  Uiso   1.00
C287   C     0.94207   0.21349   0.13396   0.00000  Uiso   1.00
C288   C     0.82493   0.23939   0.13711   0.00000  Uiso   1.00
C289   C     0.65287   0.29848   0.12562   0.00000  Uiso   1.00
C290   C     0.90048   0.08019   0.24403   0.00000  Uiso   1.00
C291   C     0.94844   0.03945   0.18819   0.00000  Uiso   1.00
C292   C     0.90423   0.98341   0.17444   0.00000  Uiso   1.00
C293   C     0.96047   0.95319   0.12120   0.00000  Uiso   1.00
C294   C     0.01361   0.09583   0.28755   0.00000  Uiso   1.00
C295   C     0.02418   0.08720   0.35735   0.00000  Uiso   1.00
C296   C     0.13528   0.10445   0.38776   0.00000  Uiso   1.00
C297   C     0.86171   0.13679   0.20833   0.00000  Uiso   1.00
C298   C     0.74458   0.16262   0.21154   0.00000  Uiso   1.00
C299   C     0.72780   0.21438   0.17526   0.00000  Uiso   1.00
H300   H     0.15446   0.14560   0.14427   0.00000  Uiso   1.00
H301   H     0.17676   0.05361   0.06741   0.00000  Uiso   1.00
H302   H     0.29668   0.15739   0.25029   0.00000  Uiso   1.00
H303   H     0.01712   0.23280   0.10449   0.00000  Uiso   1.00
H304   H     0.15874   0.94061   0.99900   0.00000  Uiso   1.00
H305   H     0.41159   0.15945   0.38462   0.00000  Uiso   1.00
H306   H     0.82208   0.31846   0.07719   0.00000  Uiso   1.00
H307   H     0.82499   0.06075   0.27369   0.00000  Uiso   1.00
H308   H     0.82920   0.96410   0.20392   0.00000  Uiso   1.00
H309   H     0.94913   0.06788   0.38681   0.00000  Uiso   1.00
H310   H     0.66957   0.14329   0.24101   0.00000  Uiso   1.00
H311   H     0.87666   0.86795   0.10981   0.00000  Uiso   1.00
H312   H     0.12950   0.08680   0.49543   0.00000  Uiso   1.00
H313   H     0.54000   0.24581   0.18799   0.00000  Uiso   1.00
O314   O     0.02644   0.84222   0.00620   0.00000  Uiso   1.00
O315   O     0.35816   0.12935   0.51211   0.00000  Uiso   1.00
O316   O     0.58474   0.33797   0.10876   0.00000  Uiso   1.00
N317   N     0.09176   0.93678   0.03465   0.00000  Uiso   1.00
N318   N     0.32816   0.14137   0.39518   0.00000  Uiso   1.00
N319   N     0.77704   0.29005   0.10777   0.00000  Uiso   1.00
N320   N     0.93997   0.89768   0.09427   0.00000  Uiso   1.00
N321   N     0.17638   0.10228   0.45480   0.00000  Uiso   1.00
N322   N     0.62525   0.25095   0.16739   0.00000  Uiso   1.00
C323   C     0.42102   0.87384   0.17391   0.00000  Uiso   1.00
C324   C     0.45461   0.93558   0.15010   0.00000  Uiso   1.00
C325   C     0.39828   0.96572   0.09687   0.00000  Uiso   1.00
C326   C     0.44239   0.02179   0.08305   0.00000  Uiso   1.00
C327   C     0.47975   0.11388   0.04029   0.00000  Uiso   1.00
C328   C     0.38944   0.87920   0.24946   0.00000  Uiso   1.00
C329   C     0.27833   0.86193   0.27977   0.00000  Uiso   1.00
C330   C     0.26760   0.87053   0.34960   0.00000  Uiso   1.00
C331   C     0.20382   0.87505   0.46112   0.00000  Uiso   1.00
C332   C     0.54133   0.83824   0.17024   0.00000  Uiso   1.00
C333   C     0.55793   0.78651   0.13396   0.00000  Uiso   1.00
C334   C     0.67507   0.76061   0.13711   0.00000  Uiso   1.00
C335   C     0.84713   0.70152   0.12562   0.00000  Uiso   1.00
C336   C     0.59952   0.91981   0.24403   0.00000  Uiso   1.00
C337   C     0.55156   0.96055   0.18819   0.00000  Uiso   1.00
C338   C     0.59577   0.01659   0.17444   0.00000  Uiso   1.00
C339   C     0.53953   0.04681   0.12120   0.00000  Uiso   1.00
C340   C     0.48639   0.90417   0.28755   0.00000  Uiso   1.00
C341   C     0.47582   0.91280   0.35735   0.00000  Uiso   1.00
C342   C     0.36472   0.89555   0.38776   0.00000  Uiso   1.00
C343   C     0.63829   0.86321   0.20833   0.00000  Uiso   1.00
C344   C     0.75542   0.83738   0.21154   0.00000  Uiso   1.00
C345   C     0.77220   0.78562   0.17526   0.00000  Uiso   1.00
H346   H     0.34554   0.85440   0.14427   0.00000  Uiso   1.00
H347   H     0.32324   0.94639   0.06741   0.00000  Uiso   1.00
H348   H     0.20332   0.84261   0.25029   0.00000  Uiso   1.00
H349   H     0.48288   0.76720   0.10449   0.00000  Uiso   1.00
H350   H     0.34126   0.05939   0.99900   0.00000  Uiso   1.00
H351   H     0.08841   0.84055   0.38462   0.00000  Uiso   1.00
H352   H     0.67792   0.68154   0.07719   0.00000  Uiso   1.00
H353   H     0.67501   0.93925   0.27369   0.00000  Uiso   1.00
H354   H     0.67080   0.03590   0.20392   0.00000  Uiso   1.00
H355   H     0.55087   0.93212   0.38681   0.00000  Uiso   1.00
H356   H     0.83043   0.85671   0.24101   0.00000  Uiso   1.00
H357   H     0.62334   0.13205   0.10981   0.00000  Uiso   1.00
H358   H     0.37050   0.91320   0.49543   0.00000  Uiso   1.00
H359   H     0.96000   0.75419   0.18799   0.00000  Uiso   1.00
O360   O     0.47356   0.15778   0.00620   0.00000  Uiso   1.00
O361   O     0.14184   0.87065   0.51211   0.00000  Uiso   1.00
O362   O     0.91526   0.66203   0.10876   0.00000  Uiso   1.00
N363   N     0.40824   0.06322   0.03465   0.00000  Uiso   1.00
N364   N     0.17184   0.85863   0.39518   0.00000  Uiso   1.00
N365   N     0.72296   0.70995   0.10777   0.00000  Uiso   1.00
N366   N     0.56003   0.10232   0.09427   0.00000  Uiso   1.00
N367   N     0.32362   0.89772   0.45480   0.00000  Uiso   1.00
N368   N     0.87475   0.74905   0.16739   0.00000  Uiso   1.00
