data_job_00958
_audit_creation_date              2018-12-19
_audit_creation_method            'Materials Studio'
_symmetry_space_group_name_H-M    'P1'
_symmetry_Int_Tables_number       1
_symmetry_cell_setting            triclinic
loop_
_symmetry_equiv_pos_as_xyz
  x,y,z
_cell_length_a                    23.4264
_cell_length_b                    10.2984
_cell_length_c                    34.6167
_cell_angle_alpha                 90.0000
_cell_angle_beta                  141.4168
_cell_angle_gamma                 90.0000
loop_
_atom_site_label
_atom_site_type_symbol
_atom_site_fract_x
_atom_site_fract_y
_atom_site_fract_z
_atom_site_U_iso_or_equiv
_atom_site_adp_type
_atom_site_occupancy
C1     C     0.68037   0.84057   0.31534   0.00000  Uiso   1.00
C2     C     0.69225   0.88419   0.36342   0.00000  Uiso   1.00
C3     C     0.63985   0.97730   0.35443   0.00000  Uiso   1.00
C4     C     0.66155   0.00345   0.40417   0.00000  Uiso   1.00
C5     C     0.66914   0.08107   0.47022   0.00000  Uiso   1.00
C6     C     0.77276   0.86198   0.34474   0.00000  Uiso   1.00
C7     C     0.78805   0.93641   0.32003   0.00000  Uiso   1.00
C8     C     0.87754   0.94386   0.35405   0.00000  Uiso   1.00
C9     C     0.01012   0.98693   0.39107   0.00000  Uiso   1.00
C10    C     0.66637   0.69392   0.30936   0.00000  Uiso   1.00
C11    C     0.59223   0.62702   0.25490   0.00000  Uiso   1.00
C12    C     0.59215   0.49296   0.25913   0.00000  Uiso   1.00
C13    C     0.55955   0.27508   0.24122   0.00000  Uiso   1.00
C14    C     0.81210   0.72144   0.41967   0.00000  Uiso   1.00
C15    C     0.76380   0.81948   0.42009   0.00000  Uiso   1.00
C16    C     0.78559   0.84550   0.46986   0.00000  Uiso   1.00
C17    C     0.73323   0.93863   0.46095   0.00000  Uiso   1.00
C18    C     0.84431   0.79728   0.40141   0.00000  Uiso   1.00
C19    C     0.93380   0.80461   0.43547   0.00000  Uiso   1.00
C20    C     0.94922   0.87904   0.41082   0.00000  Uiso   1.00
C21    C     0.73792   0.62921   0.36603   0.00000  Uiso   1.00
C22    C     0.73797   0.49522   0.37034   0.00000  Uiso   1.00
C23    C     0.66383   0.42814   0.31590   0.00000  Uiso   1.00
H24    H     0.62467   0.89095   0.27122   0.00000  Uiso   1.00
H25    H     0.58448   0.02736   0.31056   0.00000  Uiso   1.00
H26    H     0.73267   0.98646   0.27617   0.00000  Uiso   1.00
H27    H     0.53687   0.67712   0.21106   0.00000  Uiso   1.00
H28    H     0.57151   0.15009   0.37919   0.00000  Uiso   1.00
H29    H     0.88396   0.06383   0.30666   0.00000  Uiso   1.00
H30    H     0.47108   0.41153   0.16935   0.00000  Uiso   1.00
H31    H     0.86781   0.67106   0.46379   0.00000  Uiso   1.00
H32    H     0.84096   0.79541   0.51371   0.00000  Uiso   1.00
H33    H     0.98915   0.75452   0.47932   0.00000  Uiso   1.00
H34    H     0.79335   0.44518   0.41420   0.00000  Uiso   1.00
H35    H     0.77968   0.96184   0.54407   0.00000  Uiso   1.00
H36    H     0.09213   0.87558   0.47154   0.00000  Uiso   1.00
H37    H     0.67925   0.22328   0.33423   0.00000  Uiso   1.00
O38    O     0.65357   0.14176   0.49100   0.00000  Uiso   1.00
O39    O     0.06348   0.02857   0.39584   0.00000  Uiso   1.00
O40    O     0.52180   0.17277   0.21569   0.00000  Uiso   1.00
N41    N     0.62417   0.08870   0.41114   0.00000  Uiso   1.00
N42    N     0.91630   0.00808   0.34333   0.00000  Uiso   1.00
N43    N     0.53030   0.39822   0.21496   0.00000  Uiso   1.00
N44    N     0.73619   0.98741   0.49986   0.00000  Uiso   1.00
N45    N     0.02831   0.90678   0.43206   0.00000  Uiso   1.00
N46    N     0.64232   0.29692   0.30368   0.00000  Uiso   1.00
C47    C     0.18037   0.34057   0.31534   0.00000  Uiso   1.00
C48    C     0.19225   0.38419   0.36342   0.00000  Uiso   1.00
C49    C     0.13985   0.47730   0.35443   0.00000  Uiso   1.00
C50    C     0.16155   0.50345   0.40417   0.00000  Uiso   1.00
C51    C     0.16914   0.58107   0.47022   0.00000  Uiso   1.00
C52    C     0.27276   0.36198   0.34474   0.00000  Uiso   1.00
C53    C     0.28805   0.43641   0.32003   0.00000  Uiso   1.00
C54    C     0.37754   0.44386   0.35405   0.00000  Uiso   1.00
C55    C     0.51012   0.48693   0.39107   0.00000  Uiso   1.00
C56    C     0.16637   0.19392   0.30936   0.00000  Uiso   1.00
C57    C     0.09223   0.12702   0.25490   0.00000  Uiso   1.00
C58    C     0.09215   0.99296   0.25913   0.00000  Uiso   1.00
C59    C     0.05955   0.77508   0.24122   0.00000  Uiso   1.00
C60    C     0.31210   0.22144   0.41967   0.00000  Uiso   1.00
C61    C     0.26380   0.31948   0.42009   0.00000  Uiso   1.00
C62    C     0.28559   0.34550   0.46986   0.00000  Uiso   1.00
C63    C     0.23323   0.43863   0.46095   0.00000  Uiso   1.00
C64    C     0.34431   0.29728   0.40141   0.00000  Uiso   1.00
C65    C     0.43380   0.30461   0.43547   0.00000  Uiso   1.00
C66    C     0.44922   0.37904   0.41082   0.00000  Uiso   1.00
C67    C     0.23792   0.12921   0.36603   0.00000  Uiso   1.00
C68    C     0.23797   0.99522   0.37034   0.00000  Uiso   1.00
C69    C     0.16383   0.92814   0.31590   0.00000  Uiso   1.00
H70    H     0.12467   0.39095   0.27122   0.00000  Uiso   1.00
H71    H     0.08448   0.52736   0.31056   0.00000  Uiso   1.00
H72    H     0.23267   0.48646   0.27617   0.00000  Uiso   1.00
H73    H     0.03687   0.17712   0.21106   0.00000  Uiso   1.00
H74    H     0.07151   0.65009   0.37919   0.00000  Uiso   1.00
H75    H     0.38396   0.56383   0.30666   0.00000  Uiso   1.00
H76    H     0.97108   0.91153   0.16935   0.00000  Uiso   1.00
H77    H     0.36781   0.17106   0.46379   0.00000  Uiso   1.00
H78    H     0.34096   0.29541   0.51371   0.00000  Uiso   1.00
H79    H     0.48915   0.25452   0.47932   0.00000  Uiso   1.00
H80    H     0.29335   0.94518   0.41420   0.00000  Uiso   1.00
H81    H     0.27968   0.46184   0.54407   0.00000  Uiso   1.00
H82    H     0.59213   0.37558   0.47154   0.00000  Uiso   1.00
H83    H     0.17925   0.72328   0.33423   0.00000  Uiso   1.00
O84    O     0.15357   0.64176   0.49100   0.00000  Uiso   1.00
O85    O     0.56348   0.52857   0.39584   0.00000  Uiso   1.00
O86    O     0.02180   0.67277   0.21569   0.00000  Uiso   1.00
N87    N     0.12417   0.58870   0.41114   0.00000  Uiso   1.00
N88    N     0.41630   0.50808   0.34333   0.00000  Uiso   1.00
N89    N     0.03030   0.89822   0.21496   0.00000  Uiso   1.00
N90    N     0.23619   0.48741   0.49986   0.00000  Uiso   1.00
N91    N     0.52831   0.40678   0.43206   0.00000  Uiso   1.00
N92    N     0.14232   0.79692   0.30368   0.00000  Uiso   1.00
C93    C     0.31963   0.84057   0.18466   0.00000  Uiso   1.00
C94    C     0.30775   0.88419   0.13658   0.00000  Uiso   1.00
C95    C     0.36015   0.97730   0.14557   0.00000  Uiso   1.00
C96    C     0.33845   0.00345   0.09583   0.00000  Uiso   1.00
C97    C     0.33086   0.08107   0.02978   0.00000  Uiso   1.00
C98    C     0.22724   0.86198   0.15526   0.00000  Uiso   1.00
C99    C     0.21195   0.93641   0.17997   0.00000  Uiso   1.00
C100   C     0.12246   0.94386   0.14595   0.00000  Uiso   1.00
C101   C     0.98988   0.98693   0.10893   0.00000  Uiso   1.00
C102   C     0.33363   0.69392   0.19064   0.00000  Uiso   1.00
C103   C     0.40777   0.62702   0.24510   0.00000  Uiso   1.00
C104   C     0.40785   0.49296   0.24087   0.00000  Uiso   1.00
C105   C     0.44045   0.27508   0.25878   0.00000  Uiso   1.00
C106   C     0.18790   0.72144   0.08033   0.00000  Uiso   1.00
C107   C     0.23620   0.81948   0.07991   0.00000  Uiso   1.00
C108   C     0.21441   0.84550   0.03014   0.00000  Uiso   1.00
C109   C     0.26677   0.93863   0.03905   0.00000  Uiso   1.00
C110   C     0.15569   0.79728   0.09859   0.00000  Uiso   1.00
C111   C     0.06620   0.80461   0.06453   0.00000  Uiso   1.00
C112   C     0.05078   0.87904   0.08918   0.00000  Uiso   1.00
C113   C     0.26208   0.62921   0.13397   0.00000  Uiso   1.00
C114   C     0.26203   0.49522   0.12966   0.00000  Uiso   1.00
C115   C     0.33617   0.42814   0.18410   0.00000  Uiso   1.00
H116   H     0.37533   0.89095   0.22878   0.00000  Uiso   1.00
H117   H     0.41552   0.02736   0.18944   0.00000  Uiso   1.00
H118   H     0.26733   0.98646   0.22383   0.00000  Uiso   1.00
H119   H     0.46313   0.67712   0.28894   0.00000  Uiso   1.00
H120   H     0.42849   0.15009   0.12081   0.00000  Uiso   1.00
H121   H     0.11604   0.06383   0.19334   0.00000  Uiso   1.00
H122   H     0.52892   0.41153   0.33065   0.00000  Uiso   1.00
H123   H     0.13219   0.67106   0.03621   0.00000  Uiso   1.00
H124   H     0.15904   0.79541   0.98629   0.00000  Uiso   1.00
H125   H     0.01085   0.75452   0.02068   0.00000  Uiso   1.00
H126   H     0.20665   0.44518   0.08580   0.00000  Uiso   1.00
H127   H     0.22032   0.96184   0.95593   0.00000  Uiso   1.00
H128   H     0.90787   0.87558   0.02846   0.00000  Uiso   1.00
H129   H     0.32075   0.22328   0.16577   0.00000  Uiso   1.00
O130   O     0.34643   0.14176   0.00900   0.00000  Uiso   1.00
O131   O     0.93652   0.02857   0.10416   0.00000  Uiso   1.00
O132   O     0.47820   0.17277   0.28431   0.00000  Uiso   1.00
N133   N     0.37583   0.08870   0.08886   0.00000  Uiso   1.00
N134   N     0.08370   0.00808   0.15667   0.00000  Uiso   1.00
N135   N     0.46970   0.39822   0.28504   0.00000  Uiso   1.00
N136   N     0.26381   0.98741   0.00014   0.00000  Uiso   1.00
N137   N     0.97169   0.90678   0.06794   0.00000  Uiso   1.00
N138   N     0.35768   0.29692   0.19632   0.00000  Uiso   1.00
C139   C     0.81963   0.34057   0.18466   0.00000  Uiso   1.00
C140   C     0.80775   0.38419   0.13658   0.00000  Uiso   1.00
C141   C     0.86015   0.47730   0.14557   0.00000  Uiso   1.00
C142   C     0.83845   0.50345   0.09583   0.00000  Uiso   1.00
C143   C     0.83086   0.58107   0.02978   0.00000  Uiso   1.00
C144   C     0.72724   0.36198   0.15526   0.00000  Uiso   1.00
C145   C     0.71195   0.43641   0.17997   0.00000  Uiso   1.00
C146   C     0.62246   0.44386   0.14595   0.00000  Uiso   1.00
C147   C     0.48988   0.48693   0.10893   0.00000  Uiso   1.00
C148   C     0.83363   0.19392   0.19064   0.00000  Uiso   1.00
C149   C     0.90777   0.12702   0.24510   0.00000  Uiso   1.00
C150   C     0.90785   0.99296   0.24087   0.00000  Uiso   1.00
C151   C     0.94045   0.77508   0.25878   0.00000  Uiso   1.00
C152   C     0.68790   0.22144   0.08033   0.00000  Uiso   1.00
C153   C     0.73620   0.31948   0.07991   0.00000  Uiso   1.00
C154   C     0.71441   0.34550   0.03014   0.00000  Uiso   1.00
C155   C     0.76677   0.43863   0.03905   0.00000  Uiso   1.00
C156   C     0.65569   0.29728   0.09859   0.00000  Uiso   1.00
C157   C     0.56620   0.30461   0.06453   0.00000  Uiso   1.00
C158   C     0.55078   0.37904   0.08918   0.00000  Uiso   1.00
C159   C     0.76208   0.12921   0.13397   0.00000  Uiso   1.00
C160   C     0.76203   0.99522   0.12966   0.00000  Uiso   1.00
C161   C     0.83617   0.92814   0.18410   0.00000  Uiso   1.00
H162   H     0.87533   0.39095   0.22878   0.00000  Uiso   1.00
H163   H     0.91552   0.52736   0.18944   0.00000  Uiso   1.00
H164   H     0.76733   0.48646   0.22383   0.00000  Uiso   1.00
H165   H     0.96313   0.17712   0.28894   0.00000  Uiso   1.00
H166   H     0.92849   0.65009   0.12081   0.00000  Uiso   1.00
H167   H     0.61604   0.56383   0.19334   0.00000  Uiso   1.00
H168   H     0.02892   0.91153   0.33065   0.00000  Uiso   1.00
H169   H     0.63219   0.17106   0.03621   0.00000  Uiso   1.00
H170   H     0.65904   0.29541   0.98629   0.00000  Uiso   1.00
H171   H     0.51085   0.25452   0.02068   0.00000  Uiso   1.00
H172   H     0.70665   0.94518   0.08580   0.00000  Uiso   1.00
H173   H     0.72032   0.46184   0.95593   0.00000  Uiso   1.00
H174   H     0.40787   0.37558   0.02846   0.00000  Uiso   1.00
H175   H     0.82075   0.72328   0.16577   0.00000  Uiso   1.00
O176   O     0.84643   0.64176   0.00900   0.00000  Uiso   1.00
O177   O     0.43652   0.52857   0.10416   0.00000  Uiso   1.00
O178   O     0.97820   0.67277   0.28431   0.00000  Uiso   1.00
N179   N     0.87583   0.58870   0.08886   0.00000  Uiso   1.00
N180   N     0.58370   0.50808   0.15667   0.00000  Uiso   1.00
N181   N     0.96970   0.89822   0.28504   0.00000  Uiso   1.00
N182   N     0.76381   0.48741   0.00014   0.00000  Uiso   1.00
N183   N     0.47169   0.40678   0.06794   0.00000  Uiso   1.00
N184   N     0.85768   0.79692   0.19632   0.00000  Uiso   1.00
C185   C     0.31963   0.15943   0.68466   0.00000  Uiso   1.00
C186   C     0.30775   0.11581   0.63658   0.00000  Uiso   1.00
C187   C     0.36015   0.02270   0.64557   0.00000  Uiso   1.00
C188   C     0.33845   0.99655   0.59583   0.00000  Uiso   1.00
C189   C     0.33086   0.91893   0.52978   0.00000  Uiso   1.00
C190   C     0.22724   0.13802   0.65526   0.00000  Uiso   1.00
C191   C     0.21195   0.06359   0.67997   0.00000  Uiso   1.00
C192   C     0.12246   0.05614   0.64595   0.00000  Uiso   1.00
C193   C     0.98988   0.01307   0.60893   0.00000  Uiso   1.00
C194   C     0.33363   0.30608   0.69064   0.00000  Uiso   1.00
C195   C     0.40777   0.37298   0.74510   0.00000  Uiso   1.00
C196   C     0.40785   0.50704   0.74087   0.00000  Uiso   1.00
C197   C     0.44045   0.72492   0.75878   0.00000  Uiso   1.00
C198   C     0.18790   0.27856   0.58033   0.00000  Uiso   1.00
C199   C     0.23620   0.18052   0.57991   0.00000  Uiso   1.00
C200   C     0.21441   0.15450   0.53014   0.00000  Uiso   1.00
C201   C     0.26677   0.06137   0.53905   0.00000  Uiso   1.00
C202   C     0.15569   0.20272   0.59859   0.00000  Uiso   1.00
C203   C     0.06620   0.19539   0.56453   0.00000  Uiso   1.00
C204   C     0.05078   0.12096   0.58918   0.00000  Uiso   1.00
C205   C     0.26208   0.37079   0.63397   0.00000  Uiso   1.00
C206   C     0.26203   0.50478   0.62966   0.00000  Uiso   1.00
C207   C     0.33617   0.57186   0.68410   0.00000  Uiso   1.00
H208   H     0.37533   0.10905   0.72878   0.00000  Uiso   1.00
H209   H     0.41552   0.97264   0.68944   0.00000  Uiso   1.00
H210   H     0.26733   0.01354   0.72383   0.00000  Uiso   1.00
H211   H     0.46313   0.32288   0.78894   0.00000  Uiso   1.00
H212   H     0.42849   0.84991   0.62081   0.00000  Uiso   1.00
H213   H     0.11604   0.93617   0.69334   0.00000  Uiso   1.00
H214   H     0.52892   0.58847   0.83065   0.00000  Uiso   1.00
H215   H     0.13219   0.32894   0.53621   0.00000  Uiso   1.00
H216   H     0.15904   0.20459   0.48629   0.00000  Uiso   1.00
H217   H     0.01085   0.24548   0.52068   0.00000  Uiso   1.00
H218   H     0.20665   0.55482   0.58580   0.00000  Uiso   1.00
H219   H     0.22032   0.03816   0.45593   0.00000  Uiso   1.00
H220   H     0.90787   0.12442   0.52846   0.00000  Uiso   1.00
H221   H     0.32075   0.77672   0.66577   0.00000  Uiso   1.00
O222   O     0.34643   0.85824   0.50900   0.00000  Uiso   1.00
O223   O     0.93652   0.97143   0.60416   0.00000  Uiso   1.00
O224   O     0.47820   0.82723   0.78431   0.00000  Uiso   1.00
N225   N     0.37583   0.91130   0.58886   0.00000  Uiso   1.00
N226   N     0.08370   0.99192   0.65667   0.00000  Uiso   1.00
N227   N     0.46970   0.60178   0.78504   0.00000  Uiso   1.00
N228   N     0.26381   0.01259   0.50014   0.00000  Uiso   1.00
N229   N     0.97169   0.09322   0.56794   0.00000  Uiso   1.00
N230   N     0.35768   0.70308   0.69632   0.00000  Uiso   1.00
C231   C     0.81963   0.65943   0.68466   0.00000  Uiso   1.00
C232   C     0.80775   0.61581   0.63658   0.00000  Uiso   1.00
C233   C     0.86015   0.52270   0.64557   0.00000  Uiso   1.00
C234   C     0.83845   0.49655   0.59583   0.00000  Uiso   1.00
C235   C     0.83086   0.41893   0.52978   0.00000  Uiso   1.00
C236   C     0.72724   0.63802   0.65526   0.00000  Uiso   1.00
C237   C     0.71195   0.56359   0.67997   0.00000  Uiso   1.00
C238   C     0.62246   0.55614   0.64595   0.00000  Uiso   1.00
C239   C     0.48988   0.51307   0.60893   0.00000  Uiso   1.00
C240   C     0.83363   0.80608   0.69064   0.00000  Uiso   1.00
C241   C     0.90777   0.87298   0.74510   0.00000  Uiso   1.00
C242   C     0.90785   0.00704   0.74087   0.00000  Uiso   1.00
C243   C     0.94045   0.22492   0.75878   0.00000  Uiso   1.00
C244   C     0.68790   0.77856   0.58033   0.00000  Uiso   1.00
C245   C     0.73620   0.68052   0.57991   0.00000  Uiso   1.00
C246   C     0.71441   0.65450   0.53014   0.00000  Uiso   1.00
C247   C     0.76677   0.56137   0.53905   0.00000  Uiso   1.00
C248   C     0.65569   0.70272   0.59859   0.00000  Uiso   1.00
C249   C     0.56620   0.69539   0.56453   0.00000  Uiso   1.00
C250   C     0.55078   0.62096   0.58918   0.00000  Uiso   1.00
C251   C     0.76208   0.87079   0.63397   0.00000  Uiso   1.00
C252   C     0.76203   0.00478   0.62966   0.00000  Uiso   1.00
C253   C     0.83617   0.07186   0.68410   0.00000  Uiso   1.00
H254   H     0.87533   0.60905   0.72878   0.00000  Uiso   1.00
H255   H     0.91552   0.47264   0.68944   0.00000  Uiso   1.00
H256   H     0.76733   0.51354   0.72383   0.00000  Uiso   1.00
H257   H     0.96313   0.82288   0.78894   0.00000  Uiso   1.00
H258   H     0.92849   0.34991   0.62081   0.00000  Uiso   1.00
H259   H     0.61604   0.43617   0.69334   0.00000  Uiso   1.00
H260   H     0.02892   0.08847   0.83065   0.00000  Uiso   1.00
H261   H     0.63219   0.82894   0.53621   0.00000  Uiso   1.00
H262   H     0.65904   0.70459   0.48629   0.00000  Uiso   1.00
H263   H     0.51085   0.74548   0.52068   0.00000  Uiso   1.00
H264   H     0.70665   0.05482   0.58580   0.00000  Uiso   1.00
H265   H     0.72032   0.53816   0.45593   0.00000  Uiso   1.00
H266   H     0.40787   0.62442   0.52846   0.00000  Uiso   1.00
H267   H     0.82075   0.27672   0.66577   0.00000  Uiso   1.00
O268   O     0.84643   0.35824   0.50900   0.00000  Uiso   1.00
O269   O     0.43652   0.47143   0.60416   0.00000  Uiso   1.00
O270   O     0.97820   0.32723   0.78431   0.00000  Uiso   1.00
N271   N     0.87583   0.41130   0.58886   0.00000  Uiso   1.00
N272   N     0.58370   0.49192   0.65667   0.00000  Uiso   1.00
N273   N     0.96970   0.10178   0.78504   0.00000  Uiso   1.00
N274   N     0.76381   0.51259   0.50014   0.00000  Uiso   1.00
N275   N     0.47169   0.59322   0.56794   0.00000  Uiso   1.00
N276   N     0.85768   0.20308   0.69632   0.00000  Uiso   1.00
C277   C     0.68037   0.15943   0.81534   0.00000  Uiso   1.00
C278   C     0.69225   0.11581   0.86342   0.00000  Uiso   1.00
C279   C     0.63985   0.02270   0.85443   0.00000  Uiso   1.00
C280   C     0.66155   0.99655   0.90417   0.00000  Uiso   1.00
C281   C     0.66914   0.91893   0.97022   0.00000  Uiso   1.00
C282   C     0.77276   0.13802   0.84474   0.00000  Uiso   1.00
C283   C     0.78805   0.06359   0.82003   0.00000  Uiso   1.00
C284   C     0.87754   0.05614   0.85405   0.00000  Uiso   1.00
C285   C     0.01012   0.01307   0.89107   0.00000  Uiso   1.00
C286   C     0.66637   0.30608   0.80936   0.00000  Uiso   1.00
C287   C     0.59223   0.37298   0.75490   0.00000  Uiso   1.00
C288   C     0.59215   0.50704   0.75913   0.00000  Uiso   1.00
C289   C     0.55955   0.72492   0.74122   0.00000  Uiso   1.00
C290   C     0.81210   0.27856   0.91967   0.00000  Uiso   1.00
C291   C     0.76380   0.18052   0.92009   0.00000  Uiso   1.00
C292   C     0.78559   0.15450   0.96986   0.00000  Uiso   1.00
C293   C     0.73323   0.06137   0.96095   0.00000  Uiso   1.00
C294   C     0.84431   0.20272   0.90141   0.00000  Uiso   1.00
C295   C     0.93380   0.19539   0.93547   0.00000  Uiso   1.00
C296   C     0.94922   0.12096   0.91082   0.00000  Uiso   1.00
C297   C     0.73792   0.37079   0.86603   0.00000  Uiso   1.00
C298   C     0.73797   0.50478   0.87034   0.00000  Uiso   1.00
C299   C     0.66383   0.57186   0.81590   0.00000  Uiso   1.00
H300   H     0.62467   0.10905   0.77122   0.00000  Uiso   1.00
H301   H     0.58448   0.97264   0.81056   0.00000  Uiso   1.00
H302   H     0.73267   0.01354   0.77617   0.00000  Uiso   1.00
H303   H     0.53687   0.32288   0.71106   0.00000  Uiso   1.00
H304   H     0.57151   0.84991   0.87919   0.00000  Uiso   1.00
H305   H     0.88396   0.93617   0.80666   0.00000  Uiso   1.00
H306   H     0.47108   0.58847   0.66935   0.00000  Uiso   1.00
H307   H     0.86781   0.32894   0.96379   0.00000  Uiso   1.00
H308   H     0.84096   0.20459   0.01371   0.00000  Uiso   1.00
H309   H     0.98915   0.24548   0.97932   0.00000  Uiso   1.00
H310   H     0.79335   0.55482   0.91420   0.00000  Uiso   1.00
H311   H     0.77968   0.03816   0.04407   0.00000  Uiso   1.00
H312   H     0.09213   0.12442   0.97154   0.00000  Uiso   1.00
H313   H     0.67925   0.77672   0.83423   0.00000  Uiso   1.00
O314   O     0.65357   0.85824   0.99100   0.00000  Uiso   1.00
O315   O     0.06348   0.97143   0.89584   0.00000  Uiso   1.00
O316   O     0.52180   0.82723   0.71569   0.00000  Uiso   1.00
N317   N     0.62417   0.91130   0.91114   0.00000  Uiso   1.00
N318   N     0.91630   0.99192   0.84333   0.00000  Uiso   1.00
N319   N     0.53030   0.60178   0.71496   0.00000  Uiso   1.00
N320   N     0.73619   0.01259   0.99986   0.00000  Uiso   1.00
N321   N     0.02831   0.09322   0.93206   0.00000  Uiso   1.00
N322   N     0.64232   0.70308   0.80368   0.00000  Uiso   1.00
C323   C     0.18037   0.65943   0.81534   0.00000  Uiso   1.00
C324   C     0.19225   0.61581   0.86342   0.00000  Uiso   1.00
C325   C     0.13985   0.52270   0.85443   0.00000  Uiso   1.00
C326   C     0.16155   0.49655   0.90417   0.00000  Uiso   1.00
C327   C     0.16914   0.41893   0.97022   0.00000  Uiso   1.00
C328   C     0.27276   0.63802   0.84474   0.00000  Uiso   1.00
C329   C     0.28805   0.56359   0.82003   0.00000  Uiso   1.00
C330   C     0.37754   0.55614   0.85405   0.00000  Uiso   1.00
C331   C     0.51012   0.51307   0.89107   0.00000  Uiso   1.00
C332   C     0.16637   0.80608   0.80936   0.00000  Uiso   1.00
C333   C     0.09223   0.87298   0.75490   0.00000  Uiso   1.00
C334   C     0.09215   0.00704   0.75913   0.00000  Uiso   1.00
C335   C     0.05955   0.22492   0.74122   0.00000  Uiso   1.00
C336   C     0.31210   0.77856   0.91967   0.00000  Uiso   1.00
C337   C     0.26380   0.68052   0.92009   0.00000  Uiso   1.00
C338   C     0.28559   0.65450   0.96986   0.00000  Uiso   1.00
C339   C     0.23323   0.56137   0.96095   0.00000  Uiso   1.00
C340   C     0.34431   0.70272   0.90141   0.00000  Uiso   1.00
C341   C     0.43380   0.69539   0.93547   0.00000  Uiso   1.00
C342   C     0.44922   0.62096   0.91082   0.00000  Uiso   1.00
C343   C     0.23792   0.87079   0.86603   0.00000  Uiso   1.00
C344   C     0.23797   0.00478   0.87034   0.00000  Uiso   1.00
C345   C     0.16383   0.07186   0.81590   0.00000  Uiso   1.00
H346   H     0.12467   0.60905   0.77122   0.00000  Uiso   1.00
H347   H     0.08448   0.47264   0.81056   0.00000  Uiso   1.00
H348   H     0.23267   0.51354   0.77617   0.00000  Uiso   1.00
H349   H     0.03687   0.82288   0.71106   0.00000  Uiso   1.00
H350   H     0.07151   0.34991   0.87919   0.00000  Uiso   1.00
H351   H     0.38396   0.43617   0.80666   0.00000  Uiso   1.00
H352   H     0.97108   0.08847   0.66935   0.00000  Uiso   1.00
H353   H     0.36781   0.82894   0.96379   0.00000  Uiso   1.00
H354   H     0.34096   0.70459   0.01371   0.00000  Uiso   1.00
H355   H     0.48915   0.74548   0.97932   0.00000  Uiso   1.00
H356   H     0.29335   0.05482   0.91420   0.00000  Uiso   1.00
H357   H     0.27968   0.53816   0.04407   0.00000  Uiso   1.00
H358   H     0.59213   0.62442   0.97154   0.00000  Uiso   1.00
H359   H     0.17925   0.27672   0.83423   0.00000  Uiso   1.00
O360   O     0.15357   0.35824   0.99100   0.00000  Uiso   1.00
O361   O     0.56348   0.47143   0.89584   0.00000  Uiso   1.00
O362   O     0.02180   0.32723   0.71569   0.00000  Uiso   1.00
N363   N     0.12417   0.41130   0.91114   0.00000  Uiso   1.00
N364   N     0.41630   0.49192   0.84333   0.00000  Uiso   1.00
N365   N     0.03030   0.10178   0.71496   0.00000  Uiso   1.00
N366   N     0.23619   0.51259   0.99986   0.00000  Uiso   1.00
N367   N     0.52831   0.59322   0.93206   0.00000  Uiso   1.00
N368   N     0.14232   0.20308   0.80368   0.00000  Uiso   1.00
