data_job_03889
_audit_creation_date              2018-12-19
_audit_creation_method            'Materials Studio'
_symmetry_space_group_name_H-M    'P1'
_symmetry_Int_Tables_number       1
_symmetry_cell_setting            triclinic
loop_
_symmetry_equiv_pos_as_xyz
  x,y,z
_cell_length_a                    32.9959
_cell_length_b                    8.8686
_cell_length_c                    23.9791
_cell_angle_alpha                 90.0000
_cell_angle_beta                  90.0000
_cell_angle_gamma                 90.0000
loop_
_atom_site_label
_atom_site_type_symbol
_atom_site_fract_x
_atom_site_fract_y
_atom_site_fract_z
_atom_site_U_iso_or_equiv
_atom_site_adp_type
_atom_site_occupancy
C1     C     0.38890   0.27544   0.06419   0.00000  Uiso   1.00
C2     C     0.41121   0.42247   0.05217   0.00000  Uiso   1.00
C3     C     0.45170   0.45118   0.06369   0.00000  Uiso   1.00
C4     C     0.46641   0.59276   0.04952   0.00000  Uiso   1.00
C5     C     0.50485   0.80452   0.03466   0.00000  Uiso   1.00
C6     C     0.35271   0.31765   0.10053   0.00000  Uiso   1.00
C7     C     0.34400   0.25821   0.15271   0.00000  Uiso   1.00
C8     C     0.30946   0.31155   0.17925   0.00000  Uiso   1.00
C9     C     0.25705   0.36050   0.23945   0.00000  Uiso   1.00
C10    C     0.37134   0.22353   0.00859   0.00000  Uiso   1.00
C11    C     0.37829   0.08494   0.98347   0.00000  Uiso   1.00
C12    C     0.35942   0.05902   0.93261   0.00000  Uiso   1.00
C13    C     0.33593   0.96184   0.85005   0.00000  Uiso   1.00
C14    C     0.34303   0.47583   0.01853   0.00000  Uiso   1.00
C15    C     0.38630   0.53131   0.02737   0.00000  Uiso   1.00
C16    C     0.40095   0.67289   0.01318   0.00000  Uiso   1.00
C17    C     0.44145   0.70180   0.02468   0.00000  Uiso   1.00
C18    C     0.32779   0.42649   0.07573   0.00000  Uiso   1.00
C19    C     0.29325   0.47992   0.10220   0.00000  Uiso   1.00
C20    C     0.28450   0.42059   0.15441   0.00000  Uiso   1.00
C21    C     0.34642   0.33238   0.98379   0.00000  Uiso   1.00
C22    C     0.32754   0.30666   0.93296   0.00000  Uiso   1.00
C23    C     0.33446   0.16806   0.90776   0.00000  Uiso   1.00
H24    H     0.40829   0.19070   0.08350   0.00000  Uiso   1.00
H25    H     0.47097   0.36692   0.08289   0.00000  Uiso   1.00
H26    H     0.36329   0.17397   0.17189   0.00000  Uiso   1.00
H27    H     0.39757   0.00074   0.00267   0.00000  Uiso   1.00
H28    H     0.52947   0.61031   0.07129   0.00000  Uiso   1.00
H29    H     0.30241   0.20344   0.25895   0.00000  Uiso   1.00
H30    H     0.37469   0.83813   0.90213   0.00000  Uiso   1.00
H31    H     0.32363   0.56057   0.99923   0.00000  Uiso   1.00
H32    H     0.38166   0.75709   0.99399   0.00000  Uiso   1.00
H33    H     0.27398   0.56414   0.08299   0.00000  Uiso   1.00
H34    H     0.30826   0.39091   0.91378   0.00000  Uiso   1.00
H35    H     0.45698   0.92699   0.99914   0.00000  Uiso   1.00
H36    H     0.22992   0.52011   0.18680   0.00000  Uiso   1.00
H37    H     0.30221   0.15481   0.82998   0.00000  Uiso   1.00
O38    O     0.53293   0.89127   0.03331   0.00000  Uiso   1.00
O39    O     0.23503   0.35744   0.27951   0.00000  Uiso   1.00
O40    O     0.32987   0.87818   0.81136   0.00000  Uiso   1.00
N41    N     0.50445   0.65786   0.05502   0.00000  Uiso   1.00
N42    N     0.29216   0.27748   0.23048   0.00000  Uiso   1.00
N43    N     0.35973   0.93593   0.89688   0.00000  Uiso   1.00
N44    N     0.46544   0.82826   0.01620   0.00000  Uiso   1.00
N45    N     0.25316   0.44788   0.19165   0.00000  Uiso   1.00
N46    N     0.32073   0.10633   0.85806   0.00000  Uiso   1.00
C47    C     0.11110   0.22456   0.56419   0.00000  Uiso   1.00
C48    C     0.08879   0.07753   0.55217   0.00000  Uiso   1.00
C49    C     0.04830   0.04882   0.56369   0.00000  Uiso   1.00
C50    C     0.03359   0.90724   0.54952   0.00000  Uiso   1.00
C51    C     0.99515   0.69548   0.53466   0.00000  Uiso   1.00
C52    C     0.14729   0.18235   0.60053   0.00000  Uiso   1.00
C53    C     0.15600   0.24179   0.65271   0.00000  Uiso   1.00
C54    C     0.19054   0.18845   0.67925   0.00000  Uiso   1.00
C55    C     0.24295   0.13950   0.73945   0.00000  Uiso   1.00
C56    C     0.12866   0.27647   0.50859   0.00000  Uiso   1.00
C57    C     0.12171   0.41506   0.48347   0.00000  Uiso   1.00
C58    C     0.14058   0.44098   0.43261   0.00000  Uiso   1.00
C59    C     0.16407   0.53816   0.35005   0.00000  Uiso   1.00
C60    C     0.15697   0.02417   0.51853   0.00000  Uiso   1.00
C61    C     0.11370   0.96869   0.52737   0.00000  Uiso   1.00
C62    C     0.09905   0.82711   0.51318   0.00000  Uiso   1.00
C63    C     0.05855   0.79820   0.52468   0.00000  Uiso   1.00
C64    C     0.17221   0.07351   0.57573   0.00000  Uiso   1.00
C65    C     0.20675   0.02008   0.60220   0.00000  Uiso   1.00
C66    C     0.21550   0.07941   0.65441   0.00000  Uiso   1.00
C67    C     0.15358   0.16762   0.48379   0.00000  Uiso   1.00
C68    C     0.17246   0.19334   0.43296   0.00000  Uiso   1.00
C69    C     0.16554   0.33194   0.40776   0.00000  Uiso   1.00
H70    H     0.09171   0.30930   0.58350   0.00000  Uiso   1.00
H71    H     0.02903   0.13308   0.58289   0.00000  Uiso   1.00
H72    H     0.13671   0.32603   0.67189   0.00000  Uiso   1.00
H73    H     0.10243   0.49926   0.50267   0.00000  Uiso   1.00
H74    H     0.97053   0.88969   0.57129   0.00000  Uiso   1.00
H75    H     0.19759   0.29656   0.75895   0.00000  Uiso   1.00
H76    H     0.12531   0.66187   0.40213   0.00000  Uiso   1.00
H77    H     0.17637   0.93943   0.49923   0.00000  Uiso   1.00
H78    H     0.11834   0.74291   0.49399   0.00000  Uiso   1.00
H79    H     0.22602   0.93586   0.58299   0.00000  Uiso   1.00
H80    H     0.19174   0.10909   0.41378   0.00000  Uiso   1.00
H81    H     0.04302   0.57301   0.49914   0.00000  Uiso   1.00
H82    H     0.27008   0.97989   0.68680   0.00000  Uiso   1.00
H83    H     0.19779   0.34519   0.32998   0.00000  Uiso   1.00
O84    O     0.96707   0.60873   0.53331   0.00000  Uiso   1.00
O85    O     0.26497   0.14256   0.77951   0.00000  Uiso   1.00
O86    O     0.17013   0.62182   0.31136   0.00000  Uiso   1.00
N87    N     0.99555   0.84214   0.55502   0.00000  Uiso   1.00
N88    N     0.20784   0.22252   0.73048   0.00000  Uiso   1.00
N89    N     0.14027   0.56407   0.39688   0.00000  Uiso   1.00
N90    N     0.03456   0.67174   0.51620   0.00000  Uiso   1.00
N91    N     0.24684   0.05212   0.69165   0.00000  Uiso   1.00
N92    N     0.17927   0.39367   0.35806   0.00000  Uiso   1.00
C93    C     0.61110   0.27544   0.43581   0.00000  Uiso   1.00
C94    C     0.58879   0.42247   0.44783   0.00000  Uiso   1.00
C95    C     0.54830   0.45118   0.43631   0.00000  Uiso   1.00
C96    C     0.53359   0.59276   0.45048   0.00000  Uiso   1.00
C97    C     0.49515   0.80452   0.46534   0.00000  Uiso   1.00
C98    C     0.64729   0.31765   0.39947   0.00000  Uiso   1.00
C99    C     0.65600   0.25821   0.34729   0.00000  Uiso   1.00
C100   C     0.69054   0.31155   0.32075   0.00000  Uiso   1.00
C101   C     0.74295   0.36050   0.26055   0.00000  Uiso   1.00
C102   C     0.62866   0.22353   0.49141   0.00000  Uiso   1.00
C103   C     0.62171   0.08494   0.51653   0.00000  Uiso   1.00
C104   C     0.64058   0.05902   0.56739   0.00000  Uiso   1.00
C105   C     0.66407   0.96184   0.64995   0.00000  Uiso   1.00
C106   C     0.65697   0.47583   0.48147   0.00000  Uiso   1.00
C107   C     0.61370   0.53131   0.47263   0.00000  Uiso   1.00
C108   C     0.59905   0.67289   0.48682   0.00000  Uiso   1.00
C109   C     0.55855   0.70180   0.47532   0.00000  Uiso   1.00
C110   C     0.67221   0.42649   0.42427   0.00000  Uiso   1.00
C111   C     0.70675   0.47992   0.39780   0.00000  Uiso   1.00
C112   C     0.71550   0.42059   0.34559   0.00000  Uiso   1.00
C113   C     0.65358   0.33238   0.51621   0.00000  Uiso   1.00
C114   C     0.67246   0.30666   0.56704   0.00000  Uiso   1.00
C115   C     0.66554   0.16806   0.59224   0.00000  Uiso   1.00
H116   H     0.59171   0.19070   0.41650   0.00000  Uiso   1.00
H117   H     0.52903   0.36692   0.41711   0.00000  Uiso   1.00
H118   H     0.63671   0.17397   0.32811   0.00000  Uiso   1.00
H119   H     0.60243   0.00074   0.49733   0.00000  Uiso   1.00
H120   H     0.47053   0.61031   0.42871   0.00000  Uiso   1.00
H121   H     0.69759   0.20344   0.24105   0.00000  Uiso   1.00
H122   H     0.62531   0.83813   0.59787   0.00000  Uiso   1.00
H123   H     0.67637   0.56057   0.50077   0.00000  Uiso   1.00
H124   H     0.61834   0.75709   0.50601   0.00000  Uiso   1.00
H125   H     0.72602   0.56414   0.41701   0.00000  Uiso   1.00
H126   H     0.69174   0.39091   0.58622   0.00000  Uiso   1.00
H127   H     0.54302   0.92699   0.50086   0.00000  Uiso   1.00
H128   H     0.77008   0.52011   0.31320   0.00000  Uiso   1.00
H129   H     0.69779   0.15481   0.67002   0.00000  Uiso   1.00
O130   O     0.46707   0.89127   0.46669   0.00000  Uiso   1.00
O131   O     0.76497   0.35744   0.22049   0.00000  Uiso   1.00
O132   O     0.67013   0.87818   0.68864   0.00000  Uiso   1.00
N133   N     0.49555   0.65786   0.44498   0.00000  Uiso   1.00
N134   N     0.70784   0.27748   0.26952   0.00000  Uiso   1.00
N135   N     0.64027   0.93593   0.60312   0.00000  Uiso   1.00
N136   N     0.53456   0.82826   0.48380   0.00000  Uiso   1.00
N137   N     0.74684   0.44788   0.30835   0.00000  Uiso   1.00
N138   N     0.67927   0.10633   0.64194   0.00000  Uiso   1.00
C139   C     0.88890   0.22456   0.93581   0.00000  Uiso   1.00
C140   C     0.91121   0.07753   0.94783   0.00000  Uiso   1.00
C141   C     0.95170   0.04882   0.93631   0.00000  Uiso   1.00
C142   C     0.96641   0.90724   0.95048   0.00000  Uiso   1.00
C143   C     0.00485   0.69548   0.96534   0.00000  Uiso   1.00
C144   C     0.85271   0.18235   0.89947   0.00000  Uiso   1.00
C145   C     0.84400   0.24179   0.84729   0.00000  Uiso   1.00
C146   C     0.80946   0.18845   0.82075   0.00000  Uiso   1.00
C147   C     0.75705   0.13950   0.76055   0.00000  Uiso   1.00
C148   C     0.87134   0.27647   0.99141   0.00000  Uiso   1.00
C149   C     0.87829   0.41506   0.01653   0.00000  Uiso   1.00
C150   C     0.85942   0.44098   0.06739   0.00000  Uiso   1.00
C151   C     0.83593   0.53816   0.14995   0.00000  Uiso   1.00
C152   C     0.84303   0.02417   0.98147   0.00000  Uiso   1.00
C153   C     0.88630   0.96869   0.97263   0.00000  Uiso   1.00
C154   C     0.90095   0.82711   0.98682   0.00000  Uiso   1.00
C155   C     0.94145   0.79820   0.97532   0.00000  Uiso   1.00
C156   C     0.82779   0.07351   0.92427   0.00000  Uiso   1.00
C157   C     0.79325   0.02008   0.89780   0.00000  Uiso   1.00
C158   C     0.78450   0.07941   0.84559   0.00000  Uiso   1.00
C159   C     0.84642   0.16762   0.01621   0.00000  Uiso   1.00
C160   C     0.82754   0.19334   0.06704   0.00000  Uiso   1.00
C161   C     0.83446   0.33194   0.09224   0.00000  Uiso   1.00
H162   H     0.90829   0.30930   0.91650   0.00000  Uiso   1.00
H163   H     0.97097   0.13308   0.91711   0.00000  Uiso   1.00
H164   H     0.86329   0.32603   0.82811   0.00000  Uiso   1.00
H165   H     0.89757   0.49926   0.99733   0.00000  Uiso   1.00
H166   H     0.02947   0.88969   0.92871   0.00000  Uiso   1.00
H167   H     0.80241   0.29656   0.74105   0.00000  Uiso   1.00
H168   H     0.87469   0.66187   0.09787   0.00000  Uiso   1.00
H169   H     0.82363   0.93943   0.00077   0.00000  Uiso   1.00
H170   H     0.88166   0.74291   0.00601   0.00000  Uiso   1.00
H171   H     0.77398   0.93586   0.91701   0.00000  Uiso   1.00
H172   H     0.80826   0.10909   0.08622   0.00000  Uiso   1.00
H173   H     0.95698   0.57301   0.00086   0.00000  Uiso   1.00
H174   H     0.72992   0.97989   0.81320   0.00000  Uiso   1.00
H175   H     0.80221   0.34519   0.17002   0.00000  Uiso   1.00
O176   O     0.03293   0.60873   0.96669   0.00000  Uiso   1.00
O177   O     0.73503   0.14256   0.72049   0.00000  Uiso   1.00
O178   O     0.82987   0.62182   0.18864   0.00000  Uiso   1.00
N179   N     0.00445   0.84214   0.94498   0.00000  Uiso   1.00
N180   N     0.79216   0.22252   0.76952   0.00000  Uiso   1.00
N181   N     0.85973   0.56407   0.10312   0.00000  Uiso   1.00
N182   N     0.96544   0.67174   0.98380   0.00000  Uiso   1.00
N183   N     0.75316   0.05212   0.80835   0.00000  Uiso   1.00
N184   N     0.82073   0.39367   0.14194   0.00000  Uiso   1.00
C185   C     0.61110   0.72456   0.93581   0.00000  Uiso   1.00
C186   C     0.58879   0.57753   0.94783   0.00000  Uiso   1.00
C187   C     0.54830   0.54882   0.93631   0.00000  Uiso   1.00
C188   C     0.53359   0.40724   0.95048   0.00000  Uiso   1.00
C189   C     0.49515   0.19548   0.96534   0.00000  Uiso   1.00
C190   C     0.64729   0.68235   0.89947   0.00000  Uiso   1.00
C191   C     0.65600   0.74179   0.84729   0.00000  Uiso   1.00
C192   C     0.69054   0.68845   0.82075   0.00000  Uiso   1.00
C193   C     0.74295   0.63950   0.76055   0.00000  Uiso   1.00
C194   C     0.62866   0.77647   0.99141   0.00000  Uiso   1.00
C195   C     0.62171   0.91506   0.01653   0.00000  Uiso   1.00
C196   C     0.64058   0.94098   0.06739   0.00000  Uiso   1.00
C197   C     0.66407   0.03816   0.14995   0.00000  Uiso   1.00
C198   C     0.65697   0.52417   0.98147   0.00000  Uiso   1.00
C199   C     0.61370   0.46869   0.97263   0.00000  Uiso   1.00
C200   C     0.59905   0.32711   0.98682   0.00000  Uiso   1.00
C201   C     0.55855   0.29820   0.97532   0.00000  Uiso   1.00
C202   C     0.67221   0.57351   0.92427   0.00000  Uiso   1.00
C203   C     0.70675   0.52008   0.89780   0.00000  Uiso   1.00
C204   C     0.71550   0.57941   0.84559   0.00000  Uiso   1.00
C205   C     0.65358   0.66762   0.01621   0.00000  Uiso   1.00
C206   C     0.67246   0.69334   0.06704   0.00000  Uiso   1.00
C207   C     0.66554   0.83194   0.09224   0.00000  Uiso   1.00
H208   H     0.59171   0.80930   0.91650   0.00000  Uiso   1.00
H209   H     0.52903   0.63308   0.91711   0.00000  Uiso   1.00
H210   H     0.63671   0.82603   0.82811   0.00000  Uiso   1.00
H211   H     0.60243   0.99926   0.99733   0.00000  Uiso   1.00
H212   H     0.47053   0.38969   0.92871   0.00000  Uiso   1.00
H213   H     0.69759   0.79656   0.74105   0.00000  Uiso   1.00
H214   H     0.62531   0.16187   0.09787   0.00000  Uiso   1.00
H215   H     0.67637   0.43943   0.00077   0.00000  Uiso   1.00
H216   H     0.61834   0.24291   0.00601   0.00000  Uiso   1.00
H217   H     0.72602   0.43586   0.91701   0.00000  Uiso   1.00
H218   H     0.69174   0.60909   0.08622   0.00000  Uiso   1.00
H219   H     0.54302   0.07301   0.00086   0.00000  Uiso   1.00
H220   H     0.77008   0.47989   0.81320   0.00000  Uiso   1.00
H221   H     0.69779   0.84519   0.17002   0.00000  Uiso   1.00
O222   O     0.46707   0.10873   0.96669   0.00000  Uiso   1.00
O223   O     0.76497   0.64256   0.72049   0.00000  Uiso   1.00
O224   O     0.67013   0.12182   0.18864   0.00000  Uiso   1.00
N225   N     0.49555   0.34214   0.94498   0.00000  Uiso   1.00
N226   N     0.70784   0.72252   0.76952   0.00000  Uiso   1.00
N227   N     0.64027   0.06407   0.10312   0.00000  Uiso   1.00
N228   N     0.53456   0.17174   0.98380   0.00000  Uiso   1.00
N229   N     0.74684   0.55212   0.80835   0.00000  Uiso   1.00
N230   N     0.67927   0.89367   0.14194   0.00000  Uiso   1.00
C231   C     0.88890   0.77544   0.43581   0.00000  Uiso   1.00
C232   C     0.91121   0.92247   0.44783   0.00000  Uiso   1.00
C233   C     0.95170   0.95118   0.43631   0.00000  Uiso   1.00
C234   C     0.96641   0.09276   0.45048   0.00000  Uiso   1.00
C235   C     0.00485   0.30452   0.46534   0.00000  Uiso   1.00
C236   C     0.85271   0.81765   0.39947   0.00000  Uiso   1.00
C237   C     0.84400   0.75821   0.34729   0.00000  Uiso   1.00
C238   C     0.80946   0.81155   0.32075   0.00000  Uiso   1.00
C239   C     0.75705   0.86050   0.26055   0.00000  Uiso   1.00
C240   C     0.87134   0.72353   0.49141   0.00000  Uiso   1.00
C241   C     0.87829   0.58494   0.51653   0.00000  Uiso   1.00
C242   C     0.85942   0.55902   0.56739   0.00000  Uiso   1.00
C243   C     0.83593   0.46184   0.64995   0.00000  Uiso   1.00
C244   C     0.84303   0.97583   0.48147   0.00000  Uiso   1.00
C245   C     0.88630   0.03131   0.47263   0.00000  Uiso   1.00
C246   C     0.90095   0.17289   0.48682   0.00000  Uiso   1.00
C247   C     0.94145   0.20180   0.47532   0.00000  Uiso   1.00
C248   C     0.82779   0.92649   0.42427   0.00000  Uiso   1.00
C249   C     0.79325   0.97992   0.39780   0.00000  Uiso   1.00
C250   C     0.78450   0.92059   0.34559   0.00000  Uiso   1.00
C251   C     0.84642   0.83238   0.51621   0.00000  Uiso   1.00
C252   C     0.82754   0.80666   0.56704   0.00000  Uiso   1.00
C253   C     0.83446   0.66806   0.59224   0.00000  Uiso   1.00
H254   H     0.90829   0.69070   0.41650   0.00000  Uiso   1.00
H255   H     0.97097   0.86692   0.41711   0.00000  Uiso   1.00
H256   H     0.86329   0.67397   0.32811   0.00000  Uiso   1.00
H257   H     0.89757   0.50074   0.49733   0.00000  Uiso   1.00
H258   H     0.02947   0.11031   0.42871   0.00000  Uiso   1.00
H259   H     0.80241   0.70344   0.24105   0.00000  Uiso   1.00
H260   H     0.87469   0.33813   0.59787   0.00000  Uiso   1.00
H261   H     0.82363   0.06057   0.50077   0.00000  Uiso   1.00
H262   H     0.88166   0.25709   0.50601   0.00000  Uiso   1.00
H263   H     0.77398   0.06414   0.41701   0.00000  Uiso   1.00
H264   H     0.80826   0.89091   0.58622   0.00000  Uiso   1.00
H265   H     0.95698   0.42699   0.50086   0.00000  Uiso   1.00
H266   H     0.72992   0.02011   0.31320   0.00000  Uiso   1.00
H267   H     0.80221   0.65481   0.67002   0.00000  Uiso   1.00
O268   O     0.03293   0.39127   0.46669   0.00000  Uiso   1.00
O269   O     0.73503   0.85744   0.22049   0.00000  Uiso   1.00
O270   O     0.82987   0.37818   0.68864   0.00000  Uiso   1.00
N271   N     0.00445   0.15786   0.44498   0.00000  Uiso   1.00
N272   N     0.79216   0.77748   0.26952   0.00000  Uiso   1.00
N273   N     0.85973   0.43593   0.60312   0.00000  Uiso   1.00
N274   N     0.96544   0.32826   0.48380   0.00000  Uiso   1.00
N275   N     0.75316   0.94788   0.30835   0.00000  Uiso   1.00
N276   N     0.82073   0.60633   0.64194   0.00000  Uiso   1.00
C277   C     0.38890   0.72456   0.56419   0.00000  Uiso   1.00
C278   C     0.41121   0.57753   0.55217   0.00000  Uiso   1.00
C279   C     0.45170   0.54882   0.56369   0.00000  Uiso   1.00
C280   C     0.46641   0.40724   0.54952   0.00000  Uiso   1.00
C281   C     0.50485   0.19548   0.53466   0.00000  Uiso   1.00
C282   C     0.35271   0.68235   0.60053   0.00000  Uiso   1.00
C283   C     0.34400   0.74179   0.65271   0.00000  Uiso   1.00
C284   C     0.30946   0.68845   0.67925   0.00000  Uiso   1.00
C285   C     0.25705   0.63950   0.73945   0.00000  Uiso   1.00
C286   C     0.37134   0.77647   0.50859   0.00000  Uiso   1.00
C287   C     0.37829   0.91506   0.48347   0.00000  Uiso   1.00
C288   C     0.35942   0.94098   0.43261   0.00000  Uiso   1.00
C289   C     0.33593   0.03816   0.35005   0.00000  Uiso   1.00
C290   C     0.34303   0.52417   0.51853   0.00000  Uiso   1.00
C291   C     0.38630   0.46869   0.52737   0.00000  Uiso   1.00
C292   C     0.40095   0.32711   0.51318   0.00000  Uiso   1.00
C293   C     0.44145   0.29820   0.52468   0.00000  Uiso   1.00
C294   C     0.32779   0.57351   0.57573   0.00000  Uiso   1.00
C295   C     0.29325   0.52008   0.60220   0.00000  Uiso   1.00
C296   C     0.28450   0.57941   0.65441   0.00000  Uiso   1.00
C297   C     0.34642   0.66762   0.48379   0.00000  Uiso   1.00
C298   C     0.32754   0.69334   0.43296   0.00000  Uiso   1.00
C299   C     0.33446   0.83194   0.40776   0.00000  Uiso   1.00
H300   H     0.40829   0.80930   0.58350   0.00000  Uiso   1.00
H301   H     0.47097   0.63308   0.58289   0.00000  Uiso   1.00
H302   H     0.36329   0.82603   0.67189   0.00000  Uiso   1.00
H303   H     0.39757   0.99926   0.50267   0.00000  Uiso   1.00
H304   H     0.52947   0.38969   0.57129   0.00000  Uiso   1.00
H305   H     0.30241   0.79656   0.75895   0.00000  Uiso   1.00
H306   H     0.37469   0.16187   0.40213   0.00000  Uiso   1.00
H307   H     0.32363   0.43943   0.49923   0.00000  Uiso   1.00
H308   H     0.38166   0.24291   0.49399   0.00000  Uiso   1.00
H309   H     0.27398   0.43586   0.58299   0.00000  Uiso   1.00
H310   H     0.30826   0.60909   0.41378   0.00000  Uiso   1.00
H311   H     0.45698   0.07301   0.49914   0.00000  Uiso   1.00
H312   H     0.22992   0.47989   0.68680   0.00000  Uiso   1.00
H313   H     0.30221   0.84519   0.32998   0.00000  Uiso   1.00
O314   O     0.53293   0.10873   0.53331   0.00000  Uiso   1.00
O315   O     0.23503   0.64256   0.77951   0.00000  Uiso   1.00
O316   O     0.32987   0.12182   0.31136   0.00000  Uiso   1.00
N317   N     0.50445   0.34214   0.55502   0.00000  Uiso   1.00
N318   N     0.29216   0.72252   0.73048   0.00000  Uiso   1.00
N319   N     0.35973   0.06407   0.39688   0.00000  Uiso   1.00
N320   N     0.46544   0.17174   0.51620   0.00000  Uiso   1.00
N321   N     0.25316   0.55212   0.69165   0.00000  Uiso   1.00
N322   N     0.32073   0.89367   0.35806   0.00000  Uiso   1.00
C323   C     0.11110   0.77544   0.06419   0.00000  Uiso   1.00
C324   C     0.08879   0.92247   0.05217   0.00000  Uiso   1.00
C325   C     0.04830   0.95118   0.06369   0.00000  Uiso   1.00
C326   C     0.03359   0.09276   0.04952   0.00000  Uiso   1.00
C327   C     0.99515   0.30452   0.03466   0.00000  Uiso   1.00
C328   C     0.14729   0.81765   0.10053   0.00000  Uiso   1.00
C329   C     0.15600   0.75821   0.15271   0.00000  Uiso   1.00
C330   C     0.19054   0.81155   0.17925   0.00000  Uiso   1.00
C331   C     0.24295   0.86050   0.23945   0.00000  Uiso   1.00
C332   C     0.12866   0.72353   0.00859   0.00000  Uiso   1.00
C333   C     0.12171   0.58494   0.98347   0.00000  Uiso   1.00
C334   C     0.14058   0.55902   0.93261   0.00000  Uiso   1.00
C335   C     0.16407   0.46184   0.85005   0.00000  Uiso   1.00
C336   C     0.15697   0.97583   0.01853   0.00000  Uiso   1.00
C337   C     0.11370   0.03131   0.02737   0.00000  Uiso   1.00
C338   C     0.09905   0.17289   0.01318   0.00000  Uiso   1.00
C339   C     0.05855   0.20180   0.02468   0.00000  Uiso   1.00
C340   C     0.17221   0.92649   0.07573   0.00000  Uiso   1.00
C341   C     0.20675   0.97992   0.10220   0.00000  Uiso   1.00
C342   C     0.21550   0.92059   0.15441   0.00000  Uiso   1.00
C343   C     0.15358   0.83238   0.98379   0.00000  Uiso   1.00
C344   C     0.17246   0.80666   0.93296   0.00000  Uiso   1.00
C345   C     0.16554   0.66806   0.90776   0.00000  Uiso   1.00
H346   H     0.09171   0.69070   0.08350   0.00000  Uiso   1.00
H347   H     0.02903   0.86692   0.08289   0.00000  Uiso   1.00
H348   H     0.13671   0.67397   0.17189   0.00000  Uiso   1.00
H349   H     0.10243   0.50074   0.00267   0.00000  Uiso   1.00
H350   H     0.97053   0.11031   0.07129   0.00000  Uiso   1.00
H351   H     0.19759   0.70344   0.25895   0.00000  Uiso   1.00
H352   H     0.12531   0.33813   0.90213   0.00000  Uiso   1.00
H353   H     0.17637   0.06057   0.99923   0.00000  Uiso   1.00
H354   H     0.11834   0.25709   0.99399   0.00000  Uiso   1.00
H355   H     0.22602   0.06414   0.08299   0.00000  Uiso   1.00
H356   H     0.19174   0.89091   0.91378   0.00000  Uiso   1.00
H357   H     0.04302   0.42699   0.99914   0.00000  Uiso   1.00
H358   H     0.27008   0.02011   0.18680   0.00000  Uiso   1.00
H359   H     0.19779   0.65481   0.82998   0.00000  Uiso   1.00
O360   O     0.96707   0.39127   0.03331   0.00000  Uiso   1.00
O361   O     0.26497   0.85744   0.27951   0.00000  Uiso   1.00
O362   O     0.17013   0.37818   0.81136   0.00000  Uiso   1.00
N363   N     0.99555   0.15786   0.05502   0.00000  Uiso   1.00
N364   N     0.20784   0.77748   0.23048   0.00000  Uiso   1.00
N365   N     0.14027   0.43593   0.89688   0.00000  Uiso   1.00
N366   N     0.03456   0.32826   0.01620   0.00000  Uiso   1.00
N367   N     0.24684   0.94788   0.19165   0.00000  Uiso   1.00
N368   N     0.17927   0.60633   0.85806   0.00000  Uiso   1.00
