data_job_03495
_audit_creation_date              2018-12-19
_audit_creation_method            'Materials Studio'
_symmetry_space_group_name_H-M    'P1'
_symmetry_Int_Tables_number       1
_symmetry_cell_setting            triclinic
loop_
_symmetry_equiv_pos_as_xyz
  x,y,z
_cell_length_a                    15.2289
_cell_length_b                    7.5994
_cell_length_c                    24.2766
_cell_angle_alpha                 90.0000
_cell_angle_beta                  79.0758
_cell_angle_gamma                 90.0000
loop_
_atom_site_label
_atom_site_type_symbol
_atom_site_fract_x
_atom_site_fract_y
_atom_site_fract_z
_atom_site_U_iso_or_equiv
_atom_site_adp_type
_atom_site_occupancy
C1     C     0.72497   0.30400   0.08026   0.00000  Uiso   1.00
C2     C     0.72165   0.18004   0.03130   0.00000  Uiso   1.00
C3     C     0.76166   0.20944   0.97579   0.00000  Uiso   1.00
C4     C     0.75083   0.08005   0.93726   0.00000  Uiso   1.00
C5     C     0.75310   0.91092   0.85873   0.00000  Uiso   1.00
C6     C     0.62792   0.34195   0.10702   0.00000  Uiso   1.00
C7     C     0.58915   0.50749   0.11518   0.00000  Uiso   1.00
C8     C     0.49942   0.51438   0.14039   0.00000  Uiso   1.00
C9     C     0.35620   0.59663   0.17945   0.00000  Uiso   1.00
C10    C     0.76337   0.19671   0.12321   0.00000  Uiso   1.00
C11    C     0.83847   0.24014   0.14500   0.00000  Uiso   1.00
C12    C     0.86277   0.12477   0.18386   0.00000  Uiso   1.00
C13    C     0.92986   0.98151   0.24806   0.00000  Uiso   1.00
C14    C     0.63456   0.02192   0.11054   0.00000  Uiso   1.00
C15    C     0.67254   0.02683   0.04775   0.00000  Uiso   1.00
C16    C     0.66164   0.89735   0.00929   0.00000  Uiso   1.00
C17    C     0.70164   0.92656   0.95374   0.00000  Uiso   1.00
C18    C     0.57882   0.18874   0.12346   0.00000  Uiso   1.00
C19    C     0.48913   0.19540   0.14867   0.00000  Uiso   1.00
C20    C     0.45022   0.36090   0.15687   0.00000  Uiso   1.00
C21    C     0.71427   0.04349   0.13965   0.00000  Uiso   1.00
C22    C     0.73845   0.92804   0.17849   0.00000  Uiso   1.00
C23    C     0.81357   0.97128   0.20033   0.00000  Uiso   1.00
H24    H     0.76320   0.42329   0.06746   0.00000  Uiso   1.00
H25    H     0.79965   0.32804   0.96308   0.00000  Uiso   1.00
H26    H     0.62717   0.62603   0.10245   0.00000  Uiso   1.00
H27    H     0.87646   0.35872   0.13226   0.00000  Uiso   1.00
H28    H     0.81839   0.15490   0.85461   0.00000  Uiso   1.00
H29    H     0.45471   0.78323   0.14849   0.00000  Uiso   1.00
H30    H     0.98038   0.21956   0.21136   0.00000  Uiso   1.00
H31    H     0.59633   0.90263   0.12334   0.00000  Uiso   1.00
H32    H     0.62363   0.77880   0.02203   0.00000  Uiso   1.00
H33    H     0.45115   0.07680   0.16140   0.00000  Uiso   1.00
H34    H     0.70043   0.80949   0.19121   0.00000  Uiso   1.00
H35    H     0.67552   0.70912   0.90246   0.00000  Uiso   1.00
H36    H     0.31184   0.33747   0.19634   0.00000  Uiso   1.00
H37    H     0.83751   0.77378   0.25921   0.00000  Uiso   1.00
O38    O     0.76790   0.85997   0.81088   0.00000  Uiso   1.00
O39    O     0.29077   0.68433   0.19645   0.00000  Uiso   1.00
O40    O     0.98044   0.94480   0.27893   0.00000  Uiso   1.00
N41    N     0.78104   0.06696   0.87978   0.00000  Uiso   1.00
N42    N     0.44101   0.65442   0.15453   0.00000  Uiso   1.00
N43    N     0.93245   0.12745   0.21332   0.00000  Uiso   1.00
N44    N     0.70416   0.82709   0.90552   0.00000  Uiso   1.00
N45    N     0.36413   0.41455   0.18028   0.00000  Uiso   1.00
N46    N     0.85558   0.88758   0.23906   0.00000  Uiso   1.00
C47    C     0.27503   0.80400   0.41974   0.00000  Uiso   1.00
C48    C     0.27835   0.68004   0.46870   0.00000  Uiso   1.00
C49    C     0.23834   0.70944   0.52421   0.00000  Uiso   1.00
C50    C     0.24917   0.58005   0.56274   0.00000  Uiso   1.00
C51    C     0.24690   0.41092   0.64127   0.00000  Uiso   1.00
C52    C     0.37208   0.84195   0.39298   0.00000  Uiso   1.00
C53    C     0.41085   0.00749   0.38482   0.00000  Uiso   1.00
C54    C     0.50058   0.01438   0.35961   0.00000  Uiso   1.00
C55    C     0.64380   0.09663   0.32055   0.00000  Uiso   1.00
C56    C     0.23663   0.69671   0.37679   0.00000  Uiso   1.00
C57    C     0.16153   0.74014   0.35500   0.00000  Uiso   1.00
C58    C     0.13723   0.62477   0.31614   0.00000  Uiso   1.00
C59    C     0.07014   0.48151   0.25194   0.00000  Uiso   1.00
C60    C     0.36544   0.52192   0.38946   0.00000  Uiso   1.00
C61    C     0.32746   0.52683   0.45225   0.00000  Uiso   1.00
C62    C     0.33836   0.39735   0.49071   0.00000  Uiso   1.00
C63    C     0.29836   0.42656   0.54626   0.00000  Uiso   1.00
C64    C     0.42118   0.68874   0.37654   0.00000  Uiso   1.00
C65    C     0.51087   0.69540   0.35133   0.00000  Uiso   1.00
C66    C     0.54978   0.86090   0.34313   0.00000  Uiso   1.00
C67    C     0.28573   0.54349   0.36035   0.00000  Uiso   1.00
C68    C     0.26155   0.42804   0.32151   0.00000  Uiso   1.00
C69    C     0.18643   0.47128   0.29967   0.00000  Uiso   1.00
H70    H     0.23680   0.92329   0.43254   0.00000  Uiso   1.00
H71    H     0.20035   0.82804   0.53692   0.00000  Uiso   1.00
H72    H     0.37283   0.12603   0.39755   0.00000  Uiso   1.00
H73    H     0.12354   0.85872   0.36774   0.00000  Uiso   1.00
H74    H     0.18161   0.65490   0.64539   0.00000  Uiso   1.00
H75    H     0.54529   0.28323   0.35151   0.00000  Uiso   1.00
H76    H     0.01962   0.71956   0.28864   0.00000  Uiso   1.00
H77    H     0.40367   0.40263   0.37666   0.00000  Uiso   1.00
H78    H     0.37637   0.27880   0.47797   0.00000  Uiso   1.00
H79    H     0.54885   0.57680   0.33860   0.00000  Uiso   1.00
H80    H     0.29957   0.30949   0.30879   0.00000  Uiso   1.00
H81    H     0.32448   0.20912   0.59754   0.00000  Uiso   1.00
H82    H     0.68816   0.83747   0.30366   0.00000  Uiso   1.00
H83    H     0.16249   0.27378   0.24079   0.00000  Uiso   1.00
O84    O     0.23210   0.35997   0.68912   0.00000  Uiso   1.00
O85    O     0.70923   0.18433   0.30355   0.00000  Uiso   1.00
O86    O     0.01956   0.44480   0.22107   0.00000  Uiso   1.00
N87    N     0.21896   0.56696   0.62022   0.00000  Uiso   1.00
N88    N     0.55899   0.15442   0.34547   0.00000  Uiso   1.00
N89    N     0.06755   0.62745   0.28668   0.00000  Uiso   1.00
N90    N     0.29584   0.32709   0.59448   0.00000  Uiso   1.00
N91    N     0.63587   0.91455   0.31972   0.00000  Uiso   1.00
N92    N     0.14442   0.38758   0.26094   0.00000  Uiso   1.00
C93    C     0.27503   0.69600   0.91974   0.00000  Uiso   1.00
C94    C     0.27835   0.81996   0.96870   0.00000  Uiso   1.00
C95    C     0.23834   0.79056   0.02421   0.00000  Uiso   1.00
C96    C     0.24917   0.91995   0.06274   0.00000  Uiso   1.00
C97    C     0.24690   0.08908   0.14127   0.00000  Uiso   1.00
C98    C     0.37208   0.65805   0.89298   0.00000  Uiso   1.00
C99    C     0.41085   0.49251   0.88482   0.00000  Uiso   1.00
C100   C     0.50058   0.48562   0.85961   0.00000  Uiso   1.00
C101   C     0.64380   0.40337   0.82055   0.00000  Uiso   1.00
C102   C     0.23663   0.80329   0.87679   0.00000  Uiso   1.00
C103   C     0.16153   0.75986   0.85500   0.00000  Uiso   1.00
C104   C     0.13723   0.87523   0.81614   0.00000  Uiso   1.00
C105   C     0.07014   0.01849   0.75194   0.00000  Uiso   1.00
C106   C     0.36544   0.97808   0.88946   0.00000  Uiso   1.00
C107   C     0.32746   0.97317   0.95225   0.00000  Uiso   1.00
C108   C     0.33836   0.10265   0.99071   0.00000  Uiso   1.00
C109   C     0.29836   0.07344   0.04626   0.00000  Uiso   1.00
C110   C     0.42118   0.81126   0.87654   0.00000  Uiso   1.00
C111   C     0.51087   0.80460   0.85133   0.00000  Uiso   1.00
C112   C     0.54978   0.63910   0.84313   0.00000  Uiso   1.00
C113   C     0.28573   0.95651   0.86035   0.00000  Uiso   1.00
C114   C     0.26155   0.07196   0.82151   0.00000  Uiso   1.00
C115   C     0.18643   0.02872   0.79967   0.00000  Uiso   1.00
H116   H     0.23680   0.57671   0.93254   0.00000  Uiso   1.00
H117   H     0.20035   0.67196   0.03692   0.00000  Uiso   1.00
H118   H     0.37283   0.37397   0.89755   0.00000  Uiso   1.00
H119   H     0.12354   0.64128   0.86774   0.00000  Uiso   1.00
H120   H     0.18161   0.84510   0.14539   0.00000  Uiso   1.00
H121   H     0.54529   0.21677   0.85151   0.00000  Uiso   1.00
H122   H     0.01962   0.78044   0.78864   0.00000  Uiso   1.00
H123   H     0.40367   0.09737   0.87666   0.00000  Uiso   1.00
H124   H     0.37637   0.22120   0.97797   0.00000  Uiso   1.00
H125   H     0.54885   0.92320   0.83860   0.00000  Uiso   1.00
H126   H     0.29957   0.19051   0.80879   0.00000  Uiso   1.00
H127   H     0.32448   0.29088   0.09754   0.00000  Uiso   1.00
H128   H     0.68816   0.66253   0.80366   0.00000  Uiso   1.00
H129   H     0.16249   0.22622   0.74079   0.00000  Uiso   1.00
O130   O     0.23210   0.14003   0.18912   0.00000  Uiso   1.00
O131   O     0.70923   0.31567   0.80355   0.00000  Uiso   1.00
O132   O     0.01956   0.05520   0.72107   0.00000  Uiso   1.00
N133   N     0.21896   0.93304   0.12022   0.00000  Uiso   1.00
N134   N     0.55899   0.34558   0.84547   0.00000  Uiso   1.00
N135   N     0.06755   0.87255   0.78668   0.00000  Uiso   1.00
N136   N     0.29584   0.17291   0.09448   0.00000  Uiso   1.00
N137   N     0.63587   0.58545   0.81972   0.00000  Uiso   1.00
N138   N     0.14442   0.11242   0.76094   0.00000  Uiso   1.00
C139   C     0.72497   0.19600   0.58026   0.00000  Uiso   1.00
C140   C     0.72165   0.31996   0.53130   0.00000  Uiso   1.00
C141   C     0.76166   0.29056   0.47579   0.00000  Uiso   1.00
C142   C     0.75083   0.41995   0.43726   0.00000  Uiso   1.00
C143   C     0.75310   0.58908   0.35873   0.00000  Uiso   1.00
C144   C     0.62792   0.15805   0.60702   0.00000  Uiso   1.00
C145   C     0.58915   0.99251   0.61518   0.00000  Uiso   1.00
C146   C     0.49942   0.98562   0.64039   0.00000  Uiso   1.00
C147   C     0.35620   0.90337   0.67945   0.00000  Uiso   1.00
C148   C     0.76337   0.30329   0.62321   0.00000  Uiso   1.00
C149   C     0.83847   0.25986   0.64500   0.00000  Uiso   1.00
C150   C     0.86277   0.37523   0.68386   0.00000  Uiso   1.00
C151   C     0.92986   0.51849   0.74806   0.00000  Uiso   1.00
C152   C     0.63456   0.47808   0.61054   0.00000  Uiso   1.00
C153   C     0.67254   0.47317   0.54775   0.00000  Uiso   1.00
C154   C     0.66164   0.60265   0.50929   0.00000  Uiso   1.00
C155   C     0.70164   0.57344   0.45374   0.00000  Uiso   1.00
C156   C     0.57882   0.31126   0.62346   0.00000  Uiso   1.00
C157   C     0.48913   0.30460   0.64867   0.00000  Uiso   1.00
C158   C     0.45022   0.13910   0.65687   0.00000  Uiso   1.00
C159   C     0.71427   0.45651   0.63965   0.00000  Uiso   1.00
C160   C     0.73845   0.57196   0.67849   0.00000  Uiso   1.00
C161   C     0.81357   0.52872   0.70033   0.00000  Uiso   1.00
H162   H     0.76320   0.07671   0.56746   0.00000  Uiso   1.00
H163   H     0.79965   0.17196   0.46308   0.00000  Uiso   1.00
H164   H     0.62717   0.87397   0.60245   0.00000  Uiso   1.00
H165   H     0.87646   0.14128   0.63226   0.00000  Uiso   1.00
H166   H     0.81839   0.34510   0.35461   0.00000  Uiso   1.00
H167   H     0.45471   0.71677   0.64849   0.00000  Uiso   1.00
H168   H     0.98038   0.28044   0.71136   0.00000  Uiso   1.00
H169   H     0.59633   0.59737   0.62334   0.00000  Uiso   1.00
H170   H     0.62363   0.72120   0.52203   0.00000  Uiso   1.00
H171   H     0.45115   0.42320   0.66140   0.00000  Uiso   1.00
H172   H     0.70043   0.69051   0.69121   0.00000  Uiso   1.00
H173   H     0.67552   0.79088   0.40246   0.00000  Uiso   1.00
H174   H     0.31184   0.16253   0.69634   0.00000  Uiso   1.00
H175   H     0.83751   0.72622   0.75921   0.00000  Uiso   1.00
O176   O     0.76790   0.64003   0.31088   0.00000  Uiso   1.00
O177   O     0.29077   0.81567   0.69645   0.00000  Uiso   1.00
O178   O     0.98044   0.55520   0.77893   0.00000  Uiso   1.00
N179   N     0.78104   0.43304   0.37978   0.00000  Uiso   1.00
N180   N     0.44101   0.84558   0.65453   0.00000  Uiso   1.00
N181   N     0.93245   0.37255   0.71332   0.00000  Uiso   1.00
N182   N     0.70416   0.67291   0.40552   0.00000  Uiso   1.00
N183   N     0.36413   0.08545   0.68028   0.00000  Uiso   1.00
N184   N     0.85558   0.61242   0.73906   0.00000  Uiso   1.00
