data_job_06916
_audit_creation_date              2018-12-19
_audit_creation_method            'Materials Studio'
_symmetry_space_group_name_H-M    'P1'
_symmetry_Int_Tables_number       1
_symmetry_cell_setting            triclinic
loop_
_symmetry_equiv_pos_as_xyz
  x,y,z
_cell_length_a                    22.8350
_cell_length_b                    22.9225
_cell_length_c                    23.5291
_cell_angle_alpha                 61.9980
_cell_angle_beta                  89.2368
_cell_angle_gamma                 61.7216
loop_
_atom_site_label
_atom_site_type_symbol
_atom_site_fract_x
_atom_site_fract_y
_atom_site_fract_z
_atom_site_U_iso_or_equiv
_atom_site_adp_type
_atom_site_occupancy
C1     C     0.01053   0.87736   0.79929   0.00000  Uiso   1.00
C2     C     0.97057   0.84489   0.78690   0.00000  Uiso   1.00
C3     C     0.98300   0.77057   0.82865   0.00000  Uiso   1.00
C4     C     0.94075   0.75205   0.80844   0.00000  Uiso   1.00
C5     C     0.88676   0.69342   0.79829   0.00000  Uiso   1.00
C6     C     0.03738   0.90407   0.73814   0.00000  Uiso   1.00
C7     C     0.10597   0.87950   0.73891   0.00000  Uiso   1.00
C8     C     0.11994   0.91080   0.67765   0.00000  Uiso   1.00
C9     C     0.16966   0.94408   0.59181   0.00000  Uiso   1.00
C10    C     0.95707   0.95115   0.79733   0.00000  Uiso   1.00
C11    C     0.95815   0.96619   0.84785   0.00000  Uiso   1.00
C12    C     0.90452   0.03714   0.83642   0.00000  Uiso   1.00
C13    C     0.82955   0.14353   0.84248   0.00000  Uiso   1.00
C14    C     0.91339   0.97663   0.68914   0.00000  Uiso   1.00
C15    C     0.91781   0.89881   0.72707   0.00000  Uiso   1.00
C16    C     0.87553   0.88040   0.70679   0.00000  Uiso   1.00
C17    C     0.88789   0.80606   0.74851   0.00000  Uiso   1.00
C18    C     0.98462   0.95798   0.67832   0.00000  Uiso   1.00
C19    C     0.99849   0.98933   0.61704   0.00000  Uiso   1.00
C20    C     0.06709   0.96481   0.61771   0.00000  Uiso   1.00
C21    C     0.90431   0.00507   0.73751   0.00000  Uiso   1.00
C22    C     0.85067   0.07602   0.72599   0.00000  Uiso   1.00
C23    C     0.85166   0.09116   0.77648   0.00000  Uiso   1.00
H24    H     0.05161   0.83539   0.84586   0.00000  Uiso   1.00
H25    H     0.02384   0.72886   0.87495   0.00000  Uiso   1.00
H26    H     0.14678   0.83778   0.78521   0.00000  Uiso   1.00
H27    H     0.99898   0.92446   0.89414   0.00000  Uiso   1.00
H28    H     0.96980   0.63452   0.88079   0.00000  Uiso   1.00
H29    H     0.22903   0.86421   0.69159   0.00000  Uiso   1.00
H30    H     0.91737   0.04698   0.92129   0.00000  Uiso   1.00
H31    H     0.87231   0.01861   0.64256   0.00000  Uiso   1.00
H32    H     0.83470   0.92213   0.66049   0.00000  Uiso   1.00
H33    H     0.95765   0.03105   0.57076   0.00000  Uiso   1.00
H34    H     0.80985   0.11773   0.67969   0.00000  Uiso   1.00
H35    H     0.81630   0.79139   0.70673   0.00000  Uiso   1.00
H36    H     0.07553   0.02108   0.51753   0.00000  Uiso   1.00
H37    H     0.76387   0.20384   0.74723   0.00000  Uiso   1.00
O38    O     0.87156   0.64618   0.80921   0.00000  Uiso   1.00
O39    O     0.21166   0.94753   0.56099   0.00000  Uiso   1.00
O40    O     0.80277   0.18731   0.86235   0.00000  Uiso   1.00
N41    N     0.93883   0.68469   0.83738   0.00000  Uiso   1.00
N42    N     0.18120   0.89942   0.66048   0.00000  Uiso   1.00
N43    N     0.88983   0.07030   0.87522   0.00000  Uiso   1.00
N44    N     0.85622   0.76909   0.74371   0.00000  Uiso   1.00
N45    N     0.09859   0.98383   0.56682   0.00000  Uiso   1.00
N46    N     0.80723   0.15471   0.78156   0.00000  Uiso   1.00
C47    C     0.01501   0.57924   0.09076   0.00000  Uiso   1.00
C48    C     0.09257   0.53219   0.10017   0.00000  Uiso   1.00
C49    C     0.12419   0.52512   0.05105   0.00000  Uiso   1.00
C50    C     0.19578   0.47940   0.06966   0.00000  Uiso   1.00
C51    C     0.31035   0.41198   0.07433   0.00000  Uiso   1.00
C52    C     0.99760   0.52229   0.14230   0.00000  Uiso   1.00
C53    C     0.94935   0.50691   0.12861   0.00000  Uiso   1.00
C54    C     0.94099   0.45287   0.18269   0.00000  Uiso   1.00
C55    C     0.90808   0.37012   0.25278   0.00000  Uiso   1.00
C56    C     0.00347   0.63622   0.11232   0.00000  Uiso   1.00
C57    C     0.96014   0.71663   0.07343   0.00000  Uiso   1.00
C58    C     0.95672   0.75851   0.10228   0.00000  Uiso   1.00
C59    C     0.93292   0.85266   0.12582   0.00000  Uiso   1.00
C60    C     0.08594   0.51063   0.21116   0.00000  Uiso   1.00
C61    C     0.13110   0.49492   0.16557   0.00000  Uiso   1.00
C62    C     0.20267   0.44921   0.18426   0.00000  Uiso   1.00
C63    C     0.23438   0.44207   0.13518   0.00000  Uiso   1.00
C64    C     0.03612   0.48503   0.20770   0.00000  Uiso   1.00
C65    C     0.02783   0.43100   0.26182   0.00000  Uiso   1.00
C66    C     0.97959   0.41553   0.24821   0.00000  Uiso   1.00
C67    C     0.04200   0.59896   0.17772   0.00000  Uiso   1.00
C68    C     0.03863   0.64072   0.20664   0.00000  Uiso   1.00
C69    C     0.99531   0.72118   0.16780   0.00000  Uiso   1.00
H70    H     0.98501   0.60826   0.03985   0.00000  Uiso   1.00
H71    H     0.09435   0.55396   0.00044   0.00000  Uiso   1.00
H72    H     0.91954   0.53576   0.07799   0.00000  Uiso   1.00
H73    H     0.93034   0.74545   0.02282   0.00000  Uiso   1.00
H74    H     0.23256   0.47731   0.98561   0.00000  Uiso   1.00
H75    H     0.86395   0.43896   0.14912   0.00000  Uiso   1.00
H76    H     0.88671   0.88113   0.03279   0.00000  Uiso   1.00
H77    H     0.11594   0.48162   0.26208   0.00000  Uiso   1.00
H78    H     0.23247   0.42037   0.23488   0.00000  Uiso   1.00
H79    H     0.05765   0.40217   0.31242   0.00000  Uiso   1.00
H80    H     0.06845   0.61186   0.25725   0.00000  Uiso   1.00
H81    H     0.34466   0.36888   0.17588   0.00000  Uiso   1.00
H82    H     0.97604   0.33053   0.33940   0.00000  Uiso   1.00
H83    H     0.99881   0.77270   0.22306   0.00000  Uiso   1.00
O84    O     0.36291   0.38508   0.05884   0.00000  Uiso   1.00
O85    O     0.87929   0.33477   0.27337   0.00000  Uiso   1.00
O86    O     0.90916   0.91488   0.12074   0.00000  Uiso   1.00
N87    N     0.24296   0.46021   0.03412   0.00000  Uiso   1.00
N88    N     0.89833   0.42434   0.18700   0.00000  Uiso   1.00
N89    N     0.91960   0.83773   0.07824   0.00000  Uiso   1.00
N90    N     0.30328   0.40187   0.13650   0.00000  Uiso   1.00
N91    N     0.95865   0.36600   0.28938   0.00000  Uiso   1.00
N92    N     0.97992   0.77939   0.18062   0.00000  Uiso   1.00
C93    C     0.19586   0.68413   0.02238   0.00000  Uiso   1.00
C94    C     0.20508   0.67927   0.96012   0.00000  Uiso   1.00
C95    C     0.16782   0.66387   0.92906   0.00000  Uiso   1.00
C96    C     0.18403   0.66188   0.87266   0.00000  Uiso   1.00
C97    C     0.19052   0.65232   0.77972   0.00000  Uiso   1.00
C98    C     0.26650   0.62526   0.07315   0.00000  Uiso   1.00
C99    C     0.28088   0.56445   0.13713   0.00000  Uiso   1.00
C100   C     0.34880   0.51700   0.17589   0.00000  Uiso   1.00
C101   C     0.45063   0.42362   0.25846   0.00000  Uiso   1.00
C102   C     0.18113   0.76421   0.00307   0.00000  Uiso   1.00
C103   C     0.12374   0.82023   0.00815   0.00000  Uiso   1.00
C104   C     0.11979   0.88977   0.98792   0.00000  Uiso   1.00
C105   C     0.08908   0.01214   0.96167   0.00000  Uiso   1.00
C106   C     0.29090   0.70799   0.97744   0.00000  Uiso   1.00
C107   C     0.25671   0.69223   0.93572   0.00000  Uiso   1.00
C108   C     0.27297   0.69027   0.87935   0.00000  Uiso   1.00
C109   C     0.23575   0.67487   0.84821   0.00000  Uiso   1.00
C110   C     0.31813   0.63821   0.04875   0.00000  Uiso   1.00
C111   C     0.38604   0.59085   0.08742   0.00000  Uiso   1.00
C112   C     0.40052   0.52998   0.15144   0.00000  Uiso   1.00
C113   C     0.23276   0.77717   0.97867   0.00000  Uiso   1.00
C114   C     0.22890   0.84663   0.95843   0.00000  Uiso   1.00
C115   C     0.17151   0.90275   0.96347   0.00000  Uiso   1.00
H116   H     0.15567   0.67404   0.04138   0.00000  Uiso   1.00
H117   H     0.12788   0.65383   0.94797   0.00000  Uiso   1.00
H118   H     0.24092   0.55444   0.15601   0.00000  Uiso   1.00
H119   H     0.08381   0.81018   0.02703   0.00000  Uiso   1.00
H120   H     0.11985   0.63712   0.83365   0.00000  Uiso   1.00
H121   H     0.35820   0.42756   0.27233   0.00000  Uiso   1.00
H122   H     0.02689   0.96685   0.00037   0.00000  Uiso   1.00
H123   H     0.33110   0.71808   0.95845   0.00000  Uiso   1.00
H124   H     0.31293   0.70030   0.86047   0.00000  Uiso   1.00
H125   H     0.42597   0.60090   0.06852   0.00000  Uiso   1.00
H126   H     0.26885   0.85664   0.93955   0.00000  Uiso   1.00
H127   H     0.27004   0.67483   0.76264   0.00000  Uiso   1.00
H128   H     0.50839   0.46526   0.20132   0.00000  Uiso   1.00
H129   H     0.17708   0.00455   0.92936   0.00000  Uiso   1.00
O130   O     0.17984   0.64346   0.73521   0.00000  Uiso   1.00
O131   O     0.49254   0.36852   0.31074   0.00000  Uiso   1.00
O132   O     0.05787   0.07606   0.95393   0.00000  Uiso   1.00
N133   N     0.15768   0.64846   0.83038   0.00000  Uiso   1.00
N134   N     0.38053   0.45251   0.24051   0.00000  Uiso   1.00
N135   N     0.07079   0.95670   0.98626   0.00000  Uiso   1.00
N136   N     0.23850   0.66875   0.79217   0.00000  Uiso   1.00
N137   N     0.46134   0.47280   0.20230   0.00000  Uiso   1.00
N138   N     0.15161   0.97699   0.94805   0.00000  Uiso   1.00
C139   C     0.79059   0.63367   0.49374   0.00000  Uiso   1.00
C140   C     0.80875   0.54968   0.52756   0.00000  Uiso   1.00
C141   C     0.77147   0.52461   0.50988   0.00000  Uiso   1.00
C142   C     0.79662   0.44536   0.54699   0.00000  Uiso   1.00
C143   C     0.81567   0.32289   0.59145   0.00000  Uiso   1.00
C144   C     0.85372   0.63348   0.47159   0.00000  Uiso   1.00
C145   C     0.85423   0.67887   0.40685   0.00000  Uiso   1.00
C146   C     0.91723   0.67017   0.39685   0.00000  Uiso   1.00
C147   C     0.00608   0.67783   0.35441   0.00000  Uiso   1.00
C148   C     0.78535   0.65196   0.54877   0.00000  Uiso   1.00
C149   C     0.72839   0.71290   0.54892   0.00000  Uiso   1.00
C150   C     0.73384   0.71977   0.60390   0.00000  Uiso   1.00
C151   C     0.71653   0.75613   0.68131   0.00000  Uiso   1.00
C152   C     0.90155   0.53752   0.59110   0.00000  Uiso   1.00
C153   C     0.86902   0.49746   0.58044   0.00000  Uiso   1.00
C154   C     0.89423   0.41823   0.61760   0.00000  Uiso   1.00
C155   C     0.85699   0.39304   0.59998   0.00000  Uiso   1.00
C156   C     0.91398   0.58126   0.52447   0.00000  Uiso   1.00
C157   C     0.97699   0.57249   0.51457   0.00000  Uiso   1.00
C158   C     0.97761   0.61785   0.44983   0.00000  Uiso   1.00
C159   C     0.84562   0.59974   0.60166   0.00000  Uiso   1.00
C160   C     0.85115   0.60652   0.65665   0.00000  Uiso   1.00
C161   C     0.79421   0.66746   0.65688   0.00000  Uiso   1.00
H162   H     0.74367   0.67433   0.45256   0.00000  Uiso   1.00
H163   H     0.72484   0.56504   0.46895   0.00000  Uiso   1.00
H164   H     0.80759   0.71928   0.36593   0.00000  Uiso   1.00
H165   H     0.68176   0.75331   0.50799   0.00000  Uiso   1.00
H166   H     0.73054   0.42084   0.51042   0.00000  Uiso   1.00
H167   H     0.90502   0.74608   0.29321   0.00000  Uiso   1.00
H168   H     0.63970   0.81783   0.59277   0.00000  Uiso   1.00
H169   H     0.94847   0.49686   0.63227   0.00000  Uiso   1.00
H170   H     0.94087   0.37783   0.65852   0.00000  Uiso   1.00
H171   H     0.02362   0.53207   0.55550   0.00000  Uiso   1.00
H172   H     0.89780   0.56610   0.69756   0.00000  Uiso   1.00
H173   H     0.90589   0.26889   0.66428   0.00000  Uiso   1.00
H174   H     0.08036   0.59414   0.44707   0.00000  Uiso   1.00
H175   H     0.81504   0.66588   0.74663   0.00000  Uiso   1.00
O176   O     0.80953   0.26976   0.60136   0.00000  Uiso   1.00
O177   O     0.03843   0.69648   0.31639   0.00000  Uiso   1.00
O178   O     0.69034   0.79061   0.70940   0.00000  Uiso   1.00
N179   N     0.77285   0.40142   0.54304   0.00000  Uiso   1.00
N180   N     0.93597   0.70549   0.33996   0.00000  Uiso   1.00
N181   N     0.68793   0.77258   0.62001   0.00000  Uiso   1.00
N182   N     0.86720   0.31965   0.62583   0.00000  Uiso   1.00
N183   N     0.03032   0.62373   0.42275   0.00000  Uiso   1.00
N184   N     0.78228   0.69082   0.70280   0.00000  Uiso   1.00
C185   C     0.52115   0.67840   0.46025   0.00000  Uiso   1.00
C186   C     0.47930   0.69781   0.39722   0.00000  Uiso   1.00
C187   C     0.49647   0.71579   0.33692   0.00000  Uiso   1.00
C188   C     0.45143   0.73180   0.28523   0.00000  Uiso   1.00
C189   C     0.39560   0.76220   0.18610   0.00000  Uiso   1.00
C190   C     0.53618   0.59874   0.51525   0.00000  Uiso   1.00
C191   C     0.60117   0.53344   0.55418   0.00000  Uiso   1.00
C192   C     0.60401   0.46606   0.60186   0.00000  Uiso   1.00
C193   C     0.63649   0.34268   0.68600   0.00000  Uiso   1.00
C194   C     0.47223   0.73621   0.47886   0.00000  Uiso   1.00
C195   C     0.48346   0.78648   0.48722   0.00000  Uiso   1.00
C196   C     0.43247   0.83484   0.50427   0.00000  Uiso   1.00
C197   C     0.36566   0.92489   0.53192   0.00000  Uiso   1.00
C198   C     0.41064   0.67488   0.47569   0.00000  Uiso   1.00
C199   C     0.41928   0.69589   0.40561   0.00000  Uiso   1.00
C200   C     0.37420   0.71189   0.35400   0.00000  Uiso   1.00
C201   C     0.39130   0.72989   0.29363   0.00000  Uiso   1.00
C202   C     0.47616   0.59683   0.52364   0.00000  Uiso   1.00
C203   C     0.47891   0.52954   0.57127   0.00000  Uiso   1.00
C204   C     0.54388   0.46415   0.61026   0.00000  Uiso   1.00
C205   C     0.41221   0.73430   0.48725   0.00000  Uiso   1.00
C206   C     0.36119   0.78259   0.50430   0.00000  Uiso   1.00
C207   C     0.37234   0.83292   0.51268   0.00000  Uiso   1.00
H208   H     0.56788   0.67988   0.45372   0.00000  Uiso   1.00
H209   H     0.54293   0.71725   0.33045   0.00000  Uiso   1.00
H210   H     0.64761   0.53493   0.54768   0.00000  Uiso   1.00
H211   H     0.52992   0.78794   0.48072   0.00000  Uiso   1.00
H212   H     0.48880   0.75782   0.19748   0.00000  Uiso   1.00
H213   H     0.70954   0.37340   0.65555   0.00000  Uiso   1.00
H214   H     0.46136   0.90691   0.51436   0.00000  Uiso   1.00
H215   H     0.36390   0.67339   0.48222   0.00000  Uiso   1.00
H216   H     0.32775   0.71041   0.36051   0.00000  Uiso   1.00
H217   H     0.43244   0.52809   0.57775   0.00000  Uiso   1.00
H218   H     0.31475   0.78109   0.51079   0.00000  Uiso   1.00
H219   H     0.31416   0.75226   0.22189   0.00000  Uiso   1.00
H220   H     0.53490   0.36784   0.67996   0.00000  Uiso   1.00
H221   H     0.28672   0.90135   0.53876   0.00000  Uiso   1.00
O222   O     0.38139   0.77948   0.12911   0.00000  Uiso   1.00
O223   O     0.67099   0.27514   0.73008   0.00000  Uiso   1.00
O224   O     0.34538   0.97510   0.54484   0.00000  Uiso   1.00
N225   N     0.45266   0.75144   0.21993   0.00000  Uiso   1.00
N226   N     0.65903   0.39203   0.64818   0.00000  Uiso   1.00
N227   N     0.42701   0.89080   0.51620   0.00000  Uiso   1.00
N228   N     0.35868   0.74845   0.23306   0.00000  Uiso   1.00
N229   N     0.56506   0.38904   0.66131   0.00000  Uiso   1.00
N230   N     0.33304   0.88781   0.52933   0.00000  Uiso   1.00
C231   C     0.46408   0.95018   0.17995   0.00000  Uiso   1.00
C232   C     0.53833   0.91649   0.17491   0.00000  Uiso   1.00
C233   C     0.59304   0.84086   0.21808   0.00000  Uiso   1.00
C234   C     0.65699   0.82136   0.20494   0.00000  Uiso   1.00
C235   C     0.77094   0.76079   0.20537   0.00000  Uiso   1.00
C236   C     0.41968   0.98086   0.11309   0.00000  Uiso   1.00
C237   C     0.37462   0.95937   0.10429   0.00000  Uiso   1.00
C238   C     0.33869   0.99407   0.03910   0.00000  Uiso   1.00
C239   C     0.26839   0.03348   0.94355   0.00000  Uiso   1.00
C240   C     0.44539   0.02160   0.18324   0.00000  Uiso   1.00
C241   C     0.42193   0.03438   0.23343   0.00000  Uiso   1.00
C242   C     0.40763   0.10340   0.22730   0.00000  Uiso   1.00
C243   C     0.37725   0.20607   0.24068   0.00000  Uiso   1.00
C244   C     0.48038   0.05003   0.07984   0.00000  Uiso   1.00
C245   C     0.54718   0.97072   0.12053   0.00000  Uiso   1.00
C246   C     0.61108   0.95133   0.10732   0.00000  Uiso   1.00
C247   C     0.66587   0.87569   0.15047   0.00000  Uiso   1.00
C248   C     0.42854   0.03509   0.05871   0.00000  Uiso   1.00
C249   C     0.39266   0.06984   0.99352   0.00000  Uiso   1.00
C250   C     0.34756   0.04840   0.98462   0.00000  Uiso   1.00
C251   C     0.45425   0.07584   0.12887   0.00000  Uiso   1.00
C252   C     0.43998   0.14485   0.12266   0.00000  Uiso   1.00
C253   C     0.41651   0.15773   0.17283   0.00000  Uiso   1.00
H254   H     0.45718   0.90795   0.22228   0.00000  Uiso   1.00
H255   H     0.58616   0.79891   0.26016   0.00000  Uiso   1.00
H256   H     0.36777   0.91740   0.14638   0.00000  Uiso   1.00
H257   H     0.41508   0.99240   0.27550   0.00000  Uiso   1.00
H258   H     0.73306   0.70192   0.27816   0.00000  Uiso   1.00
H259   H     0.27256   0.95179   0.03824   0.00000  Uiso   1.00
H260   H     0.37232   0.10994   0.31052   0.00000  Uiso   1.00
H261   H     0.48728   0.09225   0.03750   0.00000  Uiso   1.00
H262   H     0.61792   0.99332   0.06524   0.00000  Uiso   1.00
H263   H     0.39953   0.11181   0.95145   0.00000  Uiso   1.00
H264   H     0.44684   0.18681   0.08057   0.00000  Uiso   1.00
H265   H     0.75884   0.85970   0.11995   0.00000  Uiso   1.00
H266   H     0.29833   0.10958   0.88003   0.00000  Uiso   1.00
H267   H     0.39810   0.26773   0.15231   0.00000  Uiso   1.00
O268   O     0.83134   0.71239   0.22062   0.00000  Uiso   1.00
O269   O     0.22717   0.04023   0.90586   0.00000  Uiso   1.00
O270   O     0.35806   0.24771   0.26309   0.00000  Uiso   1.00
N271   N     0.72120   0.75263   0.23712   0.00000  Uiso   1.00
N272   N     0.29067   0.98624   0.01282   0.00000  Uiso   1.00
N273   N     0.38392   0.13411   0.26737   0.00000  Uiso   1.00
N274   N     0.73507   0.83754   0.15199   0.00000  Uiso   1.00
N275   N     0.30454   0.07115   0.92769   0.00000  Uiso   1.00
N276   N     0.39779   0.21901   0.18224   0.00000  Uiso   1.00
C277   C     0.98296   0.94535   0.38393   0.00000  Uiso   1.00
C278   C     0.01512   0.98799   0.38989   0.00000  Uiso   1.00
C279   C     0.97978   0.06596   0.37017   0.00000  Uiso   1.00
C280   C     0.01855   0.09396   0.37983   0.00000  Uiso   1.00
C281   C     0.05759   0.16750   0.38479   0.00000  Uiso   1.00
C282   C     0.00307   0.87635   0.45427   0.00000  Uiso   1.00
C283   C     0.95758   0.86046   0.48867   0.00000  Uiso   1.00
C284   C     0.98620   0.79447   0.55252   0.00000  Uiso   1.00
C285   C     0.00654   0.69466   0.65741   0.00000  Uiso   1.00
C286   C     0.02096   0.91076   0.34343   0.00000  Uiso   1.00
C287   C     0.99051   0.92378   0.28466   0.00000  Uiso   1.00
C288   C     0.03420   0.88675   0.25520   0.00000  Uiso   1.00
C289   C     0.08231   0.84037   0.18801   0.00000  Uiso   1.00
C290   C     0.11467   0.85641   0.43614   0.00000  Uiso   1.00
C291   C     0.08666   0.93967   0.41825   0.00000  Uiso   1.00
C292   C     0.12550   0.96756   0.42793   0.00000  Uiso   1.00
C293   C     0.09021   0.04556   0.40823   0.00000  Uiso   1.00
C294   C     0.07460   0.82804   0.48262   0.00000  Uiso   1.00
C295   C     0.10330   0.76205   0.54643   0.00000  Uiso   1.00
C296   C     0.05787   0.74607   0.58093   0.00000  Uiso   1.00
C297   C     0.09250   0.86245   0.37179   0.00000  Uiso   1.00
C298   C     0.13623   0.82538   0.34242   0.00000  Uiso   1.00
C299   C     0.10587   0.83835   0.28361   0.00000  Uiso   1.00
H300   H     0.92727   0.98296   0.36186   0.00000  Uiso   1.00
H301   H     0.92441   0.10333   0.34824   0.00000  Uiso   1.00
H302   H     0.90222   0.89785   0.46672   0.00000  Uiso   1.00
H303   H     0.93515   0.96117   0.26273   0.00000  Uiso   1.00
H304   H     0.95279   0.21547   0.34566   0.00000  Uiso   1.00
H305   H     0.90601   0.78220   0.59547   0.00000  Uiso   1.00
H306   H     0.97544   0.91571   0.16533   0.00000  Uiso   1.00
H307   H     0.17037   0.81879   0.45822   0.00000  Uiso   1.00
H308   H     0.18086   0.93015   0.44988   0.00000  Uiso   1.00
H309   H     0.15866   0.72468   0.56836   0.00000  Uiso   1.00
H310   H     0.19159   0.78800   0.36437   0.00000  Uiso   1.00
H311   H     0.16093   0.07491   0.42816   0.00000  Uiso   1.00
H312   H     0.11414   0.64164   0.67797   0.00000  Uiso   1.00
H313   H     0.18358   0.77516   0.24783   0.00000  Uiso   1.00
O314   O     0.05937   0.22140   0.37970   0.00000  Uiso   1.00
O315   O     0.99798   0.65296   0.70744   0.00000  Uiso   1.00
O316   O     0.08908   0.82814   0.14311   0.00000  Uiso   1.00
N317   N     0.00034   0.16711   0.36621   0.00000  Uiso   1.00
N318   N     0.95660   0.76203   0.59977   0.00000  Uiso   1.00
N319   N     0.02151   0.88684   0.19763   0.00000  Uiso   1.00
N320   N     0.11234   0.09148   0.41060   0.00000  Uiso   1.00
N321   N     0.06859   0.68640   0.64416   0.00000  Uiso   1.00
N322   N     0.13351   0.81121   0.24202   0.00000  Uiso   1.00
C323   C     0.90002   0.28026   0.11545   0.00000  Uiso   1.00
C324   C     0.82763   0.32196   0.12276   0.00000  Uiso   1.00
C325   C     0.81081   0.31083   0.18243   0.00000  Uiso   1.00
C326   C     0.74161   0.35460   0.17855   0.00000  Uiso   1.00
C327   C     0.63689   0.41131   0.19923   0.00000  Uiso   1.00
C328   C     0.91228   0.34410   0.06733   0.00000  Uiso   1.00
C329   C     0.96664   0.35158   0.08041   0.00000  Uiso   1.00
C330   C     0.96870   0.41399   0.02986   0.00000  Uiso   1.00
C331   C     0.99543   0.50504   0.96449   0.00000  Uiso   1.00
C332   C     0.89643   0.24157   0.07881   0.00000  Uiso   1.00
C333   C     0.93747   0.16284   0.10152   0.00000  Uiso   1.00
C334   C     0.92620   0.13893   0.06063   0.00000  Uiso   1.00
C335   C     0.92832   0.07079   0.01307   0.00000  Uiso   1.00
C336   C     0.80703   0.37779   0.00244   0.00000  Uiso   1.00
C337   C     0.77712   0.37494   0.06137   0.00000  Uiso   1.00
C338   C     0.70792   0.41873   0.05740   0.00000  Uiso   1.00
C339   C     0.69101   0.40767   0.11706   0.00000  Uiso   1.00
C340   C     0.86177   0.39708   0.00596   0.00000  Uiso   1.00
C341   C     0.86375   0.45949   0.95538   0.00000  Uiso   1.00
C342   C     0.91810   0.46706   0.96837   0.00000  Uiso   1.00
C343   C     0.84591   0.29455   0.01743   0.00000  Uiso   1.00
C344   C     0.83458   0.27075   0.97649   0.00000  Uiso   1.00
C345   C     0.87560   0.19200   0.99914   0.00000  Uiso   1.00
H346   H     0.93935   0.23902   0.16323   0.00000  Uiso   1.00
H347   H     0.84992   0.26983   0.22992   0.00000  Uiso   1.00
H348   H     0.00572   0.31057   0.12791   0.00000  Uiso   1.00
H349   H     0.97656   0.12186   0.14902   0.00000  Uiso   1.00
H350   H     0.72850   0.32737   0.27678   0.00000  Uiso   1.00
H351   H     0.05703   0.41325   0.06168   0.00000  Uiso   1.00
H352   H     0.99553   0.01533   0.10620   0.00000  Uiso   1.00
H353   H     0.76770   0.41904   0.95465   0.00000  Uiso   1.00
H354   H     0.66885   0.45973   0.00989   0.00000  Uiso   1.00
H355   H     0.82466   0.50047   0.90789   0.00000  Uiso   1.00
H356   H     0.79549   0.31176   0.92900   0.00000  Uiso   1.00
H357   H     0.58153   0.48150   0.09820   0.00000  Uiso   1.00
H358   H     0.91008   0.56738   0.88310   0.00000  Uiso   1.00
H359   H     0.84857   0.16946   0.92762   0.00000  Uiso   1.00
O360   O     0.59309   0.42797   0.22759   0.00000  Uiso   1.00
O361   O     0.02412   0.54064   0.94539   0.00000  Uiso   1.00
O362   O     0.94343   0.01857   0.00379   0.00000  Uiso   1.00
N363   N     0.70747   0.35805   0.22717   0.00000  Uiso   1.00
N364   N     0.01463   0.43835   0.02607   0.00000  Uiso   1.00
N365   N     0.95715   0.06633   0.06768   0.00000  Uiso   1.00
N366   N     0.62839   0.44098   0.13108   0.00000  Uiso   1.00
N367   N     0.93555   0.52129   0.92998   0.00000  Uiso   1.00
N368   N     0.87807   0.14927   0.97159   0.00000  Uiso   1.00
C369   C     0.65657   0.28162   0.99466   0.00000  Uiso   1.00
C370   C     0.67401   0.22452   0.06936   0.00000  Uiso   1.00
C371   C     0.73855   0.17841   0.11439   0.00000  Uiso   1.00
C372   C     0.74387   0.13000   0.18061   0.00000  Uiso   1.00
C373   C     0.77963   0.04169   0.29350   0.00000  Uiso   1.00
C374   C     0.59805   0.36041   0.98079   0.00000  Uiso   1.00
C375   C     0.59872   0.42855   0.95135   0.00000  Uiso   1.00
C376   C     0.54009   0.49452   0.94300   0.00000  Uiso   1.00
C377   C     0.45791   0.61720   0.91834   0.00000  Uiso   1.00
C378   C     0.62549   0.25721   0.95955   0.00000  Uiso   1.00
C379   C     0.64923   0.23860   0.91223   0.00000  Uiso   1.00
C380   C     0.61370   0.21771   0.88599   0.00000  Uiso   1.00
C381   C     0.57413   0.18016   0.82836   0.00000  Uiso   1.00
C382   C     0.55125   0.27764   0.03218   0.00000  Uiso   1.00
C383   C     0.61680   0.22236   0.08974   0.00000  Uiso   1.00
C384   C     0.62202   0.17400   0.15590   0.00000  Uiso   1.00
C385   C     0.68656   0.12783   0.20103   0.00000  Uiso   1.00
C386   C     0.54084   0.35825   0.00117   0.00000  Uiso   1.00
C387   C     0.48220   0.42414   0.99286   0.00000  Uiso   1.00
C388   C     0.48278   0.49236   0.96342   0.00000  Uiso   1.00
C389   C     0.56829   0.25505   0.97993   0.00000  Uiso   1.00
C390   C     0.53271   0.23419   0.95375   0.00000  Uiso   1.00
C391   C     0.55639   0.21555   0.90641   0.00000  Uiso   1.00
H392   H     0.70111   0.28331   0.97879   0.00000  Uiso   1.00
H393   H     0.78280   0.18011   0.09860   0.00000  Uiso   1.00
H394   H     0.64299   0.43020   0.93557   0.00000  Uiso   1.00
H395   H     0.69350   0.24028   0.89647   0.00000  Uiso   1.00
H396   H     0.84814   0.06475   0.24042   0.00000  Uiso   1.00
H397   H     0.55334   0.59210   0.89665   0.00000  Uiso   1.00
H398   H     0.65984   0.19162   0.81420   0.00000  Uiso   1.00
H399   H     0.50671   0.27596   0.04805   0.00000  Uiso   1.00
H400   H     0.57774   0.17234   0.17166   0.00000  Uiso   1.00
H401   H     0.43793   0.42244   0.00864   0.00000  Uiso   1.00
H402   H     0.48844   0.23252   0.96954   0.00000  Uiso   1.00
H403   H     0.68171   0.05845   0.29972   0.00000  Uiso   1.00
H404   H     0.38690   0.58581   0.95595   0.00000  Uiso   1.00
H405   H     0.49341   0.18532   0.87350   0.00000  Uiso   1.00
O406   O     0.81515   0.99359   0.35014   0.00000  Uiso   1.00
O407   O     0.42838   0.68546   0.89912   0.00000  Uiso   1.00
O408   O     0.56811   0.16003   0.79095   0.00000  Uiso   1.00
N409   N     0.79923   0.07748   0.23741   0.00000  Uiso   1.00
N410   N     0.52361   0.57052   0.91602   0.00000  Uiso   1.00
N411   N     0.62317   0.19612   0.83892   0.00000  Uiso   1.00
N412   N     0.70967   0.07409   0.26932   0.00000  Uiso   1.00
N413   N     0.43405   0.56712   0.94793   0.00000  Uiso   1.00
N414   N     0.53361   0.19273   0.87083   0.00000  Uiso   1.00
C415   C     0.13903   0.32500   0.51783   0.00000  Uiso   1.00
C416   C     0.17232   0.36214   0.53271   0.00000  Uiso   1.00
C417   C     0.19756   0.34426   0.59571   0.00000  Uiso   1.00
C418   C     0.22609   0.38475   0.59877   0.00000  Uiso   1.00
C419   C     0.27728   0.43387   0.63068   0.00000  Uiso   1.00
C420   C     0.06796   0.39195   0.46985   0.00000  Uiso   1.00
C421   C     0.00546   0.39913   0.47999   0.00000  Uiso   1.00
C422   C     0.94614   0.46470   0.43013   0.00000  Uiso   1.00
C423   C     0.83531   0.56008   0.36442   0.00000  Uiso   1.00
C424   C     0.18076   0.29198   0.47789   0.00000  Uiso   1.00
C425   C     0.21309   0.21510   0.49478   0.00000  Uiso   1.00
C426   C     0.24873   0.19650   0.45168   0.00000  Uiso   1.00
C427   C     0.31304   0.13665   0.39845   0.00000  Uiso   1.00
C428   C     0.14481   0.42869   0.41124   0.00000  Uiso   1.00
C429   C     0.17546   0.41846   0.47482   0.00000  Uiso   1.00
C430   C     0.20396   0.45898   0.47778   0.00000  Uiso   1.00
C431   C     0.22925   0.44116   0.54077   0.00000  Uiso   1.00
C432   C     0.07110   0.44827   0.41196   0.00000  Uiso   1.00
C433   C     0.01186   0.51384   0.36207   0.00000  Uiso   1.00
C434   C     0.94929   0.52112   0.37213   0.00000  Uiso   1.00
C435   C     0.18390   0.34829   0.41999   0.00000  Uiso   1.00
C436   C     0.21949   0.32981   0.37685   0.00000  Uiso   1.00
C437   C     0.25187   0.25292   0.39368   0.00000  Uiso   1.00
H438   H     0.13658   0.28116   0.56290   0.00000  Uiso   1.00
H439   H     0.19511   0.30068   0.64050   0.00000  Uiso   1.00
H440   H     0.00305   0.35554   0.52480   0.00000  Uiso   1.00
H441   H     0.21065   0.17153   0.53959   0.00000  Uiso   1.00
H442   H     0.26138   0.34718   0.70100   0.00000  Uiso   1.00
H443   H     0.85639   0.46283   0.45702   0.00000  Uiso   1.00
H444   H     0.29415   0.07482   0.48820   0.00000  Uiso   1.00
H445   H     0.14726   0.47254   0.36617   0.00000  Uiso   1.00
H446   H     0.20639   0.50256   0.43297   0.00000  Uiso   1.00
H447   H     0.01432   0.55741   0.31727   0.00000  Uiso   1.00
H448   H     0.22191   0.37341   0.33205   0.00000  Uiso   1.00
H449   H     0.27052   0.51103   0.53256   0.00000  Uiso   1.00
H450   H     0.86554   0.62668   0.28858   0.00000  Uiso   1.00
H451   H     0.30330   0.23867   0.31976   0.00000  Uiso   1.00
O452   O     0.30463   0.44542   0.66428   0.00000  Uiso   1.00
O453   O     0.77331   0.59714   0.34418   0.00000  Uiso   1.00
O454   O     0.34765   0.08808   0.38509   0.00000  Uiso   1.00
N455   N     0.25543   0.38161   0.65219   0.00000  Uiso   1.00
N456   N     0.87679   0.48974   0.42409   0.00000  Uiso   1.00
N457   N     0.28605   0.12699   0.45323   0.00000  Uiso   1.00
N458   N     0.26035   0.46978   0.56156   0.00000  Uiso   1.00
N459   N     0.88171   0.57791   0.33346   0.00000  Uiso   1.00
N460   N     0.29097   0.21516   0.36260   0.00000  Uiso   1.00
C461   C     0.37876   0.29852   0.45129   0.00000  Uiso   1.00
C462   C     0.39866   0.26585   0.52608   0.00000  Uiso   1.00
C463   C     0.36382   0.24090   0.57121   0.00000  Uiso   1.00
C464   C     0.39024   0.21294   0.63750   0.00000  Uiso   1.00
C465   C     0.41213   0.16269   0.75052   0.00000  Uiso   1.00
C466   C     0.37018   0.37851   0.41658   0.00000  Uiso   1.00
C467   C     0.31140   0.44827   0.36964   0.00000  Uiso   1.00
C468   C     0.31384   0.51515   0.34374   0.00000  Uiso   1.00
C469   C     0.29153   0.63980   0.28673   0.00000  Uiso   1.00
C470   C     0.44204   0.24759   0.43690   0.00000  Uiso   1.00
C471   C     0.44367   0.20729   0.40702   0.00000  Uiso   1.00
C472   C     0.50661   0.16395   0.39822   0.00000  Uiso   1.00
C473   C     0.59587   0.08532   0.37276   0.00000  Uiso   1.00
C474   C     0.48763   0.29325   0.48878   0.00000  Uiso   1.00
C475   C     0.45780   0.26300   0.54644   0.00000  Uiso   1.00
C476   C     0.48428   0.23507   0.61268   0.00000  Uiso   1.00
C477   C     0.44949   0.21007   0.65790   0.00000  Uiso   1.00
C478   C     0.42931   0.37566   0.43694   0.00000  Uiso   1.00
C479   C     0.43185   0.44245   0.41111   0.00000  Uiso   1.00
C480   C     0.37309   0.51229   0.36414   0.00000  Uiso   1.00
C481   C     0.50118   0.24473   0.45726   0.00000  Uiso   1.00
C482   C     0.56413   0.20146   0.44850   0.00000  Uiso   1.00
C483   C     0.56585   0.16109   0.41862   0.00000  Uiso   1.00
H484   H     0.33272   0.30075   0.43544   0.00000  Uiso   1.00
H485   H     0.31806   0.24313   0.55543   0.00000  Uiso   1.00
H486   H     0.26564   0.45047   0.35388   0.00000  Uiso   1.00
H487   H     0.39790   0.20951   0.39127   0.00000  Uiso   1.00
H488   H     0.32787   0.17800   0.69743   0.00000  Uiso   1.00
H489   H     0.21736   0.61519   0.27245   0.00000  Uiso   1.00
H490   H     0.49624   0.10709   0.35128   0.00000  Uiso   1.00
H491   H     0.53367   0.29103   0.50463   0.00000  Uiso   1.00
H492   H     0.53004   0.23286   0.62842   0.00000  Uiso   1.00
H493   H     0.47763   0.44021   0.42688   0.00000  Uiso   1.00
H494   H     0.60988   0.19926   0.46426   0.00000  Uiso   1.00
H495   H     0.49992   0.16967   0.75668   0.00000  Uiso   1.00
H496   H     0.38941   0.60686   0.33169   0.00000  Uiso   1.00
H497   H     0.66829   0.09877   0.41053   0.00000  Uiso   1.00
O498   O     0.40787   0.13577   0.80724   0.00000  Uiso   1.00
O499   O     0.26289   0.70934   0.24967   0.00000  Uiso   1.00
O500   O     0.62877   0.04273   0.35310   0.00000  Uiso   1.00
N501   N     0.36887   0.18401   0.69439   0.00000  Uiso   1.00
N502   N     0.26554   0.59275   0.29707   0.00000  Uiso   1.00
N503   N     0.52627   0.11774   0.37075   0.00000  Uiso   1.00
N504   N     0.46145   0.17953   0.72627   0.00000  Uiso   1.00
N505   N     0.35812   0.58827   0.32895   0.00000  Uiso   1.00
N506   N     0.61885   0.11326   0.40263   0.00000  Uiso   1.00
C507   C     0.36812   0.00388   0.79279   0.00000  Uiso   1.00
C508   C     0.29386   0.02372   0.78037   0.00000  Uiso   1.00
C509   C     0.23507   0.09726   0.75412   0.00000  Uiso   1.00
C510   C     0.17187   0.10330   0.74663   0.00000  Uiso   1.00
C511   C     0.05720   0.14401   0.72461   0.00000  Uiso   1.00
C512   C     0.40255   0.94096   0.86662   0.00000  Uiso   1.00
C513   C     0.43515   0.94492   0.91289   0.00000  Uiso   1.00
C514   C     0.46346   0.88128   0.97801   0.00000  Uiso   1.00
C515   C     0.51757   0.79348   0.08990   0.00000  Uiso   1.00
C516   C     0.40268   0.96469   0.75427   0.00000  Uiso   1.00
C517   C     0.43540   0.98859   0.70609   0.00000  Uiso   1.00
C518   C     0.46383   0.94492   0.67662   0.00000  Uiso   1.00
C519   C     0.51814   0.89397   0.61406   0.00000  Uiso   1.00
C520   C     0.36043   0.88381   0.82617   0.00000  Uiso   1.00
C521   C     0.28969   0.95850   0.79850   0.00000  Uiso   1.00
C522   C     0.22656   0.96442   0.79105   0.00000  Uiso   1.00
C523   C     0.16769   0.03796   0.76479   0.00000  Uiso   1.00
C524   C     0.39838   0.87574   0.88475   0.00000  Uiso   1.00
C525   C     0.42664   0.81207   0.94982   0.00000  Uiso   1.00
C526   C     0.45927   0.81594   0.99618   0.00000  Uiso   1.00
C527   C     0.39850   0.89947   0.77240   0.00000  Uiso   1.00
C528   C     0.42689   0.85575   0.74301   0.00000  Uiso   1.00
C529   C     0.45964   0.87958   0.69479   0.00000  Uiso   1.00
H530   H     0.37137   0.05465   0.77868   0.00000  Uiso   1.00
H531   H     0.23832   0.14772   0.74010   0.00000  Uiso   1.00
H532   H     0.43838   0.99539   0.89885   0.00000  Uiso   1.00
H533   H     0.43862   0.03906   0.69207   0.00000  Uiso   1.00
H534   H     0.08897   0.22214   0.70534   0.00000  Uiso   1.00
H535   H     0.51082   0.90094   0.04006   0.00000  Uiso   1.00
H536   H     0.51134   0.99302   0.60403   0.00000  Uiso   1.00
H537   H     0.35718   0.83303   0.84029   0.00000  Uiso   1.00
H538   H     0.22335   0.91394   0.80508   0.00000  Uiso   1.00
H539   H     0.42341   0.76161   0.96383   0.00000  Uiso   1.00
H540   H     0.42365   0.80528   0.75706   0.00000  Uiso   1.00
H541   H     0.07681   0.03239   0.75808   0.00000  Uiso   1.00
H542   H     0.49867   0.71119   0.09281   0.00000  Uiso   1.00
H543   H     0.49918   0.80327   0.65678   0.00000  Uiso   1.00
O544   O     0.99511   0.18448   0.70746   0.00000  Uiso   1.00
O545   O     0.54857   0.76307   0.14660   0.00000  Uiso   1.00
O546   O     0.54924   0.88389   0.57454   0.00000  Uiso   1.00
N547   N     0.10448   0.16638   0.72257   0.00000  Uiso   1.00
N548   N     0.49887   0.86608   0.03552   0.00000  Uiso   1.00
N549   N     0.49937   0.95216   0.62788   0.00000  Uiso   1.00
N550   N     0.09793   0.06428   0.75095   0.00000  Uiso   1.00
N551   N     0.49233   0.76398   0.06390   0.00000  Uiso   1.00
N552   N     0.49283   0.85006   0.65626   0.00000  Uiso   1.00
