data_job_04121
_audit_creation_date              2018-12-19
_audit_creation_method            'Materials Studio'
_symmetry_space_group_name_H-M    'P1'
_symmetry_Int_Tables_number       1
_symmetry_cell_setting            triclinic
loop_
_symmetry_equiv_pos_as_xyz
  x,y,z
_cell_length_a                    14.2743
_cell_length_b                    9.7384
_cell_length_c                    24.4405
_cell_angle_alpha                 90.0000
_cell_angle_beta                  74.3556
_cell_angle_gamma                 90.0000
loop_
_atom_site_label
_atom_site_type_symbol
_atom_site_fract_x
_atom_site_fract_y
_atom_site_fract_z
_atom_site_U_iso_or_equiv
_atom_site_adp_type
_atom_site_occupancy
C1     C     0.15835   0.81428   0.98875   0.00000  Uiso   1.00
C2     C     0.12371   0.71953   0.03990   0.00000  Uiso   1.00
C3     C     0.02744   0.69293   0.06850   0.00000  Uiso   1.00
C4     C     0.01086   0.60324   0.11427   0.00000  Uiso   1.00
C5     C     0.94535   0.46543   0.19120   0.00000  Uiso   1.00
C6     C     0.22493   0.91950   0.00534   0.00000  Uiso   1.00
C7     C     0.21378   0.06103   0.00487   0.00000  Uiso   1.00
C8     C     0.28243   0.13967   0.02154   0.00000  Uiso   1.00
C9     C     0.37412   0.31231   0.04477   0.00000  Uiso   1.00
C10    C     0.22355   0.72707   0.94187   0.00000  Uiso   1.00
C11    C     0.21125   0.70684   0.88802   0.00000  Uiso   1.00
C12    C     0.27874   0.62348   0.85125   0.00000  Uiso   1.00
C13    C     0.36828   0.49735   0.77593   0.00000  Uiso   1.00
C14    C     0.30009   0.70228   0.01918   0.00000  Uiso   1.00
C15    C     0.20070   0.65871   0.05643   0.00000  Uiso   1.00
C16    C     0.18426   0.56902   0.10217   0.00000  Uiso   1.00
C17    C     0.08798   0.54229   0.13083   0.00000  Uiso   1.00
C18    C     0.30192   0.85867   0.02187   0.00000  Uiso   1.00
C19    C     0.37060   0.93712   0.03854   0.00000  Uiso   1.00
C20    C     0.35955   0.07873   0.03810   0.00000  Uiso   1.00
C21    C     0.30054   0.66624   0.95840   0.00000  Uiso   1.00
C22    C     0.36807   0.58292   0.92169   0.00000  Uiso   1.00
C23    C     0.35587   0.56255   0.86781   0.00000  Uiso   1.00
H24    H     0.09842   0.86165   0.97589   0.00000  Uiso   1.00
H25    H     0.96788   0.74004   0.05570   0.00000  Uiso   1.00
H26    H     0.15420   0.10808   0.99207   0.00000  Uiso   1.00
H27    H     0.15167   0.75393   0.87525   0.00000  Uiso   1.00
H28    H     0.85711   0.57843   0.15150   0.00000  Uiso   1.00
H29    H     0.25000   0.35445   0.01732   0.00000  Uiso   1.00
H30    H     0.24465   0.60766   0.77097   0.00000  Uiso   1.00
H31    H     0.36003   0.65493   0.03205   0.00000  Uiso   1.00
H32    H     0.24385   0.52196   0.11495   0.00000  Uiso   1.00
H33    H     0.43017   0.89001   0.05132   0.00000  Uiso   1.00
H34    H     0.42763   0.53586   0.93450   0.00000  Uiso   1.00
H35    H     0.08110   0.40143   0.19959   0.00000  Uiso   1.00
H36    H     0.47398   0.17746   0.06540   0.00000  Uiso   1.00
H37    H     0.46864   0.43067   0.81905   0.00000  Uiso   1.00
O38    O     0.88795   0.40623   0.22907   0.00000  Uiso   1.00
O39    O     0.40341   0.42435   0.05302   0.00000  Uiso   1.00
O40    O     0.39640   0.44457   0.72982   0.00000  Uiso   1.00
N41    N     0.92577   0.55500   0.15143   0.00000  Uiso   1.00
N42    N     0.29309   0.28054   0.02599   0.00000  Uiso   1.00
N43    N     0.28810   0.58238   0.79567   0.00000  Uiso   1.00
N44    N     0.04629   0.45976   0.17731   0.00000  Uiso   1.00
N45    N     0.41361   0.18530   0.05186   0.00000  Uiso   1.00
N46    N     0.40863   0.48714   0.82154   0.00000  Uiso   1.00
C47    C     0.84165   0.81428   0.51125   0.00000  Uiso   1.00
C48    C     0.87629   0.71953   0.46010   0.00000  Uiso   1.00
C49    C     0.97256   0.69293   0.43150   0.00000  Uiso   1.00
C50    C     0.98914   0.60324   0.38573   0.00000  Uiso   1.00
C51    C     0.05465   0.46543   0.30880   0.00000  Uiso   1.00
C52    C     0.77507   0.91950   0.49466   0.00000  Uiso   1.00
C53    C     0.78622   0.06103   0.49513   0.00000  Uiso   1.00
C54    C     0.71757   0.13967   0.47846   0.00000  Uiso   1.00
C55    C     0.62588   0.31231   0.45523   0.00000  Uiso   1.00
C56    C     0.77645   0.72707   0.55813   0.00000  Uiso   1.00
C57    C     0.78875   0.70684   0.61198   0.00000  Uiso   1.00
C58    C     0.72126   0.62348   0.64875   0.00000  Uiso   1.00
C59    C     0.63172   0.49735   0.72407   0.00000  Uiso   1.00
C60    C     0.69991   0.70228   0.48082   0.00000  Uiso   1.00
C61    C     0.79930   0.65871   0.44357   0.00000  Uiso   1.00
C62    C     0.81574   0.56902   0.39783   0.00000  Uiso   1.00
C63    C     0.91202   0.54229   0.36917   0.00000  Uiso   1.00
C64    C     0.69808   0.85867   0.47813   0.00000  Uiso   1.00
C65    C     0.62940   0.93712   0.46146   0.00000  Uiso   1.00
C66    C     0.64045   0.07873   0.46190   0.00000  Uiso   1.00
C67    C     0.69946   0.66624   0.54160   0.00000  Uiso   1.00
C68    C     0.63193   0.58292   0.57831   0.00000  Uiso   1.00
C69    C     0.64413   0.56255   0.63219   0.00000  Uiso   1.00
H70    H     0.90158   0.86165   0.52411   0.00000  Uiso   1.00
H71    H     0.03212   0.74004   0.44430   0.00000  Uiso   1.00
H72    H     0.84580   0.10808   0.50793   0.00000  Uiso   1.00
H73    H     0.84833   0.75393   0.62475   0.00000  Uiso   1.00
H74    H     0.14289   0.57843   0.34850   0.00000  Uiso   1.00
H75    H     0.75000   0.35445   0.48268   0.00000  Uiso   1.00
H76    H     0.75535   0.60766   0.72903   0.00000  Uiso   1.00
H77    H     0.63997   0.65493   0.46795   0.00000  Uiso   1.00
H78    H     0.75615   0.52196   0.38505   0.00000  Uiso   1.00
H79    H     0.56983   0.89001   0.44868   0.00000  Uiso   1.00
H80    H     0.57237   0.53586   0.56550   0.00000  Uiso   1.00
H81    H     0.91890   0.40143   0.30041   0.00000  Uiso   1.00
H82    H     0.52602   0.17746   0.43460   0.00000  Uiso   1.00
H83    H     0.53136   0.43067   0.68095   0.00000  Uiso   1.00
O84    O     0.11205   0.40623   0.27093   0.00000  Uiso   1.00
O85    O     0.59659   0.42435   0.44698   0.00000  Uiso   1.00
O86    O     0.60360   0.44457   0.77018   0.00000  Uiso   1.00
N87    N     0.07423   0.55500   0.34857   0.00000  Uiso   1.00
N88    N     0.70691   0.28054   0.47401   0.00000  Uiso   1.00
N89    N     0.71190   0.58238   0.70433   0.00000  Uiso   1.00
N90    N     0.95371   0.45976   0.32269   0.00000  Uiso   1.00
N91    N     0.58639   0.18530   0.44814   0.00000  Uiso   1.00
N92    N     0.59137   0.48714   0.67846   0.00000  Uiso   1.00
C93    C     0.84165   0.18572   0.01125   0.00000  Uiso   1.00
C94    C     0.87629   0.28047   0.96010   0.00000  Uiso   1.00
C95    C     0.97256   0.30707   0.93150   0.00000  Uiso   1.00
C96    C     0.98914   0.39676   0.88573   0.00000  Uiso   1.00
C97    C     0.05465   0.53457   0.80880   0.00000  Uiso   1.00
C98    C     0.77507   0.08050   0.99466   0.00000  Uiso   1.00
C99    C     0.78622   0.93897   0.99513   0.00000  Uiso   1.00
C100   C     0.71757   0.86033   0.97846   0.00000  Uiso   1.00
C101   C     0.62588   0.68769   0.95523   0.00000  Uiso   1.00
C102   C     0.77645   0.27293   0.05813   0.00000  Uiso   1.00
C103   C     0.78875   0.29316   0.11198   0.00000  Uiso   1.00
C104   C     0.72126   0.37652   0.14875   0.00000  Uiso   1.00
C105   C     0.63172   0.50265   0.22407   0.00000  Uiso   1.00
C106   C     0.69991   0.29772   0.98082   0.00000  Uiso   1.00
C107   C     0.79930   0.34129   0.94357   0.00000  Uiso   1.00
C108   C     0.81574   0.43098   0.89783   0.00000  Uiso   1.00
C109   C     0.91202   0.45771   0.86917   0.00000  Uiso   1.00
C110   C     0.69808   0.14133   0.97813   0.00000  Uiso   1.00
C111   C     0.62940   0.06288   0.96146   0.00000  Uiso   1.00
C112   C     0.64045   0.92127   0.96190   0.00000  Uiso   1.00
C113   C     0.69946   0.33376   0.04160   0.00000  Uiso   1.00
C114   C     0.63193   0.41708   0.07831   0.00000  Uiso   1.00
C115   C     0.64413   0.43745   0.13219   0.00000  Uiso   1.00
H116   H     0.90158   0.13835   0.02411   0.00000  Uiso   1.00
H117   H     0.03212   0.25996   0.94430   0.00000  Uiso   1.00
H118   H     0.84580   0.89192   0.00793   0.00000  Uiso   1.00
H119   H     0.84833   0.24607   0.12475   0.00000  Uiso   1.00
H120   H     0.14289   0.42157   0.84850   0.00000  Uiso   1.00
H121   H     0.75000   0.64555   0.98268   0.00000  Uiso   1.00
H122   H     0.75535   0.39234   0.22903   0.00000  Uiso   1.00
H123   H     0.63997   0.34507   0.96795   0.00000  Uiso   1.00
H124   H     0.75615   0.47804   0.88505   0.00000  Uiso   1.00
H125   H     0.56983   0.10999   0.94868   0.00000  Uiso   1.00
H126   H     0.57237   0.46414   0.06550   0.00000  Uiso   1.00
H127   H     0.91890   0.59857   0.80041   0.00000  Uiso   1.00
H128   H     0.52602   0.82254   0.93460   0.00000  Uiso   1.00
H129   H     0.53136   0.56933   0.18095   0.00000  Uiso   1.00
O130   O     0.11205   0.59377   0.77093   0.00000  Uiso   1.00
O131   O     0.59659   0.57565   0.94698   0.00000  Uiso   1.00
O132   O     0.60360   0.55543   0.27018   0.00000  Uiso   1.00
N133   N     0.07423   0.44500   0.84857   0.00000  Uiso   1.00
N134   N     0.70691   0.71946   0.97401   0.00000  Uiso   1.00
N135   N     0.71190   0.41762   0.20433   0.00000  Uiso   1.00
N136   N     0.95371   0.54024   0.82269   0.00000  Uiso   1.00
N137   N     0.58639   0.81470   0.94814   0.00000  Uiso   1.00
N138   N     0.59137   0.51286   0.17846   0.00000  Uiso   1.00
C139   C     0.15835   0.18572   0.48875   0.00000  Uiso   1.00
C140   C     0.12371   0.28047   0.53990   0.00000  Uiso   1.00
C141   C     0.02744   0.30707   0.56850   0.00000  Uiso   1.00
C142   C     0.01086   0.39676   0.61427   0.00000  Uiso   1.00
C143   C     0.94535   0.53457   0.69120   0.00000  Uiso   1.00
C144   C     0.22493   0.08050   0.50534   0.00000  Uiso   1.00
C145   C     0.21378   0.93897   0.50487   0.00000  Uiso   1.00
C146   C     0.28243   0.86033   0.52154   0.00000  Uiso   1.00
C147   C     0.37412   0.68769   0.54477   0.00000  Uiso   1.00
C148   C     0.22355   0.27293   0.44187   0.00000  Uiso   1.00
C149   C     0.21125   0.29316   0.38802   0.00000  Uiso   1.00
C150   C     0.27874   0.37652   0.35125   0.00000  Uiso   1.00
C151   C     0.36828   0.50265   0.27593   0.00000  Uiso   1.00
C152   C     0.30009   0.29772   0.51918   0.00000  Uiso   1.00
C153   C     0.20070   0.34129   0.55643   0.00000  Uiso   1.00
C154   C     0.18426   0.43098   0.60217   0.00000  Uiso   1.00
C155   C     0.08798   0.45771   0.63083   0.00000  Uiso   1.00
C156   C     0.30192   0.14133   0.52187   0.00000  Uiso   1.00
C157   C     0.37060   0.06288   0.53854   0.00000  Uiso   1.00
C158   C     0.35955   0.92127   0.53810   0.00000  Uiso   1.00
C159   C     0.30054   0.33376   0.45840   0.00000  Uiso   1.00
C160   C     0.36807   0.41708   0.42169   0.00000  Uiso   1.00
C161   C     0.35587   0.43745   0.36781   0.00000  Uiso   1.00
H162   H     0.09842   0.13835   0.47589   0.00000  Uiso   1.00
H163   H     0.96788   0.25996   0.55570   0.00000  Uiso   1.00
H164   H     0.15420   0.89192   0.49207   0.00000  Uiso   1.00
H165   H     0.15167   0.24607   0.37525   0.00000  Uiso   1.00
H166   H     0.85711   0.42157   0.65150   0.00000  Uiso   1.00
H167   H     0.25000   0.64555   0.51732   0.00000  Uiso   1.00
H168   H     0.24465   0.39234   0.27097   0.00000  Uiso   1.00
H169   H     0.36003   0.34507   0.53205   0.00000  Uiso   1.00
H170   H     0.24385   0.47804   0.61495   0.00000  Uiso   1.00
H171   H     0.43017   0.10999   0.55132   0.00000  Uiso   1.00
H172   H     0.42763   0.46414   0.43450   0.00000  Uiso   1.00
H173   H     0.08110   0.59857   0.69959   0.00000  Uiso   1.00
H174   H     0.47398   0.82254   0.56540   0.00000  Uiso   1.00
H175   H     0.46864   0.56933   0.31905   0.00000  Uiso   1.00
O176   O     0.88795   0.59377   0.72907   0.00000  Uiso   1.00
O177   O     0.40341   0.57565   0.55302   0.00000  Uiso   1.00
O178   O     0.39640   0.55543   0.22982   0.00000  Uiso   1.00
N179   N     0.92577   0.44500   0.65143   0.00000  Uiso   1.00
N180   N     0.29309   0.71946   0.52599   0.00000  Uiso   1.00
N181   N     0.28810   0.41762   0.29567   0.00000  Uiso   1.00
N182   N     0.04629   0.54024   0.67731   0.00000  Uiso   1.00
N183   N     0.41361   0.81470   0.55186   0.00000  Uiso   1.00
N184   N     0.40863   0.51286   0.32154   0.00000  Uiso   1.00
