data_job_01875
_audit_creation_date              2018-12-19
_audit_creation_method            'Materials Studio'
_symmetry_space_group_name_H-M    'P1'
_symmetry_Int_Tables_number       1
_symmetry_cell_setting            triclinic
loop_
_symmetry_equiv_pos_as_xyz
  x,y,z
_cell_length_a                    12.4709
_cell_length_b                    12.4709
_cell_length_c                    23.0226
_cell_angle_alpha                 90.0000
_cell_angle_beta                  90.0000
_cell_angle_gamma                 120.0000
loop_
_atom_site_label
_atom_site_type_symbol
_atom_site_fract_x
_atom_site_fract_y
_atom_site_fract_z
_atom_site_U_iso_or_equiv
_atom_site_adp_type
_atom_site_occupancy
C1     C     0.37317   0.50788   0.49702   0.00000  Uiso   1.00
C2     C     0.26739   0.37933   0.48135   0.00000  Uiso   1.00
C3     C     0.14379   0.34610   0.47567   0.00000  Uiso   1.00
C4     C     0.06124   0.22384   0.46110   0.00000  Uiso   1.00
C5     C     0.89094   0.03728   0.43811   0.00000  Uiso   1.00
C6     C     0.43457   0.49086   0.55077   0.00000  Uiso   1.00
C7     C     0.45156   0.55142   0.60345   0.00000  Uiso   1.00
C8     C     0.50975   0.52305   0.64729   0.00000  Uiso   1.00
C9     C     0.59909   0.50970   0.73206   0.00000  Uiso   1.00
C10    C     0.46768   0.54515   0.44811   0.00000  Uiso   1.00
C11    C     0.51253   0.65137   0.41448   0.00000  Uiso   1.00
C12    C     0.59862   0.66873   0.37191   0.00000  Uiso   1.00
C13    C     0.73936   0.73968   0.29728   0.00000  Uiso   1.00
C14    C     0.44634   0.34985   0.48122   0.00000  Uiso   1.00
C15    C     0.30714   0.29350   0.47277   0.00000  Uiso   1.00
C16    C     0.22475   0.17126   0.45820   0.00000  Uiso   1.00
C17    C     0.10105   0.13785   0.45250   0.00000  Uiso   1.00
C18    C     0.47432   0.40503   0.54219   0.00000  Uiso   1.00
C19    C     0.53251   0.37657   0.58597   0.00000  Uiso   1.00
C20    C     0.54957   0.43706   0.63870   0.00000  Uiso   1.00
C21    C     0.50742   0.45931   0.43953   0.00000  Uiso   1.00
C22    C     0.59348   0.47652   0.39700   0.00000  Uiso   1.00
C23    C     0.63844   0.58274   0.36332   0.00000  Uiso   1.00
H24    H     0.34223   0.57471   0.50370   0.00000  Uiso   1.00
H25    H     0.11307   0.41256   0.48232   0.00000  Uiso   1.00
H26    H     0.42080   0.61784   0.61007   0.00000  Uiso   1.00
H27    H     0.48175   0.71778   0.42114   0.00000  Uiso   1.00
H28    H     0.87653   0.19491   0.45486   0.00000  Uiso   1.00
H29    H     0.52542   0.62780   0.72422   0.00000  Uiso   1.00
H30    H     0.65396   0.83854   0.32581   0.00000  Uiso   1.00
H31    H     0.47729   0.28302   0.47454   0.00000  Uiso   1.00
H32    H     0.25553   0.10485   0.45156   0.00000  Uiso   1.00
H33    H     0.56326   0.31014   0.57931   0.00000  Uiso   1.00
H34    H     0.62421   0.41008   0.39037   0.00000  Uiso   1.00
H35    H     0.99215   0.94516   0.42990   0.00000  Uiso   1.00
H36    H     0.64106   0.37807   0.69925   0.00000  Uiso   1.00
H37    H     0.76959   0.58879   0.30084   0.00000  Uiso   1.00
O38    O     0.78602   0.95809   0.42781   0.00000  Uiso   1.00
O39    O     0.63737   0.52605   0.78119   0.00000  Uiso   1.00
O40    O     0.80600   0.80252   0.25849   0.00000  Uiso   1.00
N41    N     0.93418   0.16059   0.45213   0.00000  Uiso   1.00
N42    N     0.54084   0.56531   0.70396   0.00000  Uiso   1.00
N43    N     0.66103   0.76234   0.33150   0.00000  Uiso   1.00
N44    N     0.99639   0.02620   0.43869   0.00000  Uiso   1.00
N45    N     0.60306   0.43092   0.69053   0.00000  Uiso   1.00
N46    N     0.72325   0.62796   0.31806   0.00000  Uiso   1.00
C47    C     0.49212   0.86528   0.83035   0.00000  Uiso   1.00
C48    C     0.62067   0.88806   0.81469   0.00000  Uiso   1.00
C49    C     0.65390   0.79769   0.80901   0.00000  Uiso   1.00
C50    C     0.77616   0.83739   0.79443   0.00000  Uiso   1.00
C51    C     0.96272   0.85366   0.77144   0.00000  Uiso   1.00
C52    C     0.50914   0.94371   0.88410   0.00000  Uiso   1.00
C53    C     0.44858   0.90014   0.93678   0.00000  Uiso   1.00
C54    C     0.47695   0.98670   0.98063   0.00000  Uiso   1.00
C55    C     0.49030   0.08939   0.06539   0.00000  Uiso   1.00
C56    C     0.45485   0.92253   0.78144   0.00000  Uiso   1.00
C57    C     0.34863   0.86115   0.74782   0.00000  Uiso   1.00
C58    C     0.33127   0.92989   0.70524   0.00000  Uiso   1.00
C59    C     0.26032   0.99968   0.63062   0.00000  Uiso   1.00
C60    C     0.65015   0.09649   0.81455   0.00000  Uiso   1.00
C61    C     0.70650   0.01364   0.80611   0.00000  Uiso   1.00
C62    C     0.82874   0.05349   0.79153   0.00000  Uiso   1.00
C63    C     0.86215   0.96320   0.78583   0.00000  Uiso   1.00
C64    C     0.59497   0.06929   0.87552   0.00000  Uiso   1.00
C65    C     0.62343   0.15594   0.91930   0.00000  Uiso   1.00
C66    C     0.56294   0.11251   0.97203   0.00000  Uiso   1.00
C67    C     0.54069   0.04811   0.77286   0.00000  Uiso   1.00
C68    C     0.52348   0.11696   0.73034   0.00000  Uiso   1.00
C69    C     0.41726   0.05570   0.69665   0.00000  Uiso   1.00
H70    H     0.42529   0.76752   0.83703   0.00000  Uiso   1.00
H71    H     0.58744   0.70051   0.81566   0.00000  Uiso   1.00
H72    H     0.38216   0.80295   0.94340   0.00000  Uiso   1.00
H73    H     0.28222   0.76397   0.75447   0.00000  Uiso   1.00
H74    H     0.80509   0.68162   0.78820   0.00000  Uiso   1.00
H75    H     0.37220   0.89762   0.05755   0.00000  Uiso   1.00
H76    H     0.16146   0.81542   0.65914   0.00000  Uiso   1.00
H77    H     0.71698   0.19427   0.80787   0.00000  Uiso   1.00
H78    H     0.89515   0.15068   0.78489   0.00000  Uiso   1.00
H79    H     0.68986   0.25312   0.91264   0.00000  Uiso   1.00
H80    H     0.58992   0.21414   0.72371   0.00000  Uiso   1.00
H81    H     0.05484   0.04699   0.76323   0.00000  Uiso   1.00
H82    H     0.62193   0.26299   0.03258   0.00000  Uiso   1.00
H83    H     0.41121   0.18079   0.63418   0.00000  Uiso   1.00
O84    O     0.04191   0.82794   0.76114   0.00000  Uiso   1.00
O85    O     0.47395   0.11133   0.11452   0.00000  Uiso   1.00
O86    O     0.19748   0.00348   0.59182   0.00000  Uiso   1.00
N87    N     0.83941   0.77359   0.78546   0.00000  Uiso   1.00
N88    N     0.43469   0.97553   0.03730   0.00000  Uiso   1.00
N89    N     0.23766   0.89869   0.66483   0.00000  Uiso   1.00
N90    N     0.97380   0.97019   0.77203   0.00000  Uiso   1.00
N91    N     0.56908   0.17214   0.02386   0.00000  Uiso   1.00
N92    N     0.37204   0.09529   0.65140   0.00000  Uiso   1.00
C93    C     0.13472   0.62683   0.16368   0.00000  Uiso   1.00
C94    C     0.11194   0.73261   0.14802   0.00000  Uiso   1.00
C95    C     0.20231   0.85621   0.14234   0.00000  Uiso   1.00
C96    C     0.16261   0.93876   0.12776   0.00000  Uiso   1.00
C97    C     0.14634   0.10906   0.10478   0.00000  Uiso   1.00
C98    C     0.05629   0.56543   0.21743   0.00000  Uiso   1.00
C99    C     0.09986   0.54844   0.27011   0.00000  Uiso   1.00
C100   C     0.01330   0.49025   0.31396   0.00000  Uiso   1.00
C101   C     0.91061   0.40091   0.39873   0.00000  Uiso   1.00
C102   C     0.07747   0.53232   0.11478   0.00000  Uiso   1.00
C103   C     0.13885   0.48747   0.08115   0.00000  Uiso   1.00
C104   C     0.07011   0.40138   0.03858   0.00000  Uiso   1.00
C105   C     0.00032   0.26064   0.96395   0.00000  Uiso   1.00
C106   C     0.90351   0.55366   0.14788   0.00000  Uiso   1.00
C107   C     0.98636   0.69286   0.13944   0.00000  Uiso   1.00
C108   C     0.94651   0.77525   0.12486   0.00000  Uiso   1.00
C109   C     0.03680   0.89895   0.11916   0.00000  Uiso   1.00
C110   C     0.93071   0.52568   0.20885   0.00000  Uiso   1.00
C111   C     0.84406   0.46749   0.25263   0.00000  Uiso   1.00
C112   C     0.88749   0.45043   0.30537   0.00000  Uiso   1.00
C113   C     0.95189   0.49258   0.10619   0.00000  Uiso   1.00
C114   C     0.88304   0.40652   0.06367   0.00000  Uiso   1.00
C115   C     0.94430   0.36156   0.02998   0.00000  Uiso   1.00
H116   H     0.23248   0.65777   0.17037   0.00000  Uiso   1.00
H117   H     0.29949   0.88693   0.14899   0.00000  Uiso   1.00
H118   H     0.19705   0.57920   0.27674   0.00000  Uiso   1.00
H119   H     0.23603   0.51825   0.08780   0.00000  Uiso   1.00
H120   H     0.31838   0.12347   0.12153   0.00000  Uiso   1.00
H121   H     0.10238   0.47458   0.39088   0.00000  Uiso   1.00
H122   H     0.18458   0.34604   0.99248   0.00000  Uiso   1.00
H123   H     0.80573   0.52271   0.14121   0.00000  Uiso   1.00
H124   H     0.84932   0.74447   0.11823   0.00000  Uiso   1.00
H125   H     0.74688   0.43674   0.24598   0.00000  Uiso   1.00
H126   H     0.78586   0.37579   0.05704   0.00000  Uiso   1.00
H127   H     0.95301   0.00785   0.09656   0.00000  Uiso   1.00
H128   H     0.73701   0.35894   0.36592   0.00000  Uiso   1.00
H129   H     0.81921   0.23041   0.96751   0.00000  Uiso   1.00
O130   O     0.17206   0.21398   0.09448   0.00000  Uiso   1.00
O131   O     0.88867   0.36263   0.44785   0.00000  Uiso   1.00
O132   O     0.99652   0.19400   0.92515   0.00000  Uiso   1.00
N133   N     0.22641   0.06582   0.11879   0.00000  Uiso   1.00
N134   N     0.02447   0.45916   0.37063   0.00000  Uiso   1.00
N135   N     0.10131   0.33897   0.99816   0.00000  Uiso   1.00
N136   N     0.02981   0.00361   0.10536   0.00000  Uiso   1.00
N137   N     0.82786   0.39694   0.35719   0.00000  Uiso   1.00
N138   N     0.90471   0.27675   0.98473   0.00000  Uiso   1.00
C139   C     0.62683   0.49212   0.99702   0.00000  Uiso   1.00
C140   C     0.73261   0.62067   0.98135   0.00000  Uiso   1.00
C141   C     0.85621   0.65390   0.97567   0.00000  Uiso   1.00
C142   C     0.93876   0.77616   0.96110   0.00000  Uiso   1.00
C143   C     0.10906   0.96272   0.93811   0.00000  Uiso   1.00
C144   C     0.56543   0.50914   0.05077   0.00000  Uiso   1.00
C145   C     0.54844   0.44858   0.10345   0.00000  Uiso   1.00
C146   C     0.49025   0.47695   0.14729   0.00000  Uiso   1.00
C147   C     0.40091   0.49030   0.23206   0.00000  Uiso   1.00
C148   C     0.53232   0.45485   0.94811   0.00000  Uiso   1.00
C149   C     0.48747   0.34863   0.91448   0.00000  Uiso   1.00
C150   C     0.40138   0.33127   0.87191   0.00000  Uiso   1.00
C151   C     0.26064   0.26032   0.79728   0.00000  Uiso   1.00
C152   C     0.55366   0.65015   0.98122   0.00000  Uiso   1.00
C153   C     0.69286   0.70650   0.97277   0.00000  Uiso   1.00
C154   C     0.77525   0.82874   0.95820   0.00000  Uiso   1.00
C155   C     0.89895   0.86215   0.95250   0.00000  Uiso   1.00
C156   C     0.52568   0.59497   0.04219   0.00000  Uiso   1.00
C157   C     0.46749   0.62343   0.08597   0.00000  Uiso   1.00
C158   C     0.45043   0.56294   0.13870   0.00000  Uiso   1.00
C159   C     0.49258   0.54069   0.93953   0.00000  Uiso   1.00
C160   C     0.40652   0.52348   0.89700   0.00000  Uiso   1.00
C161   C     0.36156   0.41726   0.86332   0.00000  Uiso   1.00
H162   H     0.65777   0.42529   0.00370   0.00000  Uiso   1.00
H163   H     0.88693   0.58744   0.98232   0.00000  Uiso   1.00
H164   H     0.57920   0.38216   0.11007   0.00000  Uiso   1.00
H165   H     0.51825   0.28222   0.92114   0.00000  Uiso   1.00
H166   H     0.12347   0.80509   0.95486   0.00000  Uiso   1.00
H167   H     0.47458   0.37220   0.22422   0.00000  Uiso   1.00
H168   H     0.34604   0.16146   0.82581   0.00000  Uiso   1.00
H169   H     0.52271   0.71698   0.97454   0.00000  Uiso   1.00
H170   H     0.74447   0.89515   0.95156   0.00000  Uiso   1.00
H171   H     0.43674   0.68986   0.07931   0.00000  Uiso   1.00
H172   H     0.37579   0.58992   0.89037   0.00000  Uiso   1.00
H173   H     0.00785   0.05484   0.92990   0.00000  Uiso   1.00
H174   H     0.35894   0.62193   0.19925   0.00000  Uiso   1.00
H175   H     0.23041   0.41121   0.80084   0.00000  Uiso   1.00
O176   O     0.21398   0.04191   0.92781   0.00000  Uiso   1.00
O177   O     0.36263   0.47395   0.28119   0.00000  Uiso   1.00
O178   O     0.19400   0.19748   0.75849   0.00000  Uiso   1.00
N179   N     0.06582   0.83941   0.95213   0.00000  Uiso   1.00
N180   N     0.45916   0.43469   0.20396   0.00000  Uiso   1.00
N181   N     0.33897   0.23766   0.83150   0.00000  Uiso   1.00
N182   N     0.00361   0.97380   0.93869   0.00000  Uiso   1.00
N183   N     0.39694   0.56908   0.19053   0.00000  Uiso   1.00
N184   N     0.27675   0.37204   0.81806   0.00000  Uiso   1.00
C185   C     0.50788   0.13472   0.33035   0.00000  Uiso   1.00
C186   C     0.37933   0.11194   0.31469   0.00000  Uiso   1.00
C187   C     0.34610   0.20231   0.30901   0.00000  Uiso   1.00
C188   C     0.22384   0.16261   0.29443   0.00000  Uiso   1.00
C189   C     0.03728   0.14634   0.27144   0.00000  Uiso   1.00
C190   C     0.49086   0.05629   0.38410   0.00000  Uiso   1.00
C191   C     0.55142   0.09986   0.43678   0.00000  Uiso   1.00
C192   C     0.52305   0.01330   0.48063   0.00000  Uiso   1.00
C193   C     0.50970   0.91061   0.56539   0.00000  Uiso   1.00
C194   C     0.54515   0.07747   0.28144   0.00000  Uiso   1.00
C195   C     0.65137   0.13885   0.24782   0.00000  Uiso   1.00
C196   C     0.66873   0.07011   0.20524   0.00000  Uiso   1.00
C197   C     0.73968   0.00032   0.13062   0.00000  Uiso   1.00
C198   C     0.34985   0.90351   0.31455   0.00000  Uiso   1.00
C199   C     0.29350   0.98636   0.30611   0.00000  Uiso   1.00
C200   C     0.17126   0.94651   0.29153   0.00000  Uiso   1.00
C201   C     0.13785   0.03680   0.28583   0.00000  Uiso   1.00
C202   C     0.40503   0.93071   0.37552   0.00000  Uiso   1.00
C203   C     0.37657   0.84406   0.41930   0.00000  Uiso   1.00
C204   C     0.43706   0.88749   0.47203   0.00000  Uiso   1.00
C205   C     0.45931   0.95189   0.27286   0.00000  Uiso   1.00
C206   C     0.47652   0.88304   0.23034   0.00000  Uiso   1.00
C207   C     0.58274   0.94430   0.19665   0.00000  Uiso   1.00
H208   H     0.57471   0.23248   0.33703   0.00000  Uiso   1.00
H209   H     0.41256   0.29949   0.31566   0.00000  Uiso   1.00
H210   H     0.61784   0.19705   0.44340   0.00000  Uiso   1.00
H211   H     0.71778   0.23603   0.25447   0.00000  Uiso   1.00
H212   H     0.19491   0.31838   0.28820   0.00000  Uiso   1.00
H213   H     0.62780   0.10238   0.55755   0.00000  Uiso   1.00
H214   H     0.83854   0.18458   0.15914   0.00000  Uiso   1.00
H215   H     0.28302   0.80573   0.30787   0.00000  Uiso   1.00
H216   H     0.10485   0.84932   0.28489   0.00000  Uiso   1.00
H217   H     0.31014   0.74688   0.41264   0.00000  Uiso   1.00
H218   H     0.41008   0.78586   0.22371   0.00000  Uiso   1.00
H219   H     0.94516   0.95301   0.26323   0.00000  Uiso   1.00
H220   H     0.37807   0.73701   0.53258   0.00000  Uiso   1.00
H221   H     0.58879   0.81921   0.13418   0.00000  Uiso   1.00
O222   O     0.95809   0.17206   0.26114   0.00000  Uiso   1.00
O223   O     0.52605   0.88867   0.61452   0.00000  Uiso   1.00
O224   O     0.80252   0.99652   0.09182   0.00000  Uiso   1.00
N225   N     0.16059   0.22641   0.28546   0.00000  Uiso   1.00
N226   N     0.56531   0.02447   0.53730   0.00000  Uiso   1.00
N227   N     0.76234   0.10131   0.16483   0.00000  Uiso   1.00
N228   N     0.02620   0.02981   0.27203   0.00000  Uiso   1.00
N229   N     0.43092   0.82786   0.52386   0.00000  Uiso   1.00
N230   N     0.62796   0.90471   0.15140   0.00000  Uiso   1.00
C231   C     0.86528   0.37317   0.66368   0.00000  Uiso   1.00
C232   C     0.88806   0.26739   0.64802   0.00000  Uiso   1.00
C233   C     0.79769   0.14379   0.64234   0.00000  Uiso   1.00
C234   C     0.83739   0.06124   0.62776   0.00000  Uiso   1.00
C235   C     0.85366   0.89094   0.60478   0.00000  Uiso   1.00
C236   C     0.94371   0.43457   0.71743   0.00000  Uiso   1.00
C237   C     0.90014   0.45156   0.77011   0.00000  Uiso   1.00
C238   C     0.98670   0.50975   0.81396   0.00000  Uiso   1.00
C239   C     0.08939   0.59909   0.89873   0.00000  Uiso   1.00
C240   C     0.92253   0.46768   0.61478   0.00000  Uiso   1.00
C241   C     0.86115   0.51253   0.58115   0.00000  Uiso   1.00
C242   C     0.92989   0.59862   0.53858   0.00000  Uiso   1.00
C243   C     0.99968   0.73936   0.46395   0.00000  Uiso   1.00
C244   C     0.09649   0.44634   0.64788   0.00000  Uiso   1.00
C245   C     0.01364   0.30714   0.63944   0.00000  Uiso   1.00
C246   C     0.05349   0.22475   0.62486   0.00000  Uiso   1.00
C247   C     0.96320   0.10105   0.61916   0.00000  Uiso   1.00
C248   C     0.06929   0.47432   0.70885   0.00000  Uiso   1.00
C249   C     0.15594   0.53251   0.75263   0.00000  Uiso   1.00
C250   C     0.11251   0.54957   0.80537   0.00000  Uiso   1.00
C251   C     0.04811   0.50742   0.60619   0.00000  Uiso   1.00
C252   C     0.11696   0.59348   0.56367   0.00000  Uiso   1.00
C253   C     0.05570   0.63844   0.52998   0.00000  Uiso   1.00
H254   H     0.76752   0.34223   0.67037   0.00000  Uiso   1.00
H255   H     0.70051   0.11307   0.64899   0.00000  Uiso   1.00
H256   H     0.80295   0.42080   0.77674   0.00000  Uiso   1.00
H257   H     0.76397   0.48175   0.58780   0.00000  Uiso   1.00
H258   H     0.68162   0.87653   0.62153   0.00000  Uiso   1.00
H259   H     0.89762   0.52542   0.89088   0.00000  Uiso   1.00
H260   H     0.81542   0.65396   0.49248   0.00000  Uiso   1.00
H261   H     0.19427   0.47729   0.64121   0.00000  Uiso   1.00
H262   H     0.15068   0.25553   0.61823   0.00000  Uiso   1.00
H263   H     0.25312   0.56326   0.74598   0.00000  Uiso   1.00
H264   H     0.21414   0.62421   0.55704   0.00000  Uiso   1.00
H265   H     0.04699   0.99215   0.59656   0.00000  Uiso   1.00
H266   H     0.26299   0.64106   0.86592   0.00000  Uiso   1.00
H267   H     0.18079   0.76959   0.46751   0.00000  Uiso   1.00
O268   O     0.82794   0.78602   0.59448   0.00000  Uiso   1.00
O269   O     0.11133   0.63737   0.94785   0.00000  Uiso   1.00
O270   O     0.00348   0.80600   0.42515   0.00000  Uiso   1.00
N271   N     0.77359   0.93418   0.61879   0.00000  Uiso   1.00
N272   N     0.97553   0.54084   0.87063   0.00000  Uiso   1.00
N273   N     0.89869   0.66103   0.49816   0.00000  Uiso   1.00
N274   N     0.97019   0.99639   0.60536   0.00000  Uiso   1.00
N275   N     0.17214   0.60306   0.85719   0.00000  Uiso   1.00
N276   N     0.09529   0.72325   0.48473   0.00000  Uiso   1.00
