data_job_00777
_audit_creation_date              2018-12-19
_audit_creation_method            'Materials Studio'
_symmetry_space_group_name_H-M    'P1'
_symmetry_Int_Tables_number       1
_symmetry_cell_setting            triclinic
loop_
_symmetry_equiv_pos_as_xyz
  x,y,z
_cell_length_a                    25.5095
_cell_length_b                    25.5095
_cell_length_c                    7.1491
_cell_angle_alpha                 90.0000
_cell_angle_beta                  90.0000
_cell_angle_gamma                 120.0000
loop_
_atom_site_label
_atom_site_type_symbol
_atom_site_fract_x
_atom_site_fract_y
_atom_site_fract_z
_atom_site_U_iso_or_equiv
_atom_site_adp_type
_atom_site_occupancy
C1     C     0.34817   0.13887   0.60001   0.00000  Uiso   1.00
C2     C     0.38845   0.12641   0.72836   0.00000  Uiso   1.00
C3     C     0.42715   0.10592   0.67197   0.00000  Uiso   1.00
C4     C     0.46014   0.09729   0.81083   0.00000  Uiso   1.00
C5     C     0.52350   0.07616   0.98147   0.00000  Uiso   1.00
C6     C     0.28385   0.10021   0.67383   0.00000  Uiso   1.00
C7     C     0.23460   0.05771   0.57158   0.00000  Uiso   1.00
C8     C     0.17954   0.02703   0.66453   0.00000  Uiso   1.00
C9     C     0.08049   0.96526   0.75047   0.00000  Uiso   1.00
C10    C     0.36521   0.20446   0.63555   0.00000  Uiso   1.00
C11    C     0.38436   0.24960   0.50112   0.00000  Uiso   1.00
C12    C     0.39779   0.30669   0.56184   0.00000  Uiso   1.00
C13    C     0.42508   0.40678   0.58836   0.00000  Uiso   1.00
C14    C     0.33796   0.15998   0.94688   0.00000  Uiso   1.00
C15    C     0.38290   0.13787   0.91676   0.00000  Uiso   1.00
C16    C     0.41584   0.12927   0.05574   0.00000  Uiso   1.00
C17    C     0.45458   0.10878   0.99957   0.00000  Uiso   1.00
C18    C     0.27830   0.11167   0.86222   0.00000  Uiso   1.00
C19    C     0.22329   0.08106   0.95535   0.00000  Uiso   1.00
C20    C     0.17398   0.03851   0.85328   0.00000  Uiso   1.00
C21    C     0.35967   0.21592   0.82396   0.00000  Uiso   1.00
C22    C     0.37306   0.27295   0.88489   0.00000  Uiso   1.00
C23    C     0.39223   0.31818   0.75059   0.00000  Uiso   1.00
H24    H     0.35249   0.12995   0.45333   0.00000  Uiso   1.00
H25    H     0.43143   0.09705   0.52615   0.00000  Uiso   1.00
H26    H     0.23891   0.04885   0.42578   0.00000  Uiso   1.00
H27    H     0.38865   0.24072   0.35534   0.00000  Uiso   1.00
H28    H     0.51648   0.06561   0.68999   0.00000  Uiso   1.00
H29    H     0.11054   0.96399   0.47832   0.00000  Uiso   1.00
H30    H     0.42630   0.36858   0.32977   0.00000  Uiso   1.00
H31    H     0.33363   0.16890   0.09356   0.00000  Uiso   1.00
H32    H     0.41154   0.13814   0.20153   0.00000  Uiso   1.00
H33    H     0.21902   0.08994   0.10114   0.00000  Uiso   1.00
H34    H     0.36876   0.28180   0.03070   0.00000  Uiso   1.00
H35    H     0.50033   0.09896   0.23815   0.00000  Uiso   1.00
H36    H     0.09439   0.99734   0.02647   0.00000  Uiso   1.00
H37    H     0.41015   0.40193   0.87793   0.00000  Uiso   1.00
O38    O     0.55998   0.06133   0.02355   0.00000  Uiso   1.00
O39    O     0.02740   0.92802   0.74583   0.00000  Uiso   1.00
O40    O     0.44167   0.45883   0.55094   0.00000  Uiso   1.00
N41    N     0.50199   0.07770   0.80418   0.00000  Uiso   1.00
N42    N     0.12247   0.98268   0.60629   0.00000  Uiso   1.00
N43    N     0.41766   0.36093   0.46740   0.00000  Uiso   1.00
N44    N     0.49331   0.09564   0.09914   0.00000  Uiso   1.00
N45    N     0.11378   0.00062   0.90125   0.00000  Uiso   1.00
N46    N     0.40898   0.37888   0.76236   0.00000  Uiso   1.00
C47    C     0.86113   0.20930   0.60001   0.00000  Uiso   1.00
C48    C     0.87359   0.26204   0.72836   0.00000  Uiso   1.00
C49    C     0.89408   0.32123   0.67197   0.00000  Uiso   1.00
C50    C     0.90271   0.36285   0.81083   0.00000  Uiso   1.00
C51    C     0.92384   0.44734   0.98147   0.00000  Uiso   1.00
C52    C     0.89979   0.18364   0.67383   0.00000  Uiso   1.00
C53    C     0.94229   0.17689   0.57158   0.00000  Uiso   1.00
C54    C     0.97297   0.15251   0.66453   0.00000  Uiso   1.00
C55    C     0.03474   0.11523   0.75047   0.00000  Uiso   1.00
C56    C     0.79554   0.16076   0.63555   0.00000  Uiso   1.00
C57    C     0.75040   0.13476   0.50112   0.00000  Uiso   1.00
C58    C     0.69331   0.09110   0.56184   0.00000  Uiso   1.00
C59    C     0.59322   0.01830   0.58836   0.00000  Uiso   1.00
C60    C     0.84002   0.17798   0.94688   0.00000  Uiso   1.00
C61    C     0.86213   0.24503   0.91676   0.00000  Uiso   1.00
C62    C     0.87073   0.28657   0.05574   0.00000  Uiso   1.00
C63    C     0.89122   0.34581   0.99957   0.00000  Uiso   1.00
C64    C     0.88833   0.16663   0.86222   0.00000  Uiso   1.00
C65    C     0.91894   0.14224   0.95535   0.00000  Uiso   1.00
C66    C     0.96149   0.13546   0.85328   0.00000  Uiso   1.00
C67    C     0.78408   0.14374   0.82396   0.00000  Uiso   1.00
C68    C     0.72705   0.10011   0.88489   0.00000  Uiso   1.00
C69    C     0.68182   0.07405   0.75059   0.00000  Uiso   1.00
H70    H     0.87005   0.22254   0.45333   0.00000  Uiso   1.00
H71    H     0.90295   0.33438   0.52615   0.00000  Uiso   1.00
H72    H     0.95115   0.19006   0.42578   0.00000  Uiso   1.00
H73    H     0.75928   0.14794   0.35534   0.00000  Uiso   1.00
H74    H     0.93439   0.45086   0.68999   0.00000  Uiso   1.00
H75    H     0.03601   0.14654   0.47832   0.00000  Uiso   1.00
H76    H     0.63142   0.05772   0.32977   0.00000  Uiso   1.00
H77    H     0.83110   0.16473   0.09356   0.00000  Uiso   1.00
H78    H     0.86186   0.27339   0.20153   0.00000  Uiso   1.00
H79    H     0.91006   0.12908   0.10114   0.00000  Uiso   1.00
H80    H     0.71820   0.08696   0.03070   0.00000  Uiso   1.00
H81    H     0.90104   0.40137   0.23815   0.00000  Uiso   1.00
H82    H     0.00266   0.09704   0.02647   0.00000  Uiso   1.00
H83    H     0.59807   0.00822   0.87793   0.00000  Uiso   1.00
O84    O     0.93867   0.49864   0.02355   0.00000  Uiso   1.00
O85    O     0.07198   0.09938   0.74583   0.00000  Uiso   1.00
O86    O     0.54117   0.98285   0.55094   0.00000  Uiso   1.00
N87    N     0.92230   0.42430   0.80418   0.00000  Uiso   1.00
N88    N     0.01732   0.13979   0.60629   0.00000  Uiso   1.00
N89    N     0.63907   0.05673   0.46740   0.00000  Uiso   1.00
N90    N     0.90436   0.39767   0.09914   0.00000  Uiso   1.00
N91    N     0.99938   0.11315   0.90125   0.00000  Uiso   1.00
N92    N     0.62112   0.03010   0.76236   0.00000  Uiso   1.00
C93    C     0.79070   0.65183   0.60001   0.00000  Uiso   1.00
C94    C     0.73796   0.61155   0.72836   0.00000  Uiso   1.00
C95    C     0.67877   0.57285   0.67197   0.00000  Uiso   1.00
C96    C     0.63715   0.53986   0.81083   0.00000  Uiso   1.00
C97    C     0.55266   0.47650   0.98147   0.00000  Uiso   1.00
C98    C     0.81636   0.71615   0.67383   0.00000  Uiso   1.00
C99    C     0.82311   0.76540   0.57158   0.00000  Uiso   1.00
C100   C     0.84749   0.82046   0.66453   0.00000  Uiso   1.00
C101   C     0.88477   0.91951   0.75047   0.00000  Uiso   1.00
C102   C     0.83924   0.63479   0.63555   0.00000  Uiso   1.00
C103   C     0.86524   0.61564   0.50112   0.00000  Uiso   1.00
C104   C     0.90890   0.60221   0.56184   0.00000  Uiso   1.00
C105   C     0.98170   0.57492   0.58836   0.00000  Uiso   1.00
C106   C     0.82202   0.66204   0.94688   0.00000  Uiso   1.00
C107   C     0.75497   0.61710   0.91676   0.00000  Uiso   1.00
C108   C     0.71343   0.58416   0.05574   0.00000  Uiso   1.00
C109   C     0.65419   0.54542   0.99957   0.00000  Uiso   1.00
C110   C     0.83337   0.72170   0.86222   0.00000  Uiso   1.00
C111   C     0.85776   0.77671   0.95535   0.00000  Uiso   1.00
C112   C     0.86454   0.82602   0.85328   0.00000  Uiso   1.00
C113   C     0.85626   0.64033   0.82396   0.00000  Uiso   1.00
C114   C     0.89989   0.62694   0.88489   0.00000  Uiso   1.00
C115   C     0.92595   0.60777   0.75059   0.00000  Uiso   1.00
H116   H     0.77746   0.64751   0.45333   0.00000  Uiso   1.00
H117   H     0.66562   0.56857   0.52615   0.00000  Uiso   1.00
H118   H     0.80994   0.76109   0.42578   0.00000  Uiso   1.00
H119   H     0.85206   0.61135   0.35534   0.00000  Uiso   1.00
H120   H     0.54914   0.48352   0.68999   0.00000  Uiso   1.00
H121   H     0.85346   0.88946   0.47832   0.00000  Uiso   1.00
H122   H     0.94228   0.57370   0.32977   0.00000  Uiso   1.00
H123   H     0.83527   0.66637   0.09356   0.00000  Uiso   1.00
H124   H     0.72661   0.58846   0.20153   0.00000  Uiso   1.00
H125   H     0.87092   0.78098   0.10114   0.00000  Uiso   1.00
H126   H     0.91304   0.63124   0.03070   0.00000  Uiso   1.00
H127   H     0.59863   0.49967   0.23815   0.00000  Uiso   1.00
H128   H     0.90296   0.90561   0.02647   0.00000  Uiso   1.00
H129   H     0.99178   0.58985   0.87793   0.00000  Uiso   1.00
O130   O     0.50136   0.44002   0.02355   0.00000  Uiso   1.00
O131   O     0.90062   0.97260   0.74583   0.00000  Uiso   1.00
O132   O     0.01715   0.55833   0.55094   0.00000  Uiso   1.00
N133   N     0.57570   0.49801   0.80418   0.00000  Uiso   1.00
N134   N     0.86021   0.87753   0.60629   0.00000  Uiso   1.00
N135   N     0.94327   0.58234   0.46740   0.00000  Uiso   1.00
N136   N     0.60233   0.50669   0.09914   0.00000  Uiso   1.00
N137   N     0.88685   0.88622   0.90125   0.00000  Uiso   1.00
N138   N     0.96990   0.59102   0.76236   0.00000  Uiso   1.00
C139   C     0.65183   0.86113   0.39999   0.00000  Uiso   1.00
C140   C     0.61155   0.87359   0.27164   0.00000  Uiso   1.00
C141   C     0.57285   0.89408   0.32803   0.00000  Uiso   1.00
C142   C     0.53986   0.90271   0.18917   0.00000  Uiso   1.00
C143   C     0.47650   0.92384   0.01853   0.00000  Uiso   1.00
C144   C     0.71615   0.89979   0.32617   0.00000  Uiso   1.00
C145   C     0.76540   0.94229   0.42842   0.00000  Uiso   1.00
C146   C     0.82046   0.97297   0.33547   0.00000  Uiso   1.00
C147   C     0.91951   0.03474   0.24953   0.00000  Uiso   1.00
C148   C     0.63479   0.79554   0.36445   0.00000  Uiso   1.00
C149   C     0.61564   0.75040   0.49888   0.00000  Uiso   1.00
C150   C     0.60221   0.69331   0.43816   0.00000  Uiso   1.00
C151   C     0.57492   0.59322   0.41164   0.00000  Uiso   1.00
C152   C     0.66204   0.84002   0.05312   0.00000  Uiso   1.00
C153   C     0.61710   0.86213   0.08324   0.00000  Uiso   1.00
C154   C     0.58416   0.87073   0.94426   0.00000  Uiso   1.00
C155   C     0.54542   0.89122   0.00043   0.00000  Uiso   1.00
C156   C     0.72170   0.88833   0.13778   0.00000  Uiso   1.00
C157   C     0.77671   0.91894   0.04465   0.00000  Uiso   1.00
C158   C     0.82602   0.96149   0.14672   0.00000  Uiso   1.00
C159   C     0.64033   0.78408   0.17604   0.00000  Uiso   1.00
C160   C     0.62694   0.72705   0.11511   0.00000  Uiso   1.00
C161   C     0.60777   0.68182   0.24941   0.00000  Uiso   1.00
H162   H     0.64751   0.87005   0.54667   0.00000  Uiso   1.00
H163   H     0.56857   0.90295   0.47385   0.00000  Uiso   1.00
H164   H     0.76109   0.95115   0.57422   0.00000  Uiso   1.00
H165   H     0.61135   0.75928   0.64466   0.00000  Uiso   1.00
H166   H     0.48352   0.93439   0.31001   0.00000  Uiso   1.00
H167   H     0.88946   0.03601   0.52168   0.00000  Uiso   1.00
H168   H     0.57370   0.63142   0.67023   0.00000  Uiso   1.00
H169   H     0.66637   0.83110   0.90644   0.00000  Uiso   1.00
H170   H     0.58846   0.86186   0.79847   0.00000  Uiso   1.00
H171   H     0.78098   0.91006   0.89886   0.00000  Uiso   1.00
H172   H     0.63124   0.71820   0.96930   0.00000  Uiso   1.00
H173   H     0.49967   0.90104   0.76185   0.00000  Uiso   1.00
H174   H     0.90561   0.00266   0.97353   0.00000  Uiso   1.00
H175   H     0.58985   0.59807   0.12207   0.00000  Uiso   1.00
O176   O     0.44002   0.93867   0.97645   0.00000  Uiso   1.00
O177   O     0.97260   0.07198   0.25417   0.00000  Uiso   1.00
O178   O     0.55833   0.54117   0.44906   0.00000  Uiso   1.00
N179   N     0.49801   0.92230   0.19582   0.00000  Uiso   1.00
N180   N     0.87753   0.01732   0.39371   0.00000  Uiso   1.00
N181   N     0.58234   0.63907   0.53260   0.00000  Uiso   1.00
N182   N     0.50669   0.90436   0.90086   0.00000  Uiso   1.00
N183   N     0.88622   0.99938   0.09875   0.00000  Uiso   1.00
N184   N     0.59102   0.62112   0.23764   0.00000  Uiso   1.00
C185   C     0.13887   0.79070   0.39999   0.00000  Uiso   1.00
C186   C     0.12641   0.73796   0.27164   0.00000  Uiso   1.00
C187   C     0.10592   0.67877   0.32803   0.00000  Uiso   1.00
C188   C     0.09729   0.63715   0.18917   0.00000  Uiso   1.00
C189   C     0.07616   0.55266   0.01853   0.00000  Uiso   1.00
C190   C     0.10021   0.81636   0.32617   0.00000  Uiso   1.00
C191   C     0.05771   0.82311   0.42842   0.00000  Uiso   1.00
C192   C     0.02703   0.84749   0.33547   0.00000  Uiso   1.00
C193   C     0.96526   0.88477   0.24953   0.00000  Uiso   1.00
C194   C     0.20446   0.83924   0.36445   0.00000  Uiso   1.00
C195   C     0.24960   0.86524   0.49888   0.00000  Uiso   1.00
C196   C     0.30669   0.90890   0.43816   0.00000  Uiso   1.00
C197   C     0.40678   0.98170   0.41164   0.00000  Uiso   1.00
C198   C     0.15998   0.82202   0.05312   0.00000  Uiso   1.00
C199   C     0.13787   0.75497   0.08324   0.00000  Uiso   1.00
C200   C     0.12927   0.71343   0.94426   0.00000  Uiso   1.00
C201   C     0.10878   0.65419   0.00043   0.00000  Uiso   1.00
C202   C     0.11167   0.83337   0.13778   0.00000  Uiso   1.00
C203   C     0.08106   0.85776   0.04465   0.00000  Uiso   1.00
C204   C     0.03851   0.86454   0.14672   0.00000  Uiso   1.00
C205   C     0.21592   0.85626   0.17604   0.00000  Uiso   1.00
C206   C     0.27295   0.89989   0.11511   0.00000  Uiso   1.00
C207   C     0.31818   0.92595   0.24941   0.00000  Uiso   1.00
H208   H     0.12995   0.77746   0.54667   0.00000  Uiso   1.00
H209   H     0.09705   0.66562   0.47385   0.00000  Uiso   1.00
H210   H     0.04885   0.80994   0.57422   0.00000  Uiso   1.00
H211   H     0.24072   0.85206   0.64466   0.00000  Uiso   1.00
H212   H     0.06561   0.54914   0.31001   0.00000  Uiso   1.00
H213   H     0.96399   0.85346   0.52168   0.00000  Uiso   1.00
H214   H     0.36858   0.94228   0.67023   0.00000  Uiso   1.00
H215   H     0.16890   0.83527   0.90644   0.00000  Uiso   1.00
H216   H     0.13814   0.72661   0.79847   0.00000  Uiso   1.00
H217   H     0.08994   0.87092   0.89886   0.00000  Uiso   1.00
H218   H     0.28180   0.91304   0.96930   0.00000  Uiso   1.00
H219   H     0.09896   0.59863   0.76185   0.00000  Uiso   1.00
H220   H     0.99734   0.90296   0.97353   0.00000  Uiso   1.00
H221   H     0.40193   0.99178   0.12207   0.00000  Uiso   1.00
O222   O     0.06133   0.50136   0.97645   0.00000  Uiso   1.00
O223   O     0.92802   0.90062   0.25417   0.00000  Uiso   1.00
O224   O     0.45883   0.01715   0.44906   0.00000  Uiso   1.00
N225   N     0.07770   0.57570   0.19582   0.00000  Uiso   1.00
N226   N     0.98268   0.86021   0.39371   0.00000  Uiso   1.00
N227   N     0.36093   0.94327   0.53260   0.00000  Uiso   1.00
N228   N     0.09564   0.60233   0.90086   0.00000  Uiso   1.00
N229   N     0.00062   0.88685   0.09875   0.00000  Uiso   1.00
N230   N     0.37888   0.96990   0.23764   0.00000  Uiso   1.00
C231   C     0.20930   0.34817   0.39999   0.00000  Uiso   1.00
C232   C     0.26204   0.38845   0.27164   0.00000  Uiso   1.00
C233   C     0.32123   0.42715   0.32803   0.00000  Uiso   1.00
C234   C     0.36285   0.46014   0.18917   0.00000  Uiso   1.00
C235   C     0.44734   0.52350   0.01853   0.00000  Uiso   1.00
C236   C     0.18364   0.28385   0.32617   0.00000  Uiso   1.00
C237   C     0.17689   0.23460   0.42842   0.00000  Uiso   1.00
C238   C     0.15251   0.17954   0.33547   0.00000  Uiso   1.00
C239   C     0.11523   0.08049   0.24953   0.00000  Uiso   1.00
C240   C     0.16076   0.36521   0.36445   0.00000  Uiso   1.00
C241   C     0.13476   0.38436   0.49888   0.00000  Uiso   1.00
C242   C     0.09110   0.39779   0.43816   0.00000  Uiso   1.00
C243   C     0.01830   0.42508   0.41164   0.00000  Uiso   1.00
C244   C     0.17798   0.33796   0.05312   0.00000  Uiso   1.00
C245   C     0.24503   0.38290   0.08324   0.00000  Uiso   1.00
C246   C     0.28657   0.41584   0.94426   0.00000  Uiso   1.00
C247   C     0.34581   0.45458   0.00043   0.00000  Uiso   1.00
C248   C     0.16663   0.27830   0.13778   0.00000  Uiso   1.00
C249   C     0.14224   0.22329   0.04465   0.00000  Uiso   1.00
C250   C     0.13546   0.17398   0.14672   0.00000  Uiso   1.00
C251   C     0.14374   0.35967   0.17604   0.00000  Uiso   1.00
C252   C     0.10011   0.37306   0.11511   0.00000  Uiso   1.00
C253   C     0.07405   0.39223   0.24941   0.00000  Uiso   1.00
H254   H     0.22254   0.35249   0.54667   0.00000  Uiso   1.00
H255   H     0.33438   0.43143   0.47385   0.00000  Uiso   1.00
H256   H     0.19006   0.23891   0.57422   0.00000  Uiso   1.00
H257   H     0.14794   0.38865   0.64466   0.00000  Uiso   1.00
H258   H     0.45086   0.51648   0.31001   0.00000  Uiso   1.00
H259   H     0.14654   0.11054   0.52168   0.00000  Uiso   1.00
H260   H     0.05772   0.42630   0.67023   0.00000  Uiso   1.00
H261   H     0.16473   0.33363   0.90644   0.00000  Uiso   1.00
H262   H     0.27339   0.41154   0.79847   0.00000  Uiso   1.00
H263   H     0.12908   0.21902   0.89886   0.00000  Uiso   1.00
H264   H     0.08696   0.36876   0.96930   0.00000  Uiso   1.00
H265   H     0.40137   0.50033   0.76185   0.00000  Uiso   1.00
H266   H     0.09704   0.09439   0.97353   0.00000  Uiso   1.00
H267   H     0.00822   0.41015   0.12207   0.00000  Uiso   1.00
O268   O     0.49864   0.55998   0.97645   0.00000  Uiso   1.00
O269   O     0.09938   0.02740   0.25417   0.00000  Uiso   1.00
O270   O     0.98285   0.44167   0.44906   0.00000  Uiso   1.00
N271   N     0.42430   0.50199   0.19582   0.00000  Uiso   1.00
N272   N     0.13979   0.12247   0.39371   0.00000  Uiso   1.00
N273   N     0.05673   0.41766   0.53260   0.00000  Uiso   1.00
N274   N     0.39767   0.49331   0.90086   0.00000  Uiso   1.00
N275   N     0.11315   0.11378   0.09875   0.00000  Uiso   1.00
N276   N     0.03010   0.40898   0.23764   0.00000  Uiso   1.00
