data_job_03805
_audit_creation_date              2018-12-19
_audit_creation_method            'Materials Studio'
_symmetry_space_group_name_H-M    'P1'
_symmetry_Int_Tables_number       1
_symmetry_cell_setting            triclinic
loop_
_symmetry_equiv_pos_as_xyz
  x,y,z
_cell_length_a                    24.6745
_cell_length_b                    12.2098
_cell_length_c                    23.3036
_cell_angle_alpha                 90.0000
_cell_angle_beta                  90.0000
_cell_angle_gamma                 90.0000
loop_
_atom_site_label
_atom_site_type_symbol
_atom_site_fract_x
_atom_site_fract_y
_atom_site_fract_z
_atom_site_U_iso_or_equiv
_atom_site_adp_type
_atom_site_occupancy
C1     C     0.94702   0.35625   0.58800   0.00000  Uiso   1.00
C2     C     0.99219   0.27102   0.58712   0.00000  Uiso   1.00
C3     C     0.04622   0.29117   0.57439   0.00000  Uiso   1.00
C4     C     0.08124   0.20220   0.57588   0.00000  Uiso   1.00
C5     C     0.15416   0.08587   0.57239   0.00000  Uiso   1.00
C6     C     0.90382   0.31487   0.54654   0.00000  Uiso   1.00
C7     C     0.88354   0.37189   0.49971   0.00000  Uiso   1.00
C8     C     0.84416   0.31983   0.46705   0.00000  Uiso   1.00
C9     C     0.77986   0.27159   0.40058   0.00000  Uiso   1.00
C10    C     0.92183   0.35004   0.64766   0.00000  Uiso   1.00
C11    C     0.91668   0.43664   0.68585   0.00000  Uiso   1.00
C12    C     0.89245   0.41420   0.73832   0.00000  Uiso   1.00
C13    C     0.85612   0.42058   0.82887   0.00000  Uiso   1.00
C14    C     0.91312   0.16242   0.61328   0.00000  Uiso   1.00
C15    C     0.97377   0.16574   0.60084   0.00000  Uiso   1.00
C16    C     0.00872   0.07672   0.60236   0.00000  Uiso   1.00
C17    C     0.06279   0.09673   0.58964   0.00000  Uiso   1.00
C18    C     0.88540   0.20959   0.56027   0.00000  Uiso   1.00
C19    C     0.84604   0.15743   0.52767   0.00000  Uiso   1.00
C20    C     0.82571   0.21435   0.48080   0.00000  Uiso   1.00
C21    C     0.90342   0.24476   0.66139   0.00000  Uiso   1.00
C22    C     0.87918   0.22218   0.71382   0.00000  Uiso   1.00
C23    C     0.87400   0.30873   0.75208   0.00000  Uiso   1.00
H24    H     0.96136   0.43822   0.57731   0.00000  Uiso   1.00
H25    H     0.06046   0.37266   0.56376   0.00000  Uiso   1.00
H26    H     0.89780   0.45336   0.48910   0.00000  Uiso   1.00
H27    H     0.93094   0.51810   0.67521   0.00000  Uiso   1.00
H28    H     0.16220   0.25353   0.55478   0.00000  Uiso   1.00
H29    H     0.81921   0.42372   0.39735   0.00000  Uiso   1.00
H30    H     0.88909   0.56024   0.78981   0.00000  Uiso   1.00
H31    H     0.89879   0.08045   0.62397   0.00000  Uiso   1.00
H32    H     0.99445   0.99526   0.61298   0.00000  Uiso   1.00
H33    H     0.83180   0.07596   0.53831   0.00000  Uiso   1.00
H34    H     0.86494   0.14070   0.72443   0.00000  Uiso   1.00
H35    H     0.10863   0.94722   0.59472   0.00000  Uiso   1.00
H36    H     0.76564   0.11741   0.43729   0.00000  Uiso   1.00
H37    H     0.83552   0.25392   0.82975   0.00000  Uiso   1.00
O38    O     0.19948   0.05078   0.56666   0.00000  Uiso   1.00
O39    O     0.74948   0.27407   0.36013   0.00000  Uiso   1.00
O40    O     0.84117   0.45317   0.87503   0.00000  Uiso   1.00
N41    N     0.13647   0.19314   0.56570   0.00000  Uiso   1.00
N42    N     0.81580   0.35224   0.41850   0.00000  Uiso   1.00
N43    N     0.88112   0.47988   0.78542   0.00000  Uiso   1.00
N44    N     0.10764   0.02831   0.58719   0.00000  Uiso   1.00
N45    N     0.78698   0.18742   0.44000   0.00000  Uiso   1.00
N46    N     0.85229   0.31506   0.80691   0.00000  Uiso   1.00
C47    C     0.55298   0.64375   0.58800   0.00000  Uiso   1.00
C48    C     0.50781   0.72898   0.58712   0.00000  Uiso   1.00
C49    C     0.45378   0.70883   0.57439   0.00000  Uiso   1.00
C50    C     0.41876   0.79780   0.57588   0.00000  Uiso   1.00
C51    C     0.34584   0.91413   0.57239   0.00000  Uiso   1.00
C52    C     0.59618   0.68513   0.54654   0.00000  Uiso   1.00
C53    C     0.61646   0.62811   0.49971   0.00000  Uiso   1.00
C54    C     0.65584   0.68017   0.46705   0.00000  Uiso   1.00
C55    C     0.72014   0.72841   0.40058   0.00000  Uiso   1.00
C56    C     0.57817   0.64996   0.64766   0.00000  Uiso   1.00
C57    C     0.58332   0.56336   0.68585   0.00000  Uiso   1.00
C58    C     0.60755   0.58580   0.73832   0.00000  Uiso   1.00
C59    C     0.64388   0.57942   0.82887   0.00000  Uiso   1.00
C60    C     0.58688   0.83758   0.61328   0.00000  Uiso   1.00
C61    C     0.52623   0.83426   0.60084   0.00000  Uiso   1.00
C62    C     0.49128   0.92328   0.60236   0.00000  Uiso   1.00
C63    C     0.43721   0.90327   0.58964   0.00000  Uiso   1.00
C64    C     0.61460   0.79041   0.56027   0.00000  Uiso   1.00
C65    C     0.65396   0.84257   0.52767   0.00000  Uiso   1.00
C66    C     0.67429   0.78565   0.48080   0.00000  Uiso   1.00
C67    C     0.59658   0.75524   0.66139   0.00000  Uiso   1.00
C68    C     0.62082   0.77782   0.71382   0.00000  Uiso   1.00
C69    C     0.62600   0.69127   0.75208   0.00000  Uiso   1.00
H70    H     0.53864   0.56178   0.57731   0.00000  Uiso   1.00
H71    H     0.43954   0.62734   0.56376   0.00000  Uiso   1.00
H72    H     0.60220   0.54664   0.48910   0.00000  Uiso   1.00
H73    H     0.56906   0.48190   0.67521   0.00000  Uiso   1.00
H74    H     0.33780   0.74647   0.55478   0.00000  Uiso   1.00
H75    H     0.68079   0.57628   0.39735   0.00000  Uiso   1.00
H76    H     0.61091   0.43976   0.78981   0.00000  Uiso   1.00
H77    H     0.60121   0.91955   0.62397   0.00000  Uiso   1.00
H78    H     0.50555   0.00474   0.61298   0.00000  Uiso   1.00
H79    H     0.66820   0.92404   0.53831   0.00000  Uiso   1.00
H80    H     0.63506   0.85930   0.72443   0.00000  Uiso   1.00
H81    H     0.39137   0.05278   0.59472   0.00000  Uiso   1.00
H82    H     0.73436   0.88259   0.43729   0.00000  Uiso   1.00
H83    H     0.66448   0.74608   0.82975   0.00000  Uiso   1.00
O84    O     0.30052   0.94922   0.56666   0.00000  Uiso   1.00
O85    O     0.75052   0.72593   0.36013   0.00000  Uiso   1.00
O86    O     0.65883   0.54683   0.87503   0.00000  Uiso   1.00
N87    N     0.36353   0.80686   0.56570   0.00000  Uiso   1.00
N88    N     0.68420   0.64776   0.41850   0.00000  Uiso   1.00
N89    N     0.61888   0.52012   0.78542   0.00000  Uiso   1.00
N90    N     0.39236   0.97169   0.58719   0.00000  Uiso   1.00
N91    N     0.71302   0.81258   0.44000   0.00000  Uiso   1.00
N92    N     0.64771   0.68494   0.80691   0.00000  Uiso   1.00
C93    C     0.05298   0.35625   0.91200   0.00000  Uiso   1.00
C94    C     0.00781   0.27102   0.91288   0.00000  Uiso   1.00
C95    C     0.95378   0.29117   0.92561   0.00000  Uiso   1.00
C96    C     0.91876   0.20220   0.92412   0.00000  Uiso   1.00
C97    C     0.84584   0.08587   0.92761   0.00000  Uiso   1.00
C98    C     0.09618   0.31487   0.95346   0.00000  Uiso   1.00
C99    C     0.11646   0.37189   0.00029   0.00000  Uiso   1.00
C100   C     0.15584   0.31983   0.03295   0.00000  Uiso   1.00
C101   C     0.22014   0.27159   0.09942   0.00000  Uiso   1.00
C102   C     0.07817   0.35004   0.85234   0.00000  Uiso   1.00
C103   C     0.08332   0.43664   0.81415   0.00000  Uiso   1.00
C104   C     0.10755   0.41420   0.76168   0.00000  Uiso   1.00
C105   C     0.14388   0.42058   0.67113   0.00000  Uiso   1.00
C106   C     0.08688   0.16242   0.88672   0.00000  Uiso   1.00
C107   C     0.02623   0.16574   0.89916   0.00000  Uiso   1.00
C108   C     0.99128   0.07672   0.89764   0.00000  Uiso   1.00
C109   C     0.93721   0.09673   0.91036   0.00000  Uiso   1.00
C110   C     0.11460   0.20959   0.93973   0.00000  Uiso   1.00
C111   C     0.15396   0.15743   0.97233   0.00000  Uiso   1.00
C112   C     0.17429   0.21435   0.01920   0.00000  Uiso   1.00
C113   C     0.09658   0.24476   0.83861   0.00000  Uiso   1.00
C114   C     0.12082   0.22218   0.78618   0.00000  Uiso   1.00
C115   C     0.12600   0.30873   0.74792   0.00000  Uiso   1.00
H116   H     0.03864   0.43822   0.92269   0.00000  Uiso   1.00
H117   H     0.93954   0.37266   0.93624   0.00000  Uiso   1.00
H118   H     0.10220   0.45336   0.01090   0.00000  Uiso   1.00
H119   H     0.06906   0.51810   0.82479   0.00000  Uiso   1.00
H120   H     0.83780   0.25353   0.94522   0.00000  Uiso   1.00
H121   H     0.18079   0.42372   0.10265   0.00000  Uiso   1.00
H122   H     0.11091   0.56024   0.71019   0.00000  Uiso   1.00
H123   H     0.10121   0.08045   0.87603   0.00000  Uiso   1.00
H124   H     0.00555   0.99526   0.88702   0.00000  Uiso   1.00
H125   H     0.16820   0.07596   0.96169   0.00000  Uiso   1.00
H126   H     0.13506   0.14070   0.77557   0.00000  Uiso   1.00
H127   H     0.89137   0.94722   0.90528   0.00000  Uiso   1.00
H128   H     0.23436   0.11741   0.06271   0.00000  Uiso   1.00
H129   H     0.16448   0.25392   0.67025   0.00000  Uiso   1.00
O130   O     0.80052   0.05078   0.93334   0.00000  Uiso   1.00
O131   O     0.25052   0.27407   0.13987   0.00000  Uiso   1.00
O132   O     0.15883   0.45317   0.62497   0.00000  Uiso   1.00
N133   N     0.86353   0.19314   0.93430   0.00000  Uiso   1.00
N134   N     0.18420   0.35224   0.08150   0.00000  Uiso   1.00
N135   N     0.11888   0.47988   0.71458   0.00000  Uiso   1.00
N136   N     0.89236   0.02831   0.91281   0.00000  Uiso   1.00
N137   N     0.21302   0.18742   0.06000   0.00000  Uiso   1.00
N138   N     0.14771   0.31506   0.69309   0.00000  Uiso   1.00
C139   C     0.44702   0.64375   0.91200   0.00000  Uiso   1.00
C140   C     0.49219   0.72898   0.91288   0.00000  Uiso   1.00
C141   C     0.54622   0.70883   0.92561   0.00000  Uiso   1.00
C142   C     0.58124   0.79780   0.92412   0.00000  Uiso   1.00
C143   C     0.65416   0.91413   0.92761   0.00000  Uiso   1.00
C144   C     0.40382   0.68513   0.95346   0.00000  Uiso   1.00
C145   C     0.38354   0.62811   0.00029   0.00000  Uiso   1.00
C146   C     0.34416   0.68017   0.03295   0.00000  Uiso   1.00
C147   C     0.27986   0.72841   0.09942   0.00000  Uiso   1.00
C148   C     0.42183   0.64996   0.85234   0.00000  Uiso   1.00
C149   C     0.41668   0.56336   0.81415   0.00000  Uiso   1.00
C150   C     0.39245   0.58580   0.76168   0.00000  Uiso   1.00
C151   C     0.35612   0.57942   0.67113   0.00000  Uiso   1.00
C152   C     0.41312   0.83758   0.88672   0.00000  Uiso   1.00
C153   C     0.47377   0.83426   0.89916   0.00000  Uiso   1.00
C154   C     0.50872   0.92328   0.89764   0.00000  Uiso   1.00
C155   C     0.56279   0.90327   0.91036   0.00000  Uiso   1.00
C156   C     0.38540   0.79041   0.93973   0.00000  Uiso   1.00
C157   C     0.34604   0.84257   0.97233   0.00000  Uiso   1.00
C158   C     0.32571   0.78565   0.01920   0.00000  Uiso   1.00
C159   C     0.40342   0.75524   0.83861   0.00000  Uiso   1.00
C160   C     0.37918   0.77782   0.78618   0.00000  Uiso   1.00
C161   C     0.37400   0.69127   0.74792   0.00000  Uiso   1.00
H162   H     0.46136   0.56178   0.92269   0.00000  Uiso   1.00
H163   H     0.56046   0.62734   0.93624   0.00000  Uiso   1.00
H164   H     0.39780   0.54664   0.01090   0.00000  Uiso   1.00
H165   H     0.43094   0.48190   0.82479   0.00000  Uiso   1.00
H166   H     0.66220   0.74647   0.94522   0.00000  Uiso   1.00
H167   H     0.31921   0.57628   0.10265   0.00000  Uiso   1.00
H168   H     0.38909   0.43976   0.71019   0.00000  Uiso   1.00
H169   H     0.39879   0.91955   0.87603   0.00000  Uiso   1.00
H170   H     0.49445   0.00474   0.88702   0.00000  Uiso   1.00
H171   H     0.33180   0.92404   0.96169   0.00000  Uiso   1.00
H172   H     0.36494   0.85930   0.77557   0.00000  Uiso   1.00
H173   H     0.60863   0.05278   0.90528   0.00000  Uiso   1.00
H174   H     0.26564   0.88259   0.06271   0.00000  Uiso   1.00
H175   H     0.33552   0.74608   0.67025   0.00000  Uiso   1.00
O176   O     0.69948   0.94922   0.93334   0.00000  Uiso   1.00
O177   O     0.24948   0.72593   0.13987   0.00000  Uiso   1.00
O178   O     0.34117   0.54683   0.62497   0.00000  Uiso   1.00
N179   N     0.63647   0.80686   0.93430   0.00000  Uiso   1.00
N180   N     0.31580   0.64776   0.08150   0.00000  Uiso   1.00
N181   N     0.38112   0.52012   0.71458   0.00000  Uiso   1.00
N182   N     0.60764   0.97169   0.91281   0.00000  Uiso   1.00
N183   N     0.28698   0.81258   0.06000   0.00000  Uiso   1.00
N184   N     0.35229   0.68494   0.69309   0.00000  Uiso   1.00
C185   C     0.05298   0.64375   0.41200   0.00000  Uiso   1.00
C186   C     0.00781   0.72898   0.41288   0.00000  Uiso   1.00
C187   C     0.95378   0.70883   0.42561   0.00000  Uiso   1.00
C188   C     0.91876   0.79780   0.42412   0.00000  Uiso   1.00
C189   C     0.84584   0.91413   0.42761   0.00000  Uiso   1.00
C190   C     0.09618   0.68513   0.45346   0.00000  Uiso   1.00
C191   C     0.11646   0.62811   0.50029   0.00000  Uiso   1.00
C192   C     0.15584   0.68017   0.53295   0.00000  Uiso   1.00
C193   C     0.22014   0.72841   0.59942   0.00000  Uiso   1.00
C194   C     0.07817   0.64996   0.35234   0.00000  Uiso   1.00
C195   C     0.08332   0.56336   0.31415   0.00000  Uiso   1.00
C196   C     0.10755   0.58580   0.26168   0.00000  Uiso   1.00
C197   C     0.14388   0.57942   0.17113   0.00000  Uiso   1.00
C198   C     0.08688   0.83758   0.38672   0.00000  Uiso   1.00
C199   C     0.02623   0.83426   0.39916   0.00000  Uiso   1.00
C200   C     0.99128   0.92328   0.39764   0.00000  Uiso   1.00
C201   C     0.93721   0.90327   0.41036   0.00000  Uiso   1.00
C202   C     0.11460   0.79041   0.43973   0.00000  Uiso   1.00
C203   C     0.15396   0.84257   0.47233   0.00000  Uiso   1.00
C204   C     0.17429   0.78565   0.51920   0.00000  Uiso   1.00
C205   C     0.09658   0.75524   0.33861   0.00000  Uiso   1.00
C206   C     0.12082   0.77782   0.28618   0.00000  Uiso   1.00
C207   C     0.12600   0.69127   0.24792   0.00000  Uiso   1.00
H208   H     0.03864   0.56178   0.42269   0.00000  Uiso   1.00
H209   H     0.93954   0.62734   0.43624   0.00000  Uiso   1.00
H210   H     0.10220   0.54664   0.51090   0.00000  Uiso   1.00
H211   H     0.06906   0.48190   0.32479   0.00000  Uiso   1.00
H212   H     0.83780   0.74647   0.44522   0.00000  Uiso   1.00
H213   H     0.18079   0.57628   0.60265   0.00000  Uiso   1.00
H214   H     0.11091   0.43976   0.21019   0.00000  Uiso   1.00
H215   H     0.10121   0.91955   0.37603   0.00000  Uiso   1.00
H216   H     0.00555   0.00474   0.38702   0.00000  Uiso   1.00
H217   H     0.16820   0.92404   0.46169   0.00000  Uiso   1.00
H218   H     0.13506   0.85930   0.27557   0.00000  Uiso   1.00
H219   H     0.89137   0.05278   0.40528   0.00000  Uiso   1.00
H220   H     0.23436   0.88259   0.56271   0.00000  Uiso   1.00
H221   H     0.16448   0.74608   0.17025   0.00000  Uiso   1.00
O222   O     0.80052   0.94922   0.43334   0.00000  Uiso   1.00
O223   O     0.25052   0.72593   0.63987   0.00000  Uiso   1.00
O224   O     0.15883   0.54683   0.12497   0.00000  Uiso   1.00
N225   N     0.86353   0.80686   0.43430   0.00000  Uiso   1.00
N226   N     0.18420   0.64776   0.58150   0.00000  Uiso   1.00
N227   N     0.11888   0.52012   0.21458   0.00000  Uiso   1.00
N228   N     0.89236   0.97169   0.41281   0.00000  Uiso   1.00
N229   N     0.21302   0.81258   0.56000   0.00000  Uiso   1.00
N230   N     0.14771   0.68494   0.19309   0.00000  Uiso   1.00
C231   C     0.44702   0.35625   0.41200   0.00000  Uiso   1.00
C232   C     0.49219   0.27102   0.41288   0.00000  Uiso   1.00
C233   C     0.54622   0.29117   0.42561   0.00000  Uiso   1.00
C234   C     0.58124   0.20220   0.42412   0.00000  Uiso   1.00
C235   C     0.65416   0.08587   0.42761   0.00000  Uiso   1.00
C236   C     0.40382   0.31487   0.45346   0.00000  Uiso   1.00
C237   C     0.38354   0.37189   0.50029   0.00000  Uiso   1.00
C238   C     0.34416   0.31983   0.53295   0.00000  Uiso   1.00
C239   C     0.27986   0.27159   0.59942   0.00000  Uiso   1.00
C240   C     0.42183   0.35004   0.35234   0.00000  Uiso   1.00
C241   C     0.41668   0.43664   0.31415   0.00000  Uiso   1.00
C242   C     0.39245   0.41420   0.26168   0.00000  Uiso   1.00
C243   C     0.35612   0.42058   0.17113   0.00000  Uiso   1.00
C244   C     0.41312   0.16242   0.38672   0.00000  Uiso   1.00
C245   C     0.47377   0.16574   0.39916   0.00000  Uiso   1.00
C246   C     0.50872   0.07672   0.39764   0.00000  Uiso   1.00
C247   C     0.56279   0.09673   0.41036   0.00000  Uiso   1.00
C248   C     0.38540   0.20959   0.43973   0.00000  Uiso   1.00
C249   C     0.34604   0.15743   0.47233   0.00000  Uiso   1.00
C250   C     0.32571   0.21435   0.51920   0.00000  Uiso   1.00
C251   C     0.40342   0.24476   0.33861   0.00000  Uiso   1.00
C252   C     0.37918   0.22218   0.28618   0.00000  Uiso   1.00
C253   C     0.37400   0.30873   0.24792   0.00000  Uiso   1.00
H254   H     0.46136   0.43822   0.42269   0.00000  Uiso   1.00
H255   H     0.56046   0.37266   0.43624   0.00000  Uiso   1.00
H256   H     0.39780   0.45336   0.51090   0.00000  Uiso   1.00
H257   H     0.43094   0.51810   0.32479   0.00000  Uiso   1.00
H258   H     0.66220   0.25353   0.44522   0.00000  Uiso   1.00
H259   H     0.31921   0.42372   0.60265   0.00000  Uiso   1.00
H260   H     0.38909   0.56024   0.21019   0.00000  Uiso   1.00
H261   H     0.39879   0.08045   0.37603   0.00000  Uiso   1.00
H262   H     0.49445   0.99526   0.38702   0.00000  Uiso   1.00
H263   H     0.33180   0.07596   0.46169   0.00000  Uiso   1.00
H264   H     0.36494   0.14070   0.27557   0.00000  Uiso   1.00
H265   H     0.60863   0.94722   0.40528   0.00000  Uiso   1.00
H266   H     0.26564   0.11741   0.56271   0.00000  Uiso   1.00
H267   H     0.33552   0.25392   0.17025   0.00000  Uiso   1.00
O268   O     0.69948   0.05078   0.43334   0.00000  Uiso   1.00
O269   O     0.24948   0.27407   0.63987   0.00000  Uiso   1.00
O270   O     0.34117   0.45317   0.12497   0.00000  Uiso   1.00
N271   N     0.63647   0.19314   0.43430   0.00000  Uiso   1.00
N272   N     0.31580   0.35224   0.58150   0.00000  Uiso   1.00
N273   N     0.38112   0.47988   0.21458   0.00000  Uiso   1.00
N274   N     0.60764   0.02831   0.41281   0.00000  Uiso   1.00
N275   N     0.28698   0.18742   0.56000   0.00000  Uiso   1.00
N276   N     0.35229   0.31506   0.19309   0.00000  Uiso   1.00
C277   C     0.94702   0.64375   0.08800   0.00000  Uiso   1.00
C278   C     0.99219   0.72898   0.08712   0.00000  Uiso   1.00
C279   C     0.04622   0.70883   0.07439   0.00000  Uiso   1.00
C280   C     0.08124   0.79780   0.07588   0.00000  Uiso   1.00
C281   C     0.15416   0.91413   0.07239   0.00000  Uiso   1.00
C282   C     0.90382   0.68513   0.04654   0.00000  Uiso   1.00
C283   C     0.88354   0.62811   0.99971   0.00000  Uiso   1.00
C284   C     0.84416   0.68017   0.96705   0.00000  Uiso   1.00
C285   C     0.77986   0.72841   0.90058   0.00000  Uiso   1.00
C286   C     0.92183   0.64996   0.14766   0.00000  Uiso   1.00
C287   C     0.91668   0.56336   0.18585   0.00000  Uiso   1.00
C288   C     0.89245   0.58580   0.23832   0.00000  Uiso   1.00
C289   C     0.85612   0.57942   0.32887   0.00000  Uiso   1.00
C290   C     0.91312   0.83758   0.11328   0.00000  Uiso   1.00
C291   C     0.97377   0.83426   0.10084   0.00000  Uiso   1.00
C292   C     0.00872   0.92328   0.10236   0.00000  Uiso   1.00
C293   C     0.06279   0.90327   0.08964   0.00000  Uiso   1.00
C294   C     0.88540   0.79041   0.06027   0.00000  Uiso   1.00
C295   C     0.84604   0.84257   0.02767   0.00000  Uiso   1.00
C296   C     0.82571   0.78565   0.98080   0.00000  Uiso   1.00
C297   C     0.90342   0.75524   0.16139   0.00000  Uiso   1.00
C298   C     0.87918   0.77782   0.21382   0.00000  Uiso   1.00
C299   C     0.87400   0.69127   0.25208   0.00000  Uiso   1.00
H300   H     0.96136   0.56178   0.07731   0.00000  Uiso   1.00
H301   H     0.06046   0.62734   0.06376   0.00000  Uiso   1.00
H302   H     0.89780   0.54664   0.98910   0.00000  Uiso   1.00
H303   H     0.93094   0.48190   0.17521   0.00000  Uiso   1.00
H304   H     0.16220   0.74647   0.05478   0.00000  Uiso   1.00
H305   H     0.81921   0.57628   0.89735   0.00000  Uiso   1.00
H306   H     0.88909   0.43976   0.28981   0.00000  Uiso   1.00
H307   H     0.89879   0.91955   0.12397   0.00000  Uiso   1.00
H308   H     0.99445   0.00474   0.11298   0.00000  Uiso   1.00
H309   H     0.83180   0.92404   0.03831   0.00000  Uiso   1.00
H310   H     0.86494   0.85930   0.22443   0.00000  Uiso   1.00
H311   H     0.10863   0.05278   0.09472   0.00000  Uiso   1.00
H312   H     0.76564   0.88259   0.93729   0.00000  Uiso   1.00
H313   H     0.83552   0.74608   0.32975   0.00000  Uiso   1.00
O314   O     0.19948   0.94922   0.06666   0.00000  Uiso   1.00
O315   O     0.74948   0.72593   0.86013   0.00000  Uiso   1.00
O316   O     0.84117   0.54683   0.37503   0.00000  Uiso   1.00
N317   N     0.13647   0.80686   0.06570   0.00000  Uiso   1.00
N318   N     0.81580   0.64776   0.91850   0.00000  Uiso   1.00
N319   N     0.88112   0.52012   0.28542   0.00000  Uiso   1.00
N320   N     0.10764   0.97169   0.08719   0.00000  Uiso   1.00
N321   N     0.78698   0.81258   0.94000   0.00000  Uiso   1.00
N322   N     0.85229   0.68494   0.30691   0.00000  Uiso   1.00
C323   C     0.55298   0.35625   0.08800   0.00000  Uiso   1.00
C324   C     0.50781   0.27102   0.08712   0.00000  Uiso   1.00
C325   C     0.45378   0.29117   0.07439   0.00000  Uiso   1.00
C326   C     0.41876   0.20220   0.07588   0.00000  Uiso   1.00
C327   C     0.34584   0.08587   0.07239   0.00000  Uiso   1.00
C328   C     0.59618   0.31487   0.04654   0.00000  Uiso   1.00
C329   C     0.61646   0.37189   0.99971   0.00000  Uiso   1.00
C330   C     0.65584   0.31983   0.96705   0.00000  Uiso   1.00
C331   C     0.72014   0.27159   0.90058   0.00000  Uiso   1.00
C332   C     0.57817   0.35004   0.14766   0.00000  Uiso   1.00
C333   C     0.58332   0.43664   0.18585   0.00000  Uiso   1.00
C334   C     0.60755   0.41420   0.23832   0.00000  Uiso   1.00
C335   C     0.64388   0.42058   0.32887   0.00000  Uiso   1.00
C336   C     0.58688   0.16242   0.11328   0.00000  Uiso   1.00
C337   C     0.52623   0.16574   0.10084   0.00000  Uiso   1.00
C338   C     0.49128   0.07672   0.10236   0.00000  Uiso   1.00
C339   C     0.43721   0.09673   0.08964   0.00000  Uiso   1.00
C340   C     0.61460   0.20959   0.06027   0.00000  Uiso   1.00
C341   C     0.65396   0.15743   0.02767   0.00000  Uiso   1.00
C342   C     0.67429   0.21435   0.98080   0.00000  Uiso   1.00
C343   C     0.59658   0.24476   0.16139   0.00000  Uiso   1.00
C344   C     0.62082   0.22218   0.21382   0.00000  Uiso   1.00
C345   C     0.62600   0.30873   0.25208   0.00000  Uiso   1.00
H346   H     0.53864   0.43822   0.07731   0.00000  Uiso   1.00
H347   H     0.43954   0.37266   0.06376   0.00000  Uiso   1.00
H348   H     0.60220   0.45336   0.98910   0.00000  Uiso   1.00
H349   H     0.56906   0.51810   0.17521   0.00000  Uiso   1.00
H350   H     0.33780   0.25353   0.05478   0.00000  Uiso   1.00
H351   H     0.68079   0.42372   0.89735   0.00000  Uiso   1.00
H352   H     0.61091   0.56024   0.28981   0.00000  Uiso   1.00
H353   H     0.60121   0.08045   0.12397   0.00000  Uiso   1.00
H354   H     0.50555   0.99526   0.11298   0.00000  Uiso   1.00
H355   H     0.66820   0.07596   0.03831   0.00000  Uiso   1.00
H356   H     0.63506   0.14070   0.22443   0.00000  Uiso   1.00
H357   H     0.39137   0.94722   0.09472   0.00000  Uiso   1.00
H358   H     0.73436   0.11741   0.93729   0.00000  Uiso   1.00
H359   H     0.66448   0.25392   0.32975   0.00000  Uiso   1.00
O360   O     0.30052   0.05078   0.06666   0.00000  Uiso   1.00
O361   O     0.75052   0.27407   0.86013   0.00000  Uiso   1.00
O362   O     0.65883   0.45317   0.37503   0.00000  Uiso   1.00
N363   N     0.36353   0.19314   0.06570   0.00000  Uiso   1.00
N364   N     0.68420   0.35224   0.91850   0.00000  Uiso   1.00
N365   N     0.61888   0.47988   0.28542   0.00000  Uiso   1.00
N366   N     0.39236   0.02831   0.08719   0.00000  Uiso   1.00
N367   N     0.71302   0.18742   0.94000   0.00000  Uiso   1.00
N368   N     0.64771   0.31506   0.30691   0.00000  Uiso   1.00
