data_job_00578
_audit_creation_date              2018-12-19
_audit_creation_method            'Materials Studio'
_symmetry_space_group_name_H-M    'P1'
_symmetry_Int_Tables_number       1
_symmetry_cell_setting            triclinic
loop_
_symmetry_equiv_pos_as_xyz
  x,y,z
_cell_length_a                    19.1338
_cell_length_b                    13.5933
_cell_length_c                    12.4906
_cell_angle_alpha                 90.0000
_cell_angle_beta                  45.2794
_cell_angle_gamma                 90.0000
loop_
_atom_site_label
_atom_site_type_symbol
_atom_site_fract_x
_atom_site_fract_y
_atom_site_fract_z
_atom_site_U_iso_or_equiv
_atom_site_adp_type
_atom_site_occupancy
C1     C     0.82472   0.56102   0.71128   0.00000  Uiso   1.00
C2     C     0.75931   0.65172   0.77204   0.00000  Uiso   1.00
C3     C     0.78827   0.74807   0.75972   0.00000  Uiso   1.00
C4     C     0.71747   0.82066   0.82278   0.00000  Uiso   1.00
C5     C     0.63055   0.96499   0.90612   0.00000  Uiso   1.00
C6     C     0.77322   0.49271   0.84577   0.00000  Uiso   1.00
C7     C     0.81387   0.45535   0.89541   0.00000  Uiso   1.00
C8     C     0.75477   0.39408   0.02052   0.00000  Uiso   1.00
C9     C     0.68946   0.29148   0.21825   0.00000  Uiso   1.00
C10    C     0.82016   0.50957   0.60783   0.00000  Uiso   1.00
C11    C     0.90028   0.48636   0.45742   0.00000  Uiso   1.00
C12    C     0.88071   0.43925   0.38221   0.00000  Uiso   1.00
C13    C     0.88828   0.36283   0.21051   0.00000  Uiso   1.00
C14    C     0.64748   0.51861   0.84519   0.00000  Uiso   1.00
C15    C     0.66305   0.62868   0.84478   0.00000  Uiso   1.00
C16    C     0.59218   0.70114   0.90787   0.00000  Uiso   1.00
C17    C     0.62103   0.79758   0.89564   0.00000  Uiso   1.00
C18    C     0.67695   0.46967   0.91850   0.00000  Uiso   1.00
C19    C     0.61778   0.40843   0.04356   0.00000  Uiso   1.00
C20    C     0.65833   0.37099   0.09338   0.00000  Uiso   1.00
C21    C     0.72389   0.48653   0.68056   0.00000  Uiso   1.00
C22    C     0.70419   0.43944   0.60558   0.00000  Uiso   1.00
C23    C     0.78427   0.41617   0.45508   0.00000  Uiso   1.00
H24    H     0.89966   0.57895   0.65467   0.00000  Uiso   1.00
H25    H     0.86277   0.76587   0.70343   0.00000  Uiso   1.00
H26    H     0.88837   0.47319   0.83909   0.00000  Uiso   1.00
H27    H     0.97477   0.50420   0.40117   0.00000  Uiso   1.00
H28    H     0.77941   0.96293   0.78962   0.00000  Uiso   1.00
H29    H     0.83340   0.34578   0.07563   0.00000  Uiso   1.00
H30    H     0.01558   0.41116   0.15220   0.00000  Uiso   1.00
H31    H     0.57253   0.50067   0.90182   0.00000  Uiso   1.00
H32    H     0.51769   0.68329   0.96415   0.00000  Uiso   1.00
H33    H     0.54329   0.39061   0.09981   0.00000  Uiso   1.00
H34    H     0.62969   0.42162   0.66190   0.00000  Uiso   1.00
H35    H     0.49933   0.89591   0.00124   0.00000  Uiso   1.00
H36    H     0.55332   0.27875   0.28725   0.00000  Uiso   1.00
H37    H     0.73550   0.34414   0.36382   0.00000  Uiso   1.00
O38    O     0.60919   0.05096   0.93202   0.00000  Uiso   1.00
O39    O     0.68003   0.24127   0.30723   0.00000  Uiso   1.00
O40    O     0.91905   0.32706   0.09571   0.00000  Uiso   1.00
N41    N     0.72103   0.92210   0.83085   0.00000  Uiso   1.00
N42    N     0.77150   0.34511   0.09826   0.00000  Uiso   1.00
N43    N     0.94183   0.40621   0.23494   0.00000  Uiso   1.00
N44    N     0.57032   0.88603   0.94472   0.00000  Uiso   1.00
N45    N     0.62079   0.30904   0.21213   0.00000  Uiso   1.00
N46    N     0.79112   0.37015   0.34881   0.00000  Uiso   1.00
C47    C     0.17528   0.06102   0.78872   0.00000  Uiso   1.00
C48    C     0.24069   0.15172   0.72796   0.00000  Uiso   1.00
C49    C     0.21173   0.24807   0.74028   0.00000  Uiso   1.00
C50    C     0.28253   0.32066   0.67722   0.00000  Uiso   1.00
C51    C     0.36945   0.46499   0.59388   0.00000  Uiso   1.00
C52    C     0.22678   0.99271   0.65423   0.00000  Uiso   1.00
C53    C     0.18613   0.95535   0.60459   0.00000  Uiso   1.00
C54    C     0.24523   0.89408   0.47948   0.00000  Uiso   1.00
C55    C     0.31054   0.79148   0.28175   0.00000  Uiso   1.00
C56    C     0.17984   0.00957   0.89217   0.00000  Uiso   1.00
C57    C     0.09972   0.98636   0.04258   0.00000  Uiso   1.00
C58    C     0.11929   0.93925   0.11779   0.00000  Uiso   1.00
C59    C     0.11172   0.86283   0.28949   0.00000  Uiso   1.00
C60    C     0.35252   0.01861   0.65481   0.00000  Uiso   1.00
C61    C     0.33695   0.12868   0.65522   0.00000  Uiso   1.00
C62    C     0.40782   0.20114   0.59213   0.00000  Uiso   1.00
C63    C     0.37897   0.29758   0.60436   0.00000  Uiso   1.00
C64    C     0.32305   0.96967   0.58150   0.00000  Uiso   1.00
C65    C     0.38222   0.90843   0.45644   0.00000  Uiso   1.00
C66    C     0.34167   0.87099   0.40662   0.00000  Uiso   1.00
C67    C     0.27611   0.98653   0.81944   0.00000  Uiso   1.00
C68    C     0.29581   0.93944   0.89442   0.00000  Uiso   1.00
C69    C     0.21573   0.91617   0.04492   0.00000  Uiso   1.00
H70    H     0.10034   0.07895   0.84533   0.00000  Uiso   1.00
H71    H     0.13723   0.26587   0.79657   0.00000  Uiso   1.00
H72    H     0.11163   0.97319   0.66091   0.00000  Uiso   1.00
H73    H     0.02523   0.00420   0.09883   0.00000  Uiso   1.00
H74    H     0.22059   0.46293   0.71038   0.00000  Uiso   1.00
H75    H     0.16660   0.84578   0.42437   0.00000  Uiso   1.00
H76    H     0.98442   0.91116   0.34780   0.00000  Uiso   1.00
H77    H     0.42747   0.00067   0.59818   0.00000  Uiso   1.00
H78    H     0.48231   0.18329   0.53585   0.00000  Uiso   1.00
H79    H     0.45671   0.89061   0.40019   0.00000  Uiso   1.00
H80    H     0.37031   0.92162   0.83810   0.00000  Uiso   1.00
H81    H     0.50067   0.39591   0.49876   0.00000  Uiso   1.00
H82    H     0.44668   0.77875   0.21275   0.00000  Uiso   1.00
H83    H     0.26450   0.84414   0.13618   0.00000  Uiso   1.00
O84    O     0.39081   0.55096   0.56798   0.00000  Uiso   1.00
O85    O     0.31997   0.74127   0.19277   0.00000  Uiso   1.00
O86    O     0.08095   0.82706   0.40429   0.00000  Uiso   1.00
N87    N     0.27897   0.42210   0.66915   0.00000  Uiso   1.00
N88    N     0.22850   0.84511   0.40174   0.00000  Uiso   1.00
N89    N     0.05817   0.90621   0.26506   0.00000  Uiso   1.00
N90    N     0.42968   0.38603   0.55528   0.00000  Uiso   1.00
N91    N     0.37921   0.80904   0.28787   0.00000  Uiso   1.00
N92    N     0.20888   0.87015   0.15119   0.00000  Uiso   1.00
C93    C     0.17528   0.43898   0.28872   0.00000  Uiso   1.00
C94    C     0.24069   0.34828   0.22796   0.00000  Uiso   1.00
C95    C     0.21173   0.25193   0.24028   0.00000  Uiso   1.00
C96    C     0.28253   0.17934   0.17722   0.00000  Uiso   1.00
C97    C     0.36945   0.03501   0.09388   0.00000  Uiso   1.00
C98    C     0.22678   0.50729   0.15423   0.00000  Uiso   1.00
C99    C     0.18613   0.54465   0.10459   0.00000  Uiso   1.00
C100   C     0.24523   0.60592   0.97948   0.00000  Uiso   1.00
C101   C     0.31054   0.70852   0.78175   0.00000  Uiso   1.00
C102   C     0.17984   0.49043   0.39217   0.00000  Uiso   1.00
C103   C     0.09972   0.51364   0.54258   0.00000  Uiso   1.00
C104   C     0.11929   0.56075   0.61779   0.00000  Uiso   1.00
C105   C     0.11172   0.63717   0.78949   0.00000  Uiso   1.00
C106   C     0.35252   0.48139   0.15481   0.00000  Uiso   1.00
C107   C     0.33695   0.37132   0.15522   0.00000  Uiso   1.00
C108   C     0.40782   0.29886   0.09213   0.00000  Uiso   1.00
C109   C     0.37897   0.20242   0.10436   0.00000  Uiso   1.00
C110   C     0.32305   0.53033   0.08150   0.00000  Uiso   1.00
C111   C     0.38222   0.59157   0.95644   0.00000  Uiso   1.00
C112   C     0.34167   0.62901   0.90662   0.00000  Uiso   1.00
C113   C     0.27611   0.51347   0.31944   0.00000  Uiso   1.00
C114   C     0.29581   0.56056   0.39442   0.00000  Uiso   1.00
C115   C     0.21573   0.58383   0.54492   0.00000  Uiso   1.00
H116   H     0.10034   0.42105   0.34533   0.00000  Uiso   1.00
H117   H     0.13723   0.23413   0.29657   0.00000  Uiso   1.00
H118   H     0.11163   0.52681   0.16091   0.00000  Uiso   1.00
H119   H     0.02523   0.49580   0.59883   0.00000  Uiso   1.00
H120   H     0.22059   0.03707   0.21038   0.00000  Uiso   1.00
H121   H     0.16660   0.65422   0.92437   0.00000  Uiso   1.00
H122   H     0.98442   0.58884   0.84780   0.00000  Uiso   1.00
H123   H     0.42747   0.49933   0.09818   0.00000  Uiso   1.00
H124   H     0.48231   0.31671   0.03585   0.00000  Uiso   1.00
H125   H     0.45671   0.60939   0.90019   0.00000  Uiso   1.00
H126   H     0.37031   0.57838   0.33810   0.00000  Uiso   1.00
H127   H     0.50067   0.10409   0.99876   0.00000  Uiso   1.00
H128   H     0.44668   0.72125   0.71275   0.00000  Uiso   1.00
H129   H     0.26450   0.65586   0.63618   0.00000  Uiso   1.00
O130   O     0.39081   0.94904   0.06798   0.00000  Uiso   1.00
O131   O     0.31997   0.75873   0.69277   0.00000  Uiso   1.00
O132   O     0.08095   0.67294   0.90429   0.00000  Uiso   1.00
N133   N     0.27897   0.07790   0.16915   0.00000  Uiso   1.00
N134   N     0.22850   0.65489   0.90174   0.00000  Uiso   1.00
N135   N     0.05817   0.59379   0.76506   0.00000  Uiso   1.00
N136   N     0.42968   0.11397   0.05528   0.00000  Uiso   1.00
N137   N     0.37921   0.69096   0.78787   0.00000  Uiso   1.00
N138   N     0.20888   0.62985   0.65119   0.00000  Uiso   1.00
C139   C     0.82472   0.93898   0.21128   0.00000  Uiso   1.00
C140   C     0.75931   0.84828   0.27204   0.00000  Uiso   1.00
C141   C     0.78827   0.75193   0.25972   0.00000  Uiso   1.00
C142   C     0.71747   0.67934   0.32278   0.00000  Uiso   1.00
C143   C     0.63055   0.53501   0.40612   0.00000  Uiso   1.00
C144   C     0.77322   0.00729   0.34577   0.00000  Uiso   1.00
C145   C     0.81387   0.04465   0.39541   0.00000  Uiso   1.00
C146   C     0.75477   0.10592   0.52052   0.00000  Uiso   1.00
C147   C     0.68946   0.20852   0.71825   0.00000  Uiso   1.00
C148   C     0.82016   0.99043   0.10783   0.00000  Uiso   1.00
C149   C     0.90028   0.01364   0.95742   0.00000  Uiso   1.00
C150   C     0.88071   0.06075   0.88221   0.00000  Uiso   1.00
C151   C     0.88828   0.13717   0.71051   0.00000  Uiso   1.00
C152   C     0.64748   0.98139   0.34519   0.00000  Uiso   1.00
C153   C     0.66305   0.87132   0.34478   0.00000  Uiso   1.00
C154   C     0.59218   0.79886   0.40787   0.00000  Uiso   1.00
C155   C     0.62103   0.70242   0.39564   0.00000  Uiso   1.00
C156   C     0.67695   0.03033   0.41850   0.00000  Uiso   1.00
C157   C     0.61778   0.09157   0.54356   0.00000  Uiso   1.00
C158   C     0.65833   0.12901   0.59338   0.00000  Uiso   1.00
C159   C     0.72389   0.01347   0.18056   0.00000  Uiso   1.00
C160   C     0.70419   0.06056   0.10558   0.00000  Uiso   1.00
C161   C     0.78427   0.08383   0.95508   0.00000  Uiso   1.00
H162   H     0.89966   0.92105   0.15467   0.00000  Uiso   1.00
H163   H     0.86277   0.73413   0.20343   0.00000  Uiso   1.00
H164   H     0.88837   0.02681   0.33909   0.00000  Uiso   1.00
H165   H     0.97477   0.99580   0.90117   0.00000  Uiso   1.00
H166   H     0.77941   0.53707   0.28962   0.00000  Uiso   1.00
H167   H     0.83340   0.15422   0.57563   0.00000  Uiso   1.00
H168   H     0.01558   0.08884   0.65220   0.00000  Uiso   1.00
H169   H     0.57253   0.99933   0.40182   0.00000  Uiso   1.00
H170   H     0.51769   0.81671   0.46415   0.00000  Uiso   1.00
H171   H     0.54329   0.10939   0.59981   0.00000  Uiso   1.00
H172   H     0.62969   0.07838   0.16190   0.00000  Uiso   1.00
H173   H     0.49933   0.60409   0.50124   0.00000  Uiso   1.00
H174   H     0.55332   0.22125   0.78725   0.00000  Uiso   1.00
H175   H     0.73550   0.15586   0.86382   0.00000  Uiso   1.00
O176   O     0.60919   0.44904   0.43202   0.00000  Uiso   1.00
O177   O     0.68003   0.25873   0.80723   0.00000  Uiso   1.00
O178   O     0.91905   0.17294   0.59571   0.00000  Uiso   1.00
N179   N     0.72103   0.57790   0.33085   0.00000  Uiso   1.00
N180   N     0.77150   0.15489   0.59826   0.00000  Uiso   1.00
N181   N     0.94183   0.09379   0.73494   0.00000  Uiso   1.00
N182   N     0.57032   0.61397   0.44472   0.00000  Uiso   1.00
N183   N     0.62079   0.19096   0.71213   0.00000  Uiso   1.00
N184   N     0.79112   0.12985   0.84881   0.00000  Uiso   1.00
