data_job_01780
_audit_creation_date              2018-12-19
_audit_creation_method            'Materials Studio'
_symmetry_space_group_name_H-M    'P1'
_symmetry_Int_Tables_number       1
_symmetry_cell_setting            triclinic
loop_
_symmetry_equiv_pos_as_xyz
  x,y,z
_cell_length_a                    19.1814
_cell_length_b                    42.0362
_cell_length_c                    9.6335
_cell_angle_alpha                 90.0000
_cell_angle_beta                  88.1792
_cell_angle_gamma                 90.0000
loop_
_atom_site_label
_atom_site_type_symbol
_atom_site_fract_x
_atom_site_fract_y
_atom_site_fract_z
_atom_site_U_iso_or_equiv
_atom_site_adp_type
_atom_site_occupancy
C1     C     0.28186   0.89588   0.21267   0.00000  Uiso   1.00
C2     C     0.22656   0.90773   0.11482   0.00000  Uiso   1.00
C3     C     0.23165   0.90716   0.97082   0.00000  Uiso   1.00
C4     C     0.17543   0.91912   0.90001   0.00000  Uiso   1.00
C5     C     0.09858   0.93569   0.73731   0.00000  Uiso   1.00
C6     C     0.29857   0.92394   0.30627   0.00000  Uiso   1.00
C7     C     0.36421   0.93700   0.32324   0.00000  Uiso   1.00
C8     C     0.36860   0.96260   0.41361   0.00000  Uiso   1.00
C9     C     0.40355   0.00433   0.54820   0.00000  Uiso   1.00
C10    C     0.24583   0.87122   0.30624   0.00000  Uiso   1.00
C11    C     0.26713   0.83995   0.32323   0.00000  Uiso   1.00
C12    C     0.22713   0.82116   0.41360   0.00000  Uiso   1.00
C13    C     0.18019   0.78103   0.54815   0.00000  Uiso   1.00
C14    C     0.17296   0.91813   0.34300   0.00000  Uiso   1.00
C15    C     0.16741   0.91982   0.18561   0.00000  Uiso   1.00
C16    C     0.11117   0.93178   0.11501   0.00000  Uiso   1.00
C17    C     0.11617   0.93122   0.97093   0.00000  Uiso   1.00
C18    C     0.23942   0.93603   0.37705   0.00000  Uiso   1.00
C19    C     0.24372   0.96161   0.46743   0.00000  Uiso   1.00
C20    C     0.30935   0.97470   0.48453   0.00000  Uiso   1.00
C21    C     0.18668   0.88330   0.37703   0.00000  Uiso   1.00
C22    C     0.14664   0.86456   0.46740   0.00000  Uiso   1.00
C23    C     0.16787   0.83327   0.48452   0.00000  Uiso   1.00
H24    H     0.32792   0.88647   0.15757   0.00000  Uiso   1.00
H25    H     0.27744   0.89781   0.91608   0.00000  Uiso   1.00
H26    H     0.40998   0.92764   0.26846   0.00000  Uiso   1.00
H27    H     0.31291   0.83060   0.26843   0.00000  Uiso   1.00
H28    H     0.19540   0.91571   0.67956   0.00000  Uiso   1.00
H29    H     0.47486   0.97861   0.42260   0.00000  Uiso   1.00
H30    H     0.27018   0.77399   0.42256   0.00000  Uiso   1.00
H31    H     0.12691   0.92754   0.39811   0.00000  Uiso   1.00
H32    H     0.06540   0.94113   0.16981   0.00000  Uiso   1.00
H33    H     0.19794   0.97096   0.52219   0.00000  Uiso   1.00
H34    H     0.10087   0.87392   0.52217   0.00000  Uiso   1.00
H35    H     0.02331   0.95087   0.88550   0.00000  Uiso   1.00
H36    H     0.30277   0.01377   0.62855   0.00000  Uiso   1.00
H37    H     0.09808   0.80915   0.62850   0.00000  Uiso   1.00
O38    O     0.07253   0.94150   0.62801   0.00000  Uiso   1.00
O39    O     0.43917   0.02401   0.60287   0.00000  Uiso   1.00
O40    O     0.17063   0.75556   0.60280   0.00000  Uiso   1.00
N41    N     0.16334   0.92212   0.75936   0.00000  Uiso   1.00
N42    N     0.42461   0.98092   0.45404   0.00000  Uiso   1.00
N43    N     0.23326   0.78963   0.45403   0.00000  Uiso   1.00
N44    N     0.07073   0.94104   0.87017   0.00000  Uiso   1.00
N45    N     0.33201   0.99984   0.56486   0.00000  Uiso   1.00
N46    N     0.14066   0.80855   0.56484   0.00000  Uiso   1.00
C47    C     0.78186   0.39588   0.21267   0.00000  Uiso   1.00
C48    C     0.72656   0.40773   0.11482   0.00000  Uiso   1.00
C49    C     0.73165   0.40716   0.97082   0.00000  Uiso   1.00
C50    C     0.67543   0.41912   0.90001   0.00000  Uiso   1.00
C51    C     0.59858   0.43569   0.73731   0.00000  Uiso   1.00
C52    C     0.79857   0.42394   0.30627   0.00000  Uiso   1.00
C53    C     0.86421   0.43700   0.32324   0.00000  Uiso   1.00
C54    C     0.86860   0.46260   0.41361   0.00000  Uiso   1.00
C55    C     0.90355   0.50433   0.54820   0.00000  Uiso   1.00
C56    C     0.74583   0.37122   0.30624   0.00000  Uiso   1.00
C57    C     0.76713   0.33995   0.32323   0.00000  Uiso   1.00
C58    C     0.72713   0.32116   0.41360   0.00000  Uiso   1.00
C59    C     0.68019   0.28103   0.54815   0.00000  Uiso   1.00
C60    C     0.67296   0.41813   0.34300   0.00000  Uiso   1.00
C61    C     0.66741   0.41982   0.18561   0.00000  Uiso   1.00
C62    C     0.61117   0.43178   0.11501   0.00000  Uiso   1.00
C63    C     0.61617   0.43122   0.97093   0.00000  Uiso   1.00
C64    C     0.73942   0.43603   0.37705   0.00000  Uiso   1.00
C65    C     0.74372   0.46161   0.46743   0.00000  Uiso   1.00
C66    C     0.80935   0.47470   0.48453   0.00000  Uiso   1.00
C67    C     0.68668   0.38330   0.37703   0.00000  Uiso   1.00
C68    C     0.64664   0.36456   0.46740   0.00000  Uiso   1.00
C69    C     0.66787   0.33327   0.48452   0.00000  Uiso   1.00
H70    H     0.82792   0.38647   0.15757   0.00000  Uiso   1.00
H71    H     0.77744   0.39781   0.91608   0.00000  Uiso   1.00
H72    H     0.90998   0.42764   0.26846   0.00000  Uiso   1.00
H73    H     0.81291   0.33060   0.26843   0.00000  Uiso   1.00
H74    H     0.69540   0.41571   0.67956   0.00000  Uiso   1.00
H75    H     0.97486   0.47861   0.42260   0.00000  Uiso   1.00
H76    H     0.77018   0.27399   0.42256   0.00000  Uiso   1.00
H77    H     0.62691   0.42754   0.39811   0.00000  Uiso   1.00
H78    H     0.56540   0.44113   0.16981   0.00000  Uiso   1.00
H79    H     0.69794   0.47096   0.52219   0.00000  Uiso   1.00
H80    H     0.60087   0.37392   0.52217   0.00000  Uiso   1.00
H81    H     0.52331   0.45087   0.88550   0.00000  Uiso   1.00
H82    H     0.80277   0.51377   0.62855   0.00000  Uiso   1.00
H83    H     0.59808   0.30915   0.62850   0.00000  Uiso   1.00
O84    O     0.57253   0.44150   0.62801   0.00000  Uiso   1.00
O85    O     0.93917   0.52401   0.60287   0.00000  Uiso   1.00
O86    O     0.67063   0.25556   0.60280   0.00000  Uiso   1.00
N87    N     0.66334   0.42212   0.75936   0.00000  Uiso   1.00
N88    N     0.92461   0.48092   0.45404   0.00000  Uiso   1.00
N89    N     0.73326   0.28963   0.45403   0.00000  Uiso   1.00
N90    N     0.57073   0.44104   0.87017   0.00000  Uiso   1.00
N91    N     0.83201   0.49984   0.56486   0.00000  Uiso   1.00
N92    N     0.64066   0.30855   0.56484   0.00000  Uiso   1.00
C93    C     0.71814   0.89588   0.28733   0.00000  Uiso   1.00
C94    C     0.77344   0.90773   0.38518   0.00000  Uiso   1.00
C95    C     0.76835   0.90716   0.52918   0.00000  Uiso   1.00
C96    C     0.82457   0.91912   0.59999   0.00000  Uiso   1.00
C97    C     0.90142   0.93569   0.76269   0.00000  Uiso   1.00
C98    C     0.70143   0.92394   0.19373   0.00000  Uiso   1.00
C99    C     0.63579   0.93700   0.17676   0.00000  Uiso   1.00
C100   C     0.63140   0.96260   0.08639   0.00000  Uiso   1.00
C101   C     0.59645   0.00433   0.95180   0.00000  Uiso   1.00
C102   C     0.75417   0.87122   0.19376   0.00000  Uiso   1.00
C103   C     0.73287   0.83995   0.17677   0.00000  Uiso   1.00
C104   C     0.77287   0.82116   0.08640   0.00000  Uiso   1.00
C105   C     0.81981   0.78103   0.95185   0.00000  Uiso   1.00
C106   C     0.82704   0.91813   0.15700   0.00000  Uiso   1.00
C107   C     0.83259   0.91982   0.31439   0.00000  Uiso   1.00
C108   C     0.88883   0.93178   0.38499   0.00000  Uiso   1.00
C109   C     0.88383   0.93122   0.52907   0.00000  Uiso   1.00
C110   C     0.76058   0.93603   0.12295   0.00000  Uiso   1.00
C111   C     0.75628   0.96161   0.03257   0.00000  Uiso   1.00
C112   C     0.69065   0.97470   0.01547   0.00000  Uiso   1.00
C113   C     0.81332   0.88330   0.12297   0.00000  Uiso   1.00
C114   C     0.85336   0.86456   0.03260   0.00000  Uiso   1.00
C115   C     0.83213   0.83327   0.01548   0.00000  Uiso   1.00
H116   H     0.67208   0.88647   0.34243   0.00000  Uiso   1.00
H117   H     0.72256   0.89781   0.58392   0.00000  Uiso   1.00
H118   H     0.59002   0.92764   0.23154   0.00000  Uiso   1.00
H119   H     0.68709   0.83060   0.23157   0.00000  Uiso   1.00
H120   H     0.80460   0.91571   0.82044   0.00000  Uiso   1.00
H121   H     0.52514   0.97861   0.07740   0.00000  Uiso   1.00
H122   H     0.72982   0.77399   0.07744   0.00000  Uiso   1.00
H123   H     0.87309   0.92754   0.10189   0.00000  Uiso   1.00
H124   H     0.93460   0.94113   0.33019   0.00000  Uiso   1.00
H125   H     0.80206   0.97096   0.97781   0.00000  Uiso   1.00
H126   H     0.89913   0.87392   0.97783   0.00000  Uiso   1.00
H127   H     0.97669   0.95087   0.61450   0.00000  Uiso   1.00
H128   H     0.69723   0.01377   0.87145   0.00000  Uiso   1.00
H129   H     0.90192   0.80915   0.87150   0.00000  Uiso   1.00
O130   O     0.92747   0.94150   0.87199   0.00000  Uiso   1.00
O131   O     0.56083   0.02401   0.89713   0.00000  Uiso   1.00
O132   O     0.82937   0.75556   0.89720   0.00000  Uiso   1.00
N133   N     0.83666   0.92212   0.74064   0.00000  Uiso   1.00
N134   N     0.57539   0.98092   0.04596   0.00000  Uiso   1.00
N135   N     0.76674   0.78963   0.04597   0.00000  Uiso   1.00
N136   N     0.92927   0.94104   0.62983   0.00000  Uiso   1.00
N137   N     0.66799   0.99984   0.93514   0.00000  Uiso   1.00
N138   N     0.85934   0.80855   0.93516   0.00000  Uiso   1.00
C139   C     0.21814   0.39588   0.28733   0.00000  Uiso   1.00
C140   C     0.27344   0.40773   0.38518   0.00000  Uiso   1.00
C141   C     0.26835   0.40716   0.52918   0.00000  Uiso   1.00
C142   C     0.32457   0.41912   0.59999   0.00000  Uiso   1.00
C143   C     0.40142   0.43569   0.76269   0.00000  Uiso   1.00
C144   C     0.20143   0.42394   0.19373   0.00000  Uiso   1.00
C145   C     0.13579   0.43700   0.17676   0.00000  Uiso   1.00
C146   C     0.13140   0.46260   0.08639   0.00000  Uiso   1.00
C147   C     0.09645   0.50433   0.95180   0.00000  Uiso   1.00
C148   C     0.25417   0.37122   0.19376   0.00000  Uiso   1.00
C149   C     0.23287   0.33995   0.17677   0.00000  Uiso   1.00
C150   C     0.27287   0.32116   0.08640   0.00000  Uiso   1.00
C151   C     0.31981   0.28103   0.95185   0.00000  Uiso   1.00
C152   C     0.32704   0.41813   0.15700   0.00000  Uiso   1.00
C153   C     0.33259   0.41982   0.31439   0.00000  Uiso   1.00
C154   C     0.38883   0.43178   0.38499   0.00000  Uiso   1.00
C155   C     0.38383   0.43122   0.52907   0.00000  Uiso   1.00
C156   C     0.26058   0.43603   0.12295   0.00000  Uiso   1.00
C157   C     0.25628   0.46161   0.03257   0.00000  Uiso   1.00
C158   C     0.19065   0.47470   0.01547   0.00000  Uiso   1.00
C159   C     0.31332   0.38330   0.12297   0.00000  Uiso   1.00
C160   C     0.35336   0.36456   0.03260   0.00000  Uiso   1.00
C161   C     0.33213   0.33327   0.01548   0.00000  Uiso   1.00
H162   H     0.17208   0.38647   0.34243   0.00000  Uiso   1.00
H163   H     0.22256   0.39781   0.58392   0.00000  Uiso   1.00
H164   H     0.09002   0.42764   0.23154   0.00000  Uiso   1.00
H165   H     0.18709   0.33060   0.23157   0.00000  Uiso   1.00
H166   H     0.30460   0.41571   0.82044   0.00000  Uiso   1.00
H167   H     0.02514   0.47861   0.07740   0.00000  Uiso   1.00
H168   H     0.22982   0.27399   0.07744   0.00000  Uiso   1.00
H169   H     0.37309   0.42754   0.10189   0.00000  Uiso   1.00
H170   H     0.43460   0.44113   0.33019   0.00000  Uiso   1.00
H171   H     0.30206   0.47096   0.97781   0.00000  Uiso   1.00
H172   H     0.39913   0.37392   0.97783   0.00000  Uiso   1.00
H173   H     0.47669   0.45087   0.61450   0.00000  Uiso   1.00
H174   H     0.19723   0.51377   0.87145   0.00000  Uiso   1.00
H175   H     0.40192   0.30915   0.87150   0.00000  Uiso   1.00
O176   O     0.42747   0.44150   0.87199   0.00000  Uiso   1.00
O177   O     0.06083   0.52401   0.89713   0.00000  Uiso   1.00
O178   O     0.32937   0.25556   0.89720   0.00000  Uiso   1.00
N179   N     0.33666   0.42212   0.74064   0.00000  Uiso   1.00
N180   N     0.07539   0.48092   0.04596   0.00000  Uiso   1.00
N181   N     0.26674   0.28963   0.04597   0.00000  Uiso   1.00
N182   N     0.42927   0.44104   0.62983   0.00000  Uiso   1.00
N183   N     0.16799   0.49984   0.93514   0.00000  Uiso   1.00
N184   N     0.35934   0.30855   0.93516   0.00000  Uiso   1.00
C185   C     0.71814   0.10412   0.78733   0.00000  Uiso   1.00
C186   C     0.77344   0.09227   0.88518   0.00000  Uiso   1.00
C187   C     0.76835   0.09284   0.02918   0.00000  Uiso   1.00
C188   C     0.82457   0.08088   0.09999   0.00000  Uiso   1.00
C189   C     0.90142   0.06431   0.26269   0.00000  Uiso   1.00
C190   C     0.70143   0.07606   0.69373   0.00000  Uiso   1.00
C191   C     0.63579   0.06300   0.67676   0.00000  Uiso   1.00
C192   C     0.63140   0.03740   0.58639   0.00000  Uiso   1.00
C193   C     0.59645   0.99567   0.45180   0.00000  Uiso   1.00
C194   C     0.75417   0.12878   0.69376   0.00000  Uiso   1.00
C195   C     0.73287   0.16005   0.67677   0.00000  Uiso   1.00
C196   C     0.77287   0.17884   0.58640   0.00000  Uiso   1.00
C197   C     0.81981   0.21897   0.45185   0.00000  Uiso   1.00
C198   C     0.82704   0.08187   0.65700   0.00000  Uiso   1.00
C199   C     0.83259   0.08018   0.81439   0.00000  Uiso   1.00
C200   C     0.88883   0.06822   0.88499   0.00000  Uiso   1.00
C201   C     0.88383   0.06878   0.02907   0.00000  Uiso   1.00
C202   C     0.76058   0.06397   0.62295   0.00000  Uiso   1.00
C203   C     0.75628   0.03839   0.53257   0.00000  Uiso   1.00
C204   C     0.69065   0.02530   0.51547   0.00000  Uiso   1.00
C205   C     0.81332   0.11670   0.62297   0.00000  Uiso   1.00
C206   C     0.85336   0.13544   0.53260   0.00000  Uiso   1.00
C207   C     0.83213   0.16673   0.51548   0.00000  Uiso   1.00
H208   H     0.67208   0.11353   0.84243   0.00000  Uiso   1.00
H209   H     0.72256   0.10219   0.08392   0.00000  Uiso   1.00
H210   H     0.59002   0.07236   0.73154   0.00000  Uiso   1.00
H211   H     0.68709   0.16940   0.73157   0.00000  Uiso   1.00
H212   H     0.80460   0.08429   0.32044   0.00000  Uiso   1.00
H213   H     0.52514   0.02139   0.57740   0.00000  Uiso   1.00
H214   H     0.72982   0.22601   0.57744   0.00000  Uiso   1.00
H215   H     0.87309   0.07246   0.60189   0.00000  Uiso   1.00
H216   H     0.93460   0.05887   0.83019   0.00000  Uiso   1.00
H217   H     0.80206   0.02904   0.47781   0.00000  Uiso   1.00
H218   H     0.89913   0.12608   0.47783   0.00000  Uiso   1.00
H219   H     0.97669   0.04913   0.11450   0.00000  Uiso   1.00
H220   H     0.69723   0.98623   0.37145   0.00000  Uiso   1.00
H221   H     0.90192   0.19085   0.37150   0.00000  Uiso   1.00
O222   O     0.92747   0.05850   0.37199   0.00000  Uiso   1.00
O223   O     0.56083   0.97599   0.39713   0.00000  Uiso   1.00
O224   O     0.82937   0.24444   0.39720   0.00000  Uiso   1.00
N225   N     0.83666   0.07788   0.24064   0.00000  Uiso   1.00
N226   N     0.57539   0.01908   0.54596   0.00000  Uiso   1.00
N227   N     0.76674   0.21037   0.54597   0.00000  Uiso   1.00
N228   N     0.92927   0.05896   0.12983   0.00000  Uiso   1.00
N229   N     0.66799   0.00016   0.43514   0.00000  Uiso   1.00
N230   N     0.85934   0.19145   0.43516   0.00000  Uiso   1.00
C231   C     0.21814   0.60412   0.78733   0.00000  Uiso   1.00
C232   C     0.27344   0.59227   0.88518   0.00000  Uiso   1.00
C233   C     0.26835   0.59284   0.02918   0.00000  Uiso   1.00
C234   C     0.32457   0.58088   0.09999   0.00000  Uiso   1.00
C235   C     0.40142   0.56431   0.26269   0.00000  Uiso   1.00
C236   C     0.20143   0.57606   0.69373   0.00000  Uiso   1.00
C237   C     0.13579   0.56300   0.67676   0.00000  Uiso   1.00
C238   C     0.13140   0.53740   0.58639   0.00000  Uiso   1.00
C239   C     0.09645   0.49567   0.45180   0.00000  Uiso   1.00
C240   C     0.25417   0.62878   0.69376   0.00000  Uiso   1.00
C241   C     0.23287   0.66005   0.67677   0.00000  Uiso   1.00
C242   C     0.27287   0.67884   0.58640   0.00000  Uiso   1.00
C243   C     0.31981   0.71897   0.45185   0.00000  Uiso   1.00
C244   C     0.32704   0.58187   0.65700   0.00000  Uiso   1.00
C245   C     0.33259   0.58018   0.81439   0.00000  Uiso   1.00
C246   C     0.38883   0.56822   0.88499   0.00000  Uiso   1.00
C247   C     0.38383   0.56878   0.02907   0.00000  Uiso   1.00
C248   C     0.26058   0.56397   0.62295   0.00000  Uiso   1.00
C249   C     0.25628   0.53839   0.53257   0.00000  Uiso   1.00
C250   C     0.19065   0.52530   0.51547   0.00000  Uiso   1.00
C251   C     0.31332   0.61670   0.62297   0.00000  Uiso   1.00
C252   C     0.35336   0.63544   0.53260   0.00000  Uiso   1.00
C253   C     0.33213   0.66673   0.51548   0.00000  Uiso   1.00
H254   H     0.17208   0.61353   0.84243   0.00000  Uiso   1.00
H255   H     0.22256   0.60219   0.08392   0.00000  Uiso   1.00
H256   H     0.09002   0.57236   0.73154   0.00000  Uiso   1.00
H257   H     0.18709   0.66940   0.73157   0.00000  Uiso   1.00
H258   H     0.30460   0.58429   0.32044   0.00000  Uiso   1.00
H259   H     0.02514   0.52139   0.57740   0.00000  Uiso   1.00
H260   H     0.22982   0.72601   0.57744   0.00000  Uiso   1.00
H261   H     0.37309   0.57246   0.60189   0.00000  Uiso   1.00
H262   H     0.43460   0.55887   0.83019   0.00000  Uiso   1.00
H263   H     0.30206   0.52904   0.47781   0.00000  Uiso   1.00
H264   H     0.39913   0.62608   0.47783   0.00000  Uiso   1.00
H265   H     0.47669   0.54913   0.11450   0.00000  Uiso   1.00
H266   H     0.19723   0.48623   0.37145   0.00000  Uiso   1.00
H267   H     0.40192   0.69085   0.37150   0.00000  Uiso   1.00
O268   O     0.42747   0.55850   0.37199   0.00000  Uiso   1.00
O269   O     0.06083   0.47599   0.39713   0.00000  Uiso   1.00
O270   O     0.32937   0.74444   0.39720   0.00000  Uiso   1.00
N271   N     0.33666   0.57788   0.24064   0.00000  Uiso   1.00
N272   N     0.07539   0.51908   0.54596   0.00000  Uiso   1.00
N273   N     0.26674   0.71037   0.54597   0.00000  Uiso   1.00
N274   N     0.42927   0.55896   0.12983   0.00000  Uiso   1.00
N275   N     0.16799   0.50016   0.43514   0.00000  Uiso   1.00
N276   N     0.35934   0.69145   0.43516   0.00000  Uiso   1.00
C277   C     0.28186   0.10412   0.71267   0.00000  Uiso   1.00
C278   C     0.22656   0.09227   0.61482   0.00000  Uiso   1.00
C279   C     0.23165   0.09284   0.47082   0.00000  Uiso   1.00
C280   C     0.17543   0.08088   0.40001   0.00000  Uiso   1.00
C281   C     0.09858   0.06431   0.23731   0.00000  Uiso   1.00
C282   C     0.29857   0.07606   0.80627   0.00000  Uiso   1.00
C283   C     0.36421   0.06300   0.82324   0.00000  Uiso   1.00
C284   C     0.36860   0.03740   0.91361   0.00000  Uiso   1.00
C285   C     0.40355   0.99567   0.04820   0.00000  Uiso   1.00
C286   C     0.24583   0.12878   0.80624   0.00000  Uiso   1.00
C287   C     0.26713   0.16005   0.82323   0.00000  Uiso   1.00
C288   C     0.22713   0.17884   0.91360   0.00000  Uiso   1.00
C289   C     0.18019   0.21897   0.04815   0.00000  Uiso   1.00
C290   C     0.17296   0.08187   0.84300   0.00000  Uiso   1.00
C291   C     0.16741   0.08018   0.68561   0.00000  Uiso   1.00
C292   C     0.11117   0.06822   0.61501   0.00000  Uiso   1.00
C293   C     0.11617   0.06878   0.47093   0.00000  Uiso   1.00
C294   C     0.23942   0.06397   0.87705   0.00000  Uiso   1.00
C295   C     0.24372   0.03839   0.96743   0.00000  Uiso   1.00
C296   C     0.30935   0.02530   0.98453   0.00000  Uiso   1.00
C297   C     0.18668   0.11670   0.87703   0.00000  Uiso   1.00
C298   C     0.14664   0.13544   0.96740   0.00000  Uiso   1.00
C299   C     0.16787   0.16673   0.98452   0.00000  Uiso   1.00
H300   H     0.32792   0.11353   0.65757   0.00000  Uiso   1.00
H301   H     0.27744   0.10219   0.41608   0.00000  Uiso   1.00
H302   H     0.40998   0.07236   0.76846   0.00000  Uiso   1.00
H303   H     0.31291   0.16940   0.76843   0.00000  Uiso   1.00
H304   H     0.19540   0.08429   0.17956   0.00000  Uiso   1.00
H305   H     0.47486   0.02139   0.92260   0.00000  Uiso   1.00
H306   H     0.27018   0.22601   0.92256   0.00000  Uiso   1.00
H307   H     0.12691   0.07246   0.89811   0.00000  Uiso   1.00
H308   H     0.06540   0.05887   0.66981   0.00000  Uiso   1.00
H309   H     0.19794   0.02904   0.02219   0.00000  Uiso   1.00
H310   H     0.10087   0.12608   0.02217   0.00000  Uiso   1.00
H311   H     0.02331   0.04913   0.38550   0.00000  Uiso   1.00
H312   H     0.30277   0.98623   0.12855   0.00000  Uiso   1.00
H313   H     0.09808   0.19085   0.12850   0.00000  Uiso   1.00
O314   O     0.07253   0.05850   0.12801   0.00000  Uiso   1.00
O315   O     0.43917   0.97599   0.10287   0.00000  Uiso   1.00
O316   O     0.17063   0.24444   0.10280   0.00000  Uiso   1.00
N317   N     0.16334   0.07788   0.25936   0.00000  Uiso   1.00
N318   N     0.42461   0.01908   0.95404   0.00000  Uiso   1.00
N319   N     0.23326   0.21037   0.95403   0.00000  Uiso   1.00
N320   N     0.07073   0.05896   0.37017   0.00000  Uiso   1.00
N321   N     0.33201   0.00016   0.06486   0.00000  Uiso   1.00
N322   N     0.14066   0.19145   0.06484   0.00000  Uiso   1.00
C323   C     0.78186   0.60412   0.71267   0.00000  Uiso   1.00
C324   C     0.72656   0.59227   0.61482   0.00000  Uiso   1.00
C325   C     0.73165   0.59284   0.47082   0.00000  Uiso   1.00
C326   C     0.67543   0.58088   0.40001   0.00000  Uiso   1.00
C327   C     0.59858   0.56431   0.23731   0.00000  Uiso   1.00
C328   C     0.79857   0.57606   0.80627   0.00000  Uiso   1.00
C329   C     0.86421   0.56300   0.82324   0.00000  Uiso   1.00
C330   C     0.86860   0.53740   0.91361   0.00000  Uiso   1.00
C331   C     0.90355   0.49567   0.04820   0.00000  Uiso   1.00
C332   C     0.74583   0.62878   0.80624   0.00000  Uiso   1.00
C333   C     0.76713   0.66005   0.82323   0.00000  Uiso   1.00
C334   C     0.72713   0.67884   0.91360   0.00000  Uiso   1.00
C335   C     0.68019   0.71897   0.04815   0.00000  Uiso   1.00
C336   C     0.67296   0.58187   0.84300   0.00000  Uiso   1.00
C337   C     0.66741   0.58018   0.68561   0.00000  Uiso   1.00
C338   C     0.61117   0.56822   0.61501   0.00000  Uiso   1.00
C339   C     0.61617   0.56878   0.47093   0.00000  Uiso   1.00
C340   C     0.73942   0.56397   0.87705   0.00000  Uiso   1.00
C341   C     0.74372   0.53839   0.96743   0.00000  Uiso   1.00
C342   C     0.80935   0.52530   0.98453   0.00000  Uiso   1.00
C343   C     0.68668   0.61670   0.87703   0.00000  Uiso   1.00
C344   C     0.64664   0.63544   0.96740   0.00000  Uiso   1.00
C345   C     0.66787   0.66673   0.98452   0.00000  Uiso   1.00
H346   H     0.82792   0.61353   0.65757   0.00000  Uiso   1.00
H347   H     0.77744   0.60219   0.41608   0.00000  Uiso   1.00
H348   H     0.90998   0.57236   0.76846   0.00000  Uiso   1.00
H349   H     0.81291   0.66940   0.76843   0.00000  Uiso   1.00
H350   H     0.69540   0.58429   0.17956   0.00000  Uiso   1.00
H351   H     0.97486   0.52139   0.92260   0.00000  Uiso   1.00
H352   H     0.77018   0.72601   0.92256   0.00000  Uiso   1.00
H353   H     0.62691   0.57246   0.89811   0.00000  Uiso   1.00
H354   H     0.56540   0.55887   0.66981   0.00000  Uiso   1.00
H355   H     0.69794   0.52904   0.02219   0.00000  Uiso   1.00
H356   H     0.60087   0.62608   0.02217   0.00000  Uiso   1.00
H357   H     0.52331   0.54913   0.38550   0.00000  Uiso   1.00
H358   H     0.80277   0.48623   0.12855   0.00000  Uiso   1.00
H359   H     0.59808   0.69085   0.12850   0.00000  Uiso   1.00
O360   O     0.57253   0.55850   0.12801   0.00000  Uiso   1.00
O361   O     0.93917   0.47599   0.10287   0.00000  Uiso   1.00
O362   O     0.67063   0.74444   0.10280   0.00000  Uiso   1.00
N363   N     0.66334   0.57788   0.25936   0.00000  Uiso   1.00
N364   N     0.92461   0.51908   0.95404   0.00000  Uiso   1.00
N365   N     0.73326   0.71037   0.95403   0.00000  Uiso   1.00
N366   N     0.57073   0.55896   0.37017   0.00000  Uiso   1.00
N367   N     0.83201   0.50016   0.06486   0.00000  Uiso   1.00
N368   N     0.64066   0.69145   0.06484   0.00000  Uiso   1.00
