data_job_01873
_audit_creation_date              2018-12-19
_audit_creation_method            'Materials Studio'
_symmetry_space_group_name_H-M    'P1'
_symmetry_Int_Tables_number       1
_symmetry_cell_setting            triclinic
loop_
_symmetry_equiv_pos_as_xyz
  x,y,z
_cell_length_a                    12.4919
_cell_length_b                    13.2540
_cell_length_c                    16.7136
_cell_angle_alpha                 90.0000
_cell_angle_beta                  87.4006
_cell_angle_gamma                 90.0000
loop_
_atom_site_label
_atom_site_type_symbol
_atom_site_fract_x
_atom_site_fract_y
_atom_site_fract_z
_atom_site_U_iso_or_equiv
_atom_site_adp_type
_atom_site_occupancy
C1     C     0.36003   0.65975   0.49185   0.00000  Uiso   1.00
C2     C     0.34501   0.75495   0.54236   0.00000  Uiso   1.00
C3     C     0.35579   0.76148   0.62447   0.00000  Uiso   1.00
C4     C     0.33873   0.85540   0.65957   0.00000  Uiso   1.00
C5     C     0.31944   0.99039   0.74491   0.00000  Uiso   1.00
C6     C     0.25587   0.64548   0.44903   0.00000  Uiso   1.00
C7     C     0.19172   0.55997   0.45267   0.00000  Uiso   1.00
C8     C     0.09963   0.56174   0.40919   0.00000  Uiso   1.00
C9     C     0.94199   0.52674   0.34960   0.00000  Uiso   1.00
C10    C     0.44532   0.68517   0.42681   0.00000  Uiso   1.00
C11    C     0.54044   0.63301   0.41174   0.00000  Uiso   1.00
C12    C     0.60784   0.66818   0.34953   0.00000  Uiso   1.00
C13    C     0.74434   0.69480   0.25543   0.00000  Uiso   1.00
C14    C     0.31058   0.81494   0.40815   0.00000  Uiso   1.00
C15    C     0.31815   0.83924   0.49689   0.00000  Uiso   1.00
C16    C     0.30107   0.93318   0.53187   0.00000  Uiso   1.00
C17    C     0.31183   0.93985   0.61402   0.00000  Uiso   1.00
C18    C     0.22901   0.72977   0.40357   0.00000  Uiso   1.00
C19    C     0.13700   0.73166   0.36007   0.00000  Uiso   1.00
C20    C     0.07272   0.64618   0.36364   0.00000  Uiso   1.00
C21    C     0.41846   0.76946   0.38134   0.00000  Uiso   1.00
C22    C     0.48572   0.80471   0.31914   0.00000  Uiso   1.00
C23    C     0.58093   0.75262   0.30399   0.00000  Uiso   1.00
H24    H     0.38094   0.59413   0.52725   0.00000  Uiso   1.00
H25    H     0.37657   0.69623   0.65964   0.00000  Uiso   1.00
H26    H     0.21253   0.49475   0.48786   0.00000  Uiso   1.00
H27    H     0.56119   0.56778   0.44694   0.00000  Uiso   1.00
H28    H     0.35983   0.84660   0.78637   0.00000  Uiso   1.00
H29    H     0.01397   0.42175   0.42414   0.00000  Uiso   1.00
H30    H     0.74920   0.57575   0.33785   0.00000  Uiso   1.00
H31    H     0.28967   0.88056   0.37275   0.00000  Uiso   1.00
H32    H     0.28029   0.99839   0.49667   0.00000  Uiso   1.00
H33    H     0.11625   0.79690   0.32489   0.00000  Uiso   1.00
H34    H     0.46491   0.86994   0.28397   0.00000  Uiso   1.00
H35    H     0.28168   0.09184   0.65410   0.00000  Uiso   1.00
H36    H     0.93582   0.66699   0.29187   0.00000  Uiso   1.00
H37    H     0.67105   0.82099   0.20558   0.00000  Uiso   1.00
O38    O     0.31620   0.04155   0.80455   0.00000  Uiso   1.00
O39    O     0.86246   0.48416   0.32930   0.00000  Uiso   1.00
O40    O     0.82705   0.68621   0.21609   0.00000  Uiso   1.00
N41    N     0.34275   0.88815   0.73824   0.00000  Uiso   1.00
N42    N     0.01938   0.49095   0.39958   0.00000  Uiso   1.00
N43    N     0.70674   0.63491   0.31889   0.00000  Uiso   1.00
N44    N     0.30070   0.02011   0.66706   0.00000  Uiso   1.00
N45    N     0.97733   0.62291   0.32841   0.00000  Uiso   1.00
N46    N     0.66469   0.76687   0.24772   0.00000  Uiso   1.00
C47    C     0.63997   0.15975   0.00815   0.00000  Uiso   1.00
C48    C     0.65499   0.25495   0.95764   0.00000  Uiso   1.00
C49    C     0.64421   0.26148   0.87553   0.00000  Uiso   1.00
C50    C     0.66127   0.35540   0.84043   0.00000  Uiso   1.00
C51    C     0.68056   0.49039   0.75509   0.00000  Uiso   1.00
C52    C     0.74413   0.14548   0.05097   0.00000  Uiso   1.00
C53    C     0.80828   0.05997   0.04733   0.00000  Uiso   1.00
C54    C     0.90037   0.06174   0.09081   0.00000  Uiso   1.00
C55    C     0.05801   0.02674   0.15040   0.00000  Uiso   1.00
C56    C     0.55468   0.18517   0.07319   0.00000  Uiso   1.00
C57    C     0.45956   0.13301   0.08826   0.00000  Uiso   1.00
C58    C     0.39216   0.16818   0.15047   0.00000  Uiso   1.00
C59    C     0.25566   0.19480   0.24457   0.00000  Uiso   1.00
C60    C     0.68942   0.31494   0.09185   0.00000  Uiso   1.00
C61    C     0.68185   0.33924   0.00311   0.00000  Uiso   1.00
C62    C     0.69893   0.43318   0.96813   0.00000  Uiso   1.00
C63    C     0.68817   0.43985   0.88598   0.00000  Uiso   1.00
C64    C     0.77099   0.22977   0.09643   0.00000  Uiso   1.00
C65    C     0.86300   0.23166   0.13993   0.00000  Uiso   1.00
C66    C     0.92728   0.14618   0.13636   0.00000  Uiso   1.00
C67    C     0.58154   0.26946   0.11866   0.00000  Uiso   1.00
C68    C     0.51428   0.30471   0.18086   0.00000  Uiso   1.00
C69    C     0.41907   0.25262   0.19601   0.00000  Uiso   1.00
H70    H     0.61906   0.09413   0.97275   0.00000  Uiso   1.00
H71    H     0.62343   0.19623   0.84036   0.00000  Uiso   1.00
H72    H     0.78747   0.99475   0.01214   0.00000  Uiso   1.00
H73    H     0.43881   0.06778   0.05306   0.00000  Uiso   1.00
H74    H     0.64017   0.34660   0.71363   0.00000  Uiso   1.00
H75    H     0.98603   0.92175   0.07586   0.00000  Uiso   1.00
H76    H     0.25080   0.07575   0.16215   0.00000  Uiso   1.00
H77    H     0.71033   0.38056   0.12725   0.00000  Uiso   1.00
H78    H     0.71971   0.49839   0.00333   0.00000  Uiso   1.00
H79    H     0.88375   0.29690   0.17511   0.00000  Uiso   1.00
H80    H     0.53509   0.36994   0.21603   0.00000  Uiso   1.00
H81    H     0.71832   0.59184   0.84590   0.00000  Uiso   1.00
H82    H     0.06418   0.16699   0.20813   0.00000  Uiso   1.00
H83    H     0.32895   0.32099   0.29442   0.00000  Uiso   1.00
O84    O     0.68380   0.54155   0.69545   0.00000  Uiso   1.00
O85    O     0.13754   0.98416   0.17070   0.00000  Uiso   1.00
O86    O     0.17295   0.18621   0.28391   0.00000  Uiso   1.00
N87    N     0.65725   0.38815   0.76176   0.00000  Uiso   1.00
N88    N     0.98062   0.99095   0.10042   0.00000  Uiso   1.00
N89    N     0.29326   0.13491   0.18111   0.00000  Uiso   1.00
N90    N     0.69930   0.52011   0.83294   0.00000  Uiso   1.00
N91    N     0.02267   0.12291   0.17159   0.00000  Uiso   1.00
N92    N     0.33531   0.26687   0.25228   0.00000  Uiso   1.00
C93    C     0.63997   0.34025   0.50815   0.00000  Uiso   1.00
C94    C     0.65499   0.24505   0.45764   0.00000  Uiso   1.00
C95    C     0.64421   0.23852   0.37553   0.00000  Uiso   1.00
C96    C     0.66127   0.14460   0.34043   0.00000  Uiso   1.00
C97    C     0.68056   0.00961   0.25509   0.00000  Uiso   1.00
C98    C     0.74413   0.35452   0.55097   0.00000  Uiso   1.00
C99    C     0.80828   0.44003   0.54733   0.00000  Uiso   1.00
C100   C     0.90037   0.43826   0.59081   0.00000  Uiso   1.00
C101   C     0.05801   0.47326   0.65040   0.00000  Uiso   1.00
C102   C     0.55468   0.31483   0.57319   0.00000  Uiso   1.00
C103   C     0.45956   0.36699   0.58826   0.00000  Uiso   1.00
C104   C     0.39216   0.33182   0.65047   0.00000  Uiso   1.00
C105   C     0.25566   0.30520   0.74457   0.00000  Uiso   1.00
C106   C     0.68942   0.18506   0.59185   0.00000  Uiso   1.00
C107   C     0.68185   0.16076   0.50311   0.00000  Uiso   1.00
C108   C     0.69893   0.06682   0.46813   0.00000  Uiso   1.00
C109   C     0.68817   0.06015   0.38598   0.00000  Uiso   1.00
C110   C     0.77099   0.27023   0.59643   0.00000  Uiso   1.00
C111   C     0.86300   0.26834   0.63993   0.00000  Uiso   1.00
C112   C     0.92728   0.35382   0.63636   0.00000  Uiso   1.00
C113   C     0.58154   0.23054   0.61866   0.00000  Uiso   1.00
C114   C     0.51428   0.19529   0.68086   0.00000  Uiso   1.00
C115   C     0.41907   0.24738   0.69601   0.00000  Uiso   1.00
H116   H     0.61906   0.40587   0.47275   0.00000  Uiso   1.00
H117   H     0.62343   0.30377   0.34036   0.00000  Uiso   1.00
H118   H     0.78747   0.50525   0.51214   0.00000  Uiso   1.00
H119   H     0.43881   0.43222   0.55306   0.00000  Uiso   1.00
H120   H     0.64017   0.15340   0.21363   0.00000  Uiso   1.00
H121   H     0.98603   0.57825   0.57586   0.00000  Uiso   1.00
H122   H     0.25080   0.42425   0.66215   0.00000  Uiso   1.00
H123   H     0.71033   0.11944   0.62725   0.00000  Uiso   1.00
H124   H     0.71971   0.00161   0.50333   0.00000  Uiso   1.00
H125   H     0.88375   0.20310   0.67511   0.00000  Uiso   1.00
H126   H     0.53509   0.13006   0.71603   0.00000  Uiso   1.00
H127   H     0.71832   0.90816   0.34590   0.00000  Uiso   1.00
H128   H     0.06418   0.33301   0.70813   0.00000  Uiso   1.00
H129   H     0.32895   0.17901   0.79442   0.00000  Uiso   1.00
O130   O     0.68380   0.95845   0.19545   0.00000  Uiso   1.00
O131   O     0.13754   0.51584   0.67070   0.00000  Uiso   1.00
O132   O     0.17295   0.31379   0.78391   0.00000  Uiso   1.00
N133   N     0.65725   0.11185   0.26176   0.00000  Uiso   1.00
N134   N     0.98062   0.50905   0.60042   0.00000  Uiso   1.00
N135   N     0.29326   0.36509   0.68111   0.00000  Uiso   1.00
N136   N     0.69930   0.97989   0.33294   0.00000  Uiso   1.00
N137   N     0.02267   0.37709   0.67159   0.00000  Uiso   1.00
N138   N     0.33531   0.23313   0.75228   0.00000  Uiso   1.00
C139   C     0.36003   0.84025   0.99185   0.00000  Uiso   1.00
C140   C     0.34501   0.74505   0.04236   0.00000  Uiso   1.00
C141   C     0.35579   0.73852   0.12447   0.00000  Uiso   1.00
C142   C     0.33873   0.64460   0.15957   0.00000  Uiso   1.00
C143   C     0.31944   0.50961   0.24491   0.00000  Uiso   1.00
C144   C     0.25587   0.85452   0.94903   0.00000  Uiso   1.00
C145   C     0.19172   0.94003   0.95267   0.00000  Uiso   1.00
C146   C     0.09963   0.93826   0.90919   0.00000  Uiso   1.00
C147   C     0.94199   0.97326   0.84960   0.00000  Uiso   1.00
C148   C     0.44532   0.81483   0.92681   0.00000  Uiso   1.00
C149   C     0.54044   0.86699   0.91174   0.00000  Uiso   1.00
C150   C     0.60784   0.83182   0.84953   0.00000  Uiso   1.00
C151   C     0.74434   0.80520   0.75543   0.00000  Uiso   1.00
C152   C     0.31058   0.68506   0.90815   0.00000  Uiso   1.00
C153   C     0.31815   0.66076   0.99689   0.00000  Uiso   1.00
C154   C     0.30107   0.56682   0.03187   0.00000  Uiso   1.00
C155   C     0.31183   0.56015   0.11402   0.00000  Uiso   1.00
C156   C     0.22901   0.77023   0.90357   0.00000  Uiso   1.00
C157   C     0.13700   0.76834   0.86007   0.00000  Uiso   1.00
C158   C     0.07272   0.85382   0.86364   0.00000  Uiso   1.00
C159   C     0.41846   0.73054   0.88134   0.00000  Uiso   1.00
C160   C     0.48572   0.69529   0.81914   0.00000  Uiso   1.00
C161   C     0.58093   0.74738   0.80399   0.00000  Uiso   1.00
H162   H     0.38094   0.90587   0.02725   0.00000  Uiso   1.00
H163   H     0.37657   0.80377   0.15964   0.00000  Uiso   1.00
H164   H     0.21253   0.00525   0.98786   0.00000  Uiso   1.00
H165   H     0.56119   0.93222   0.94694   0.00000  Uiso   1.00
H166   H     0.35983   0.65340   0.28637   0.00000  Uiso   1.00
H167   H     0.01397   0.07825   0.92414   0.00000  Uiso   1.00
H168   H     0.74920   0.92425   0.83785   0.00000  Uiso   1.00
H169   H     0.28967   0.61944   0.87275   0.00000  Uiso   1.00
H170   H     0.28029   0.50161   0.99667   0.00000  Uiso   1.00
H171   H     0.11625   0.70310   0.82489   0.00000  Uiso   1.00
H172   H     0.46491   0.63006   0.78397   0.00000  Uiso   1.00
H173   H     0.28168   0.40816   0.15410   0.00000  Uiso   1.00
H174   H     0.93582   0.83301   0.79187   0.00000  Uiso   1.00
H175   H     0.67105   0.67901   0.70558   0.00000  Uiso   1.00
O176   O     0.31620   0.45845   0.30455   0.00000  Uiso   1.00
O177   O     0.86246   0.01584   0.82930   0.00000  Uiso   1.00
O178   O     0.82705   0.81379   0.71609   0.00000  Uiso   1.00
N179   N     0.34275   0.61185   0.23824   0.00000  Uiso   1.00
N180   N     0.01938   0.00905   0.89958   0.00000  Uiso   1.00
N181   N     0.70674   0.86509   0.81889   0.00000  Uiso   1.00
N182   N     0.30070   0.47989   0.16706   0.00000  Uiso   1.00
N183   N     0.97733   0.87709   0.82841   0.00000  Uiso   1.00
N184   N     0.66469   0.73313   0.74772   0.00000  Uiso   1.00
