data_job_01724
_audit_creation_date              2018-12-19
_audit_creation_method            'Materials Studio'
_symmetry_space_group_name_H-M    'P1'
_symmetry_Int_Tables_number       1
_symmetry_cell_setting            triclinic
loop_
_symmetry_equiv_pos_as_xyz
  x,y,z
_cell_length_a                    12.7654
_cell_length_b                    17.5155
_cell_length_c                    12.5033
_cell_angle_alpha                 90.0000
_cell_angle_beta                  111.6610
_cell_angle_gamma                 90.0000
loop_
_atom_site_label
_atom_site_type_symbol
_atom_site_fract_x
_atom_site_fract_y
_atom_site_fract_z
_atom_site_U_iso_or_equiv
_atom_site_adp_type
_atom_site_occupancy
C1     C     0.86823   0.99948   0.18797   0.00000  Uiso   1.00
C2     C     0.81337   0.92104   0.15778   0.00000  Uiso   1.00
C3     C     0.86591   0.85163   0.19702   0.00000  Uiso   1.00
C4     C     0.80124   0.78624   0.15947   0.00000  Uiso   1.00
C5     C     0.73330   0.66383   0.12382   0.00000  Uiso   1.00
C6     C     0.85291   0.03780   0.07365   0.00000  Uiso   1.00
C7     C     0.93870   0.06656   0.04217   0.00000  Uiso   1.00
C8     C     0.90731   0.09947   0.93380   0.00000  Uiso   1.00
C9     C     0.90074   0.15838   0.76758   0.00000  Uiso   1.00
C10    C     0.79566   0.04462   0.23896   0.00000  Uiso   1.00
C11    C     0.83332   0.07914   0.34645   0.00000  Uiso   1.00
C12    C     0.75373   0.11780   0.37725   0.00000  Uiso   1.00
C13    C     0.65828   0.18730   0.46768   0.00000  Uiso   1.00
C14    C     0.65995   0.00679   0.05151   0.00000  Uiso   1.00
C15    C     0.70024   0.92501   0.08365   0.00000  Uiso   1.00
C16    C     0.63548   0.85971   0.04604   0.00000  Uiso   1.00
C17    C     0.68791   0.79021   0.08522   0.00000  Uiso   1.00
C18    C     0.73979   0.04177   0.99953   0.00000  Uiso   1.00
C19    C     0.70826   0.07465   0.89119   0.00000  Uiso   1.00
C20    C     0.79398   0.10344   0.85955   0.00000  Uiso   1.00
C21    C     0.68253   0.04859   0.16484   0.00000  Uiso   1.00
C22    C     0.60288   0.08721   0.19547   0.00000  Uiso   1.00
C23    C     0.64040   0.12178   0.30299   0.00000  Uiso   1.00
H24    H     0.95630   0.99640   0.24567   0.00000  Uiso   1.00
H25    H     0.95347   0.84858   0.25437   0.00000  Uiso   1.00
H26    H     0.02623   0.06349   0.09955   0.00000  Uiso   1.00
H27    H     0.92087   0.07605   0.40378   0.00000  Uiso   1.00
H28    H     0.90044   0.68644   0.23130   0.00000  Uiso   1.00
H29    H     0.05388   0.13961   0.90487   0.00000  Uiso   1.00
H30    H     0.83169   0.16611   0.54640   0.00000  Uiso   1.00
H31    H     0.57187   0.00989   0.99380   0.00000  Uiso   1.00
H32    H     0.54793   0.86280   0.98868   0.00000  Uiso   1.00
H33    H     0.62071   0.07771   0.83386   0.00000  Uiso   1.00
H34    H     0.51534   0.09028   0.13809   0.00000  Uiso   1.00
H35    H     0.57130   0.69799   0.01564   0.00000  Uiso   1.00
H36    H     0.72474   0.15116   0.68921   0.00000  Uiso   1.00
H37    H     0.50255   0.17766   0.33075   0.00000  Uiso   1.00
O38    O     0.72707   0.59522   0.12462   0.00000  Uiso   1.00
O39    O     0.92837   0.18977   0.69636   0.00000  Uiso   1.00
O40    O     0.63687   0.22453   0.53804   0.00000  Uiso   1.00
N41    N     0.82626   0.70935   0.18126   0.00000  Uiso   1.00
N42    N     0.96971   0.13302   0.87606   0.00000  Uiso   1.00
N43    N     0.76199   0.15781   0.47583   0.00000  Uiso   1.00
N44    N     0.64915   0.71556   0.06523   0.00000  Uiso   1.00
N45    N     0.79260   0.13923   0.76002   0.00000  Uiso   1.00
N46    N     0.58489   0.16403   0.35979   0.00000  Uiso   1.00
C47    C     0.18613   0.94080   0.34297   0.00000  Uiso   1.00
C48    C     0.23987   0.01966   0.37159   0.00000  Uiso   1.00
C49    C     0.18611   0.08862   0.33169   0.00000  Uiso   1.00
C50    C     0.24990   0.15451   0.36780   0.00000  Uiso   1.00
C51    C     0.31607   0.27743   0.40113   0.00000  Uiso   1.00
C52    C     0.20298   0.90310   0.45809   0.00000  Uiso   1.00
C53    C     0.11820   0.87405   0.49089   0.00000  Uiso   1.00
C54    C     0.15094   0.84181   0.59981   0.00000  Uiso   1.00
C55    C     0.15985   0.78371   0.76738   0.00000  Uiso   1.00
C56    C     0.25868   0.89581   0.29181   0.00000  Uiso   1.00
C57    C     0.22073   0.86060   0.18482   0.00000  Uiso   1.00
C58    C     0.30036   0.82220   0.15376   0.00000  Uiso   1.00
C59    C     0.39574   0.75278   0.06317   0.00000  Uiso   1.00
C60    C     0.39501   0.93521   0.47806   0.00000  Uiso   1.00
C61    C     0.35333   0.01662   0.44497   0.00000  Uiso   1.00
C62    C     0.41722   0.08243   0.48115   0.00000  Uiso   1.00
C63    C     0.36356   0.15147   0.44130   0.00000  Uiso   1.00
C64    C     0.31643   0.90006   0.53146   0.00000  Uiso   1.00
C65    C     0.34931   0.86786   0.64035   0.00000  Uiso   1.00
C66    C     0.26460   0.83876   0.67331   0.00000  Uiso   1.00
C67    C     0.37214   0.89277   0.36518   0.00000  Uiso   1.00
C68    C     0.45183   0.85441   0.33428   0.00000  Uiso   1.00
C69    C     0.41402   0.81916   0.22726   0.00000  Uiso   1.00
H70    H     0.09780   0.94316   0.28585   0.00000  Uiso   1.00
H71    H     0.09830   0.09095   0.27492   0.00000  Uiso   1.00
H72    H     0.03041   0.87640   0.43409   0.00000  Uiso   1.00
H73    H     0.13292   0.86296   0.12807   0.00000  Uiso   1.00
H74    H     0.14889   0.25345   0.29518   0.00000  Uiso   1.00
H75    H     0.00574   0.80105   0.63079   0.00000  Uiso   1.00
H76    H     0.22190   0.77270   0.98549   0.00000  Uiso   1.00
H77    H     0.48335   0.93284   0.53518   0.00000  Uiso   1.00
H78    H     0.50501   0.08006   0.53793   0.00000  Uiso   1.00
H79    H     0.43711   0.86551   0.69710   0.00000  Uiso   1.00
H80    H     0.53963   0.85207   0.39108   0.00000  Uiso   1.00
H81    H     0.47899   0.24461   0.50866   0.00000  Uiso   1.00
H82    H     0.33583   0.79220   0.84426   0.00000  Uiso   1.00
H83    H     0.55200   0.76387   0.19896   0.00000  Uiso   1.00
O84    O     0.32122   0.34606   0.39926   0.00000  Uiso   1.00
O85    O     0.13341   0.75251   0.83955   0.00000  Uiso   1.00
O86    O     0.41701   0.71534   0.99293   0.00000  Uiso   1.00
N87    N     0.22361   0.23117   0.34503   0.00000  Uiso   1.00
N88    N     0.08977   0.80820   0.65881   0.00000  Uiso   1.00
N89    N     0.29186   0.78169   0.05552   0.00000  Uiso   1.00
N90    N     0.40123   0.22641   0.45990   0.00000  Uiso   1.00
N91    N     0.26739   0.80345   0.77368   0.00000  Uiso   1.00
N92    N     0.46948   0.77694   0.17038   0.00000  Uiso   1.00
C93    C     0.13177   0.49948   0.81203   0.00000  Uiso   1.00
C94    C     0.18663   0.42104   0.84222   0.00000  Uiso   1.00
C95    C     0.13409   0.35163   0.80298   0.00000  Uiso   1.00
C96    C     0.19876   0.28624   0.84053   0.00000  Uiso   1.00
C97    C     0.26670   0.16383   0.87618   0.00000  Uiso   1.00
C98    C     0.14709   0.53780   0.92635   0.00000  Uiso   1.00
C99    C     0.06130   0.56656   0.95783   0.00000  Uiso   1.00
C100   C     0.09269   0.59947   0.06620   0.00000  Uiso   1.00
C101   C     0.09926   0.65838   0.23242   0.00000  Uiso   1.00
C102   C     0.20434   0.54462   0.76104   0.00000  Uiso   1.00
C103   C     0.16668   0.57914   0.65355   0.00000  Uiso   1.00
C104   C     0.24627   0.61780   0.62275   0.00000  Uiso   1.00
C105   C     0.34172   0.68730   0.53232   0.00000  Uiso   1.00
C106   C     0.34005   0.50679   0.94849   0.00000  Uiso   1.00
C107   C     0.29976   0.42501   0.91635   0.00000  Uiso   1.00
C108   C     0.36452   0.35971   0.95396   0.00000  Uiso   1.00
C109   C     0.31209   0.29021   0.91478   0.00000  Uiso   1.00
C110   C     0.26021   0.54177   0.00047   0.00000  Uiso   1.00
C111   C     0.29174   0.57465   0.10881   0.00000  Uiso   1.00
C112   C     0.20602   0.60344   0.14045   0.00000  Uiso   1.00
C113   C     0.31747   0.54859   0.83516   0.00000  Uiso   1.00
C114   C     0.39712   0.58721   0.80453   0.00000  Uiso   1.00
C115   C     0.35960   0.62178   0.69701   0.00000  Uiso   1.00
H116   H     0.04370   0.49640   0.75433   0.00000  Uiso   1.00
H117   H     0.04653   0.34858   0.74563   0.00000  Uiso   1.00
H118   H     0.97377   0.56349   0.90045   0.00000  Uiso   1.00
H119   H     0.07913   0.57605   0.59622   0.00000  Uiso   1.00
H120   H     0.09956   0.18644   0.76870   0.00000  Uiso   1.00
H121   H     0.94612   0.63961   0.09513   0.00000  Uiso   1.00
H122   H     0.16831   0.66611   0.45360   0.00000  Uiso   1.00
H123   H     0.42813   0.50989   0.00620   0.00000  Uiso   1.00
H124   H     0.45207   0.36280   0.01132   0.00000  Uiso   1.00
H125   H     0.37929   0.57771   0.16614   0.00000  Uiso   1.00
H126   H     0.48466   0.59028   0.86191   0.00000  Uiso   1.00
H127   H     0.42870   0.19799   0.98436   0.00000  Uiso   1.00
H128   H     0.27526   0.65116   0.31079   0.00000  Uiso   1.00
H129   H     0.49745   0.67766   0.66925   0.00000  Uiso   1.00
O130   O     0.27293   0.09522   0.87538   0.00000  Uiso   1.00
O131   O     0.07163   0.68977   0.30364   0.00000  Uiso   1.00
O132   O     0.36313   0.72453   0.46196   0.00000  Uiso   1.00
N133   N     0.17374   0.20935   0.81874   0.00000  Uiso   1.00
N134   N     0.03029   0.63302   0.12394   0.00000  Uiso   1.00
N135   N     0.23801   0.65781   0.52417   0.00000  Uiso   1.00
N136   N     0.35085   0.21556   0.93477   0.00000  Uiso   1.00
N137   N     0.20740   0.63923   0.23998   0.00000  Uiso   1.00
N138   N     0.41511   0.66403   0.64021   0.00000  Uiso   1.00
C139   C     0.81387   0.44080   0.65703   0.00000  Uiso   1.00
C140   C     0.76013   0.51966   0.62841   0.00000  Uiso   1.00
C141   C     0.81389   0.58862   0.66831   0.00000  Uiso   1.00
C142   C     0.75010   0.65451   0.63220   0.00000  Uiso   1.00
C143   C     0.68393   0.77743   0.59887   0.00000  Uiso   1.00
C144   C     0.79702   0.40310   0.54191   0.00000  Uiso   1.00
C145   C     0.88180   0.37405   0.50911   0.00000  Uiso   1.00
C146   C     0.84906   0.34181   0.40019   0.00000  Uiso   1.00
C147   C     0.84015   0.28371   0.23262   0.00000  Uiso   1.00
C148   C     0.74132   0.39581   0.70819   0.00000  Uiso   1.00
C149   C     0.77927   0.36060   0.81518   0.00000  Uiso   1.00
C150   C     0.69964   0.32220   0.84624   0.00000  Uiso   1.00
C151   C     0.60426   0.25278   0.93683   0.00000  Uiso   1.00
C152   C     0.60499   0.43521   0.52194   0.00000  Uiso   1.00
C153   C     0.64667   0.51662   0.55503   0.00000  Uiso   1.00
C154   C     0.58278   0.58243   0.51885   0.00000  Uiso   1.00
C155   C     0.63644   0.65147   0.55870   0.00000  Uiso   1.00
C156   C     0.68357   0.40006   0.46854   0.00000  Uiso   1.00
C157   C     0.65069   0.36786   0.35965   0.00000  Uiso   1.00
C158   C     0.73540   0.33876   0.32669   0.00000  Uiso   1.00
C159   C     0.62786   0.39277   0.63482   0.00000  Uiso   1.00
C160   C     0.54817   0.35441   0.66572   0.00000  Uiso   1.00
C161   C     0.58598   0.31916   0.77274   0.00000  Uiso   1.00
H162   H     0.90220   0.44316   0.71415   0.00000  Uiso   1.00
H163   H     0.90170   0.59095   0.72508   0.00000  Uiso   1.00
H164   H     0.96959   0.37640   0.56591   0.00000  Uiso   1.00
H165   H     0.86708   0.36296   0.87193   0.00000  Uiso   1.00
H166   H     0.85111   0.75345   0.70482   0.00000  Uiso   1.00
H167   H     0.99426   0.30105   0.36921   0.00000  Uiso   1.00
H168   H     0.77810   0.27270   0.01451   0.00000  Uiso   1.00
H169   H     0.51665   0.43284   0.46482   0.00000  Uiso   1.00
H170   H     0.49499   0.58006   0.46207   0.00000  Uiso   1.00
H171   H     0.56289   0.36551   0.30290   0.00000  Uiso   1.00
H172   H     0.46037   0.35207   0.60892   0.00000  Uiso   1.00
H173   H     0.52101   0.74461   0.49134   0.00000  Uiso   1.00
H174   H     0.66417   0.29220   0.15574   0.00000  Uiso   1.00
H175   H     0.44800   0.26387   0.80104   0.00000  Uiso   1.00
O176   O     0.67878   0.84606   0.60074   0.00000  Uiso   1.00
O177   O     0.86659   0.25251   0.16045   0.00000  Uiso   1.00
O178   O     0.58299   0.21534   0.00707   0.00000  Uiso   1.00
N179   N     0.77639   0.73117   0.65497   0.00000  Uiso   1.00
N180   N     0.91023   0.30820   0.34119   0.00000  Uiso   1.00
N181   N     0.70814   0.28169   0.94448   0.00000  Uiso   1.00
N182   N     0.59877   0.72641   0.54010   0.00000  Uiso   1.00
N183   N     0.73261   0.30345   0.22632   0.00000  Uiso   1.00
N184   N     0.53052   0.27694   0.82962   0.00000  Uiso   1.00
