data_job_04434
_audit_creation_date              2018-12-19
_audit_creation_method            'Materials Studio'
_symmetry_space_group_name_H-M    'P1'
_symmetry_Int_Tables_number       1
_symmetry_cell_setting            triclinic
loop_
_symmetry_equiv_pos_as_xyz
  x,y,z
_cell_length_a                    12.5769
_cell_length_b                    11.1325
_cell_length_c                    35.9836
_cell_angle_alpha                 90.0000
_cell_angle_beta                  108.3537
_cell_angle_gamma                 90.0000
loop_
_atom_site_label
_atom_site_type_symbol
_atom_site_fract_x
_atom_site_fract_y
_atom_site_fract_z
_atom_site_U_iso_or_equiv
_atom_site_adp_type
_atom_site_occupancy
C1     C     0.56012   0.68450   0.93320   0.00000  Uiso   1.00
C2     C     0.55533   0.82114   0.93517   0.00000  Uiso   1.00
C3     C     0.60589   0.89096   0.96793   0.00000  Uiso   1.00
C4     C     0.59160   0.01445   0.96377   0.00000  Uiso   1.00
C5     C     0.59364   0.21876   0.97226   0.00000  Uiso   1.00
C6     C     0.43876   0.64175   0.91942   0.00000  Uiso   1.00
C7     C     0.39132   0.56074   0.93893   0.00000  Uiso   1.00
C8     C     0.27891   0.53320   0.92150   0.00000  Uiso   1.00
C9     C     0.09999   0.45895   0.90552   0.00000  Uiso   1.00
C10    C     0.60727   0.65579   0.90002   0.00000  Uiso   1.00
C11    C     0.70149   0.58655   0.90321   0.00000  Uiso   1.00
C12    C     0.73094   0.57082   0.86944   0.00000  Uiso   1.00
C13    C     0.81365   0.51836   0.82334   0.00000  Uiso   1.00
C14    C     0.44484   0.77964   0.86755   0.00000  Uiso   1.00
C15    C     0.49271   0.87282   0.89952   0.00000  Uiso   1.00
C16    C     0.47835   0.99623   0.89530   0.00000  Uiso   1.00
C17    C     0.52888   0.06622   0.92804   0.00000  Uiso   1.00
C18    C     0.37615   0.69343   0.88376   0.00000  Uiso   1.00
C19    C     0.26378   0.66601   0.86630   0.00000  Uiso   1.00
C20    C     0.21618   0.58498   0.88578   0.00000  Uiso   1.00
C21    C     0.54465   0.70748   0.86436   0.00000  Uiso   1.00
C22    C     0.57395   0.69183   0.83058   0.00000  Uiso   1.00
C23    C     0.66821   0.62259   0.83372   0.00000  Uiso   1.00
H24    H     0.60886   0.64426   0.96096   0.00000  Uiso   1.00
H25    H     0.65433   0.85093   0.99552   0.00000  Uiso   1.00
H26    H     0.43980   0.52075   0.96652   0.00000  Uiso   1.00
H27    H     0.74992   0.54657   0.93081   0.00000  Uiso   1.00
H28    H     0.67709   0.10286   0.01812   0.00000  Uiso   1.00
H29    H     0.22475   0.40662   0.95696   0.00000  Uiso   1.00
H30    H     0.87871   0.46107   0.88165   0.00000  Uiso   1.00
H31    H     0.39609   0.81988   0.83979   0.00000  Uiso   1.00
H32    H     0.42989   0.03620   0.86770   0.00000  Uiso   1.00
H33    H     0.21535   0.70601   0.83870   0.00000  Uiso   1.00
H34    H     0.52548   0.73184   0.80299   0.00000  Uiso   1.00
H35    H     0.49492   0.25323   0.91438   0.00000  Uiso   1.00
H36    H     0.04258   0.55698   0.85322   0.00000  Uiso   1.00
H37    H     0.69654   0.61144   0.77791   0.00000  Uiso   1.00
O38    O     0.61204   0.31717   0.98680   0.00000  Uiso   1.00
O39    O     0.01860   0.40372   0.90656   0.00000  Uiso   1.00
O40    O     0.87658   0.47516   0.80776   0.00000  Uiso   1.00
N41    N     0.62960   0.10856   0.98987   0.00000  Uiso   1.00
N42    N     0.20668   0.45763   0.93270   0.00000  Uiso   1.00
N43    N     0.81806   0.50851   0.86229   0.00000  Uiso   1.00
N44    N     0.53157   0.18947   0.93405   0.00000  Uiso   1.00
N45    N     0.10866   0.53855   0.87687   0.00000  Uiso   1.00
N46    N     0.72004   0.58942   0.80646   0.00000  Uiso   1.00
C47    C     0.99614   0.39953   0.40226   0.00000  Uiso   1.00
C48    C     0.00390   0.52240   0.42167   0.00000  Uiso   1.00
C49    C     0.05597   0.54670   0.46105   0.00000  Uiso   1.00
C50    C     0.05395   0.66495   0.47307   0.00000  Uiso   1.00
C51    C     0.07391   0.84195   0.50723   0.00000  Uiso   1.00
C52    C     0.87163   0.37597   0.38249   0.00000  Uiso   1.00
C53    C     0.81249   0.27713   0.38893   0.00000  Uiso   1.00
C54    C     0.69913   0.27211   0.36797   0.00000  Uiso   1.00
C55    C     0.51375   0.22172   0.34128   0.00000  Uiso   1.00
C56    C     0.04696   0.41453   0.36925   0.00000  Uiso   1.00
C57    C     0.13522   0.34809   0.36456   0.00000  Uiso   1.00
C58    C     0.16946   0.37552   0.33244   0.00000  Uiso   1.00
C59    C     0.25630   0.38501   0.28520   0.00000  Uiso   1.00
C60    C     0.89996   0.56635   0.35357   0.00000  Uiso   1.00
C61    C     0.95166   0.61301   0.39522   0.00000  Uiso   1.00
C62    C     0.94956   0.73126   0.40718   0.00000  Uiso   1.00
C63    C     0.00162   0.75573   0.44657   0.00000  Uiso   1.00
C64    C     0.81939   0.46657   0.35604   0.00000  Uiso   1.00
C65    C     0.70609   0.46170   0.33506   0.00000  Uiso   1.00
C66    C     0.64680   0.36288   0.34147   0.00000  Uiso   1.00
C67    C     0.99472   0.50514   0.34280   0.00000  Uiso   1.00
C68    C     0.02882   0.53267   0.31068   0.00000  Uiso   1.00
C69    C     0.11712   0.46630   0.30594   0.00000  Uiso   1.00
H70    H     0.03680   0.32898   0.42285   0.00000  Uiso   1.00
H71    H     0.09638   0.47655   0.48151   0.00000  Uiso   1.00
H72    H     0.85295   0.20702   0.40940   0.00000  Uiso   1.00
H73    H     0.17563   0.27798   0.38503   0.00000  Uiso   1.00
H74    H     0.13936   0.68010   0.53489   0.00000  Uiso   1.00
H75    H     0.62608   0.11177   0.38283   0.00000  Uiso   1.00
H76    H     0.30651   0.26140   0.33144   0.00000  Uiso   1.00
H77    H     0.85929   0.63689   0.33297   0.00000  Uiso   1.00
H78    H     0.90913   0.80136   0.38670   0.00000  Uiso   1.00
H79    H     0.66569   0.53183   0.31459   0.00000  Uiso   1.00
H80    H     0.98837   0.60279   0.29022   0.00000  Uiso   1.00
H81    H     0.98738   0.94373   0.45793   0.00000  Uiso   1.00
H82    H     0.47409   0.37539   0.30587   0.00000  Uiso   1.00
H83    H     0.15453   0.52503   0.25448   0.00000  Uiso   1.00
O84    O     0.09933   0.91455   0.53338   0.00000  Uiso   1.00
O85    O     0.42593   0.16890   0.33388   0.00000  Uiso   1.00
O86    O     0.31864   0.36522   0.26646   0.00000  Uiso   1.00
N87    N     0.09677   0.71958   0.50940   0.00000  Uiso   1.00
N88    N     0.61688   0.18823   0.36724   0.00000  Uiso   1.00
N89    N     0.25301   0.32810   0.31919   0.00000  Uiso   1.00
N90    N     0.01499   0.86144   0.46799   0.00000  Uiso   1.00
N91    N     0.53510   0.33009   0.32583   0.00000  Uiso   1.00
N92    N     0.17123   0.46996   0.27778   0.00000  Uiso   1.00
C93    C     0.43988   0.18450   0.56680   0.00000  Uiso   1.00
C94    C     0.44467   0.32114   0.56483   0.00000  Uiso   1.00
C95    C     0.39411   0.39096   0.53207   0.00000  Uiso   1.00
C96    C     0.40840   0.51445   0.53623   0.00000  Uiso   1.00
C97    C     0.40636   0.71876   0.52774   0.00000  Uiso   1.00
C98    C     0.56124   0.14175   0.58058   0.00000  Uiso   1.00
C99    C     0.60868   0.06074   0.56107   0.00000  Uiso   1.00
C100   C     0.72109   0.03320   0.57850   0.00000  Uiso   1.00
C101   C     0.90001   0.95895   0.59448   0.00000  Uiso   1.00
C102   C     0.39273   0.15579   0.59998   0.00000  Uiso   1.00
C103   C     0.29851   0.08655   0.59679   0.00000  Uiso   1.00
C104   C     0.26906   0.07082   0.63056   0.00000  Uiso   1.00
C105   C     0.18635   0.01836   0.67666   0.00000  Uiso   1.00
C106   C     0.55516   0.27964   0.63245   0.00000  Uiso   1.00
C107   C     0.50729   0.37282   0.60048   0.00000  Uiso   1.00
C108   C     0.52165   0.49623   0.60470   0.00000  Uiso   1.00
C109   C     0.47112   0.56622   0.57196   0.00000  Uiso   1.00
C110   C     0.62385   0.19343   0.61624   0.00000  Uiso   1.00
C111   C     0.73622   0.16601   0.63370   0.00000  Uiso   1.00
C112   C     0.78382   0.08498   0.61422   0.00000  Uiso   1.00
C113   C     0.45535   0.20748   0.63564   0.00000  Uiso   1.00
C114   C     0.42605   0.19183   0.66942   0.00000  Uiso   1.00
C115   C     0.33179   0.12259   0.66628   0.00000  Uiso   1.00
H116   H     0.39114   0.14426   0.53904   0.00000  Uiso   1.00
H117   H     0.34567   0.35093   0.50448   0.00000  Uiso   1.00
H118   H     0.56020   0.02075   0.53348   0.00000  Uiso   1.00
H119   H     0.25008   0.04657   0.56919   0.00000  Uiso   1.00
H120   H     0.32291   0.60286   0.48188   0.00000  Uiso   1.00
H121   H     0.77525   0.90662   0.54304   0.00000  Uiso   1.00
H122   H     0.12129   0.96107   0.61835   0.00000  Uiso   1.00
H123   H     0.60391   0.31988   0.66021   0.00000  Uiso   1.00
H124   H     0.57011   0.53620   0.63230   0.00000  Uiso   1.00
H125   H     0.78465   0.20601   0.66130   0.00000  Uiso   1.00
H126   H     0.47452   0.23184   0.69701   0.00000  Uiso   1.00
H127   H     0.50508   0.75323   0.58562   0.00000  Uiso   1.00
H128   H     0.95742   0.05698   0.64678   0.00000  Uiso   1.00
H129   H     0.30346   0.11144   0.72209   0.00000  Uiso   1.00
O130   O     0.38796   0.81717   0.51320   0.00000  Uiso   1.00
O131   O     0.98140   0.90372   0.59344   0.00000  Uiso   1.00
O132   O     0.12342   0.97516   0.69224   0.00000  Uiso   1.00
N133   N     0.37040   0.60856   0.51013   0.00000  Uiso   1.00
N134   N     0.79332   0.95763   0.56730   0.00000  Uiso   1.00
N135   N     0.18194   0.00851   0.63771   0.00000  Uiso   1.00
N136   N     0.46843   0.68947   0.56595   0.00000  Uiso   1.00
N137   N     0.89134   0.03855   0.62313   0.00000  Uiso   1.00
N138   N     0.27996   0.08942   0.69354   0.00000  Uiso   1.00
C139   C     0.00386   0.89953   0.09774   0.00000  Uiso   1.00
C140   C     0.99610   0.02240   0.07833   0.00000  Uiso   1.00
C141   C     0.94403   0.04670   0.03895   0.00000  Uiso   1.00
C142   C     0.94605   0.16495   0.02693   0.00000  Uiso   1.00
C143   C     0.92609   0.34195   0.99277   0.00000  Uiso   1.00
C144   C     0.12837   0.87597   0.11751   0.00000  Uiso   1.00
C145   C     0.18751   0.77713   0.11107   0.00000  Uiso   1.00
C146   C     0.30087   0.77211   0.13203   0.00000  Uiso   1.00
C147   C     0.48625   0.72172   0.15872   0.00000  Uiso   1.00
C148   C     0.95304   0.91453   0.13075   0.00000  Uiso   1.00
C149   C     0.86478   0.84809   0.13544   0.00000  Uiso   1.00
C150   C     0.83054   0.87552   0.16756   0.00000  Uiso   1.00
C151   C     0.74370   0.88501   0.21480   0.00000  Uiso   1.00
C152   C     0.10004   0.06635   0.14643   0.00000  Uiso   1.00
C153   C     0.04834   0.11301   0.10478   0.00000  Uiso   1.00
C154   C     0.05044   0.23126   0.09282   0.00000  Uiso   1.00
C155   C     0.99838   0.25573   0.05343   0.00000  Uiso   1.00
C156   C     0.18061   0.96657   0.14396   0.00000  Uiso   1.00
C157   C     0.29391   0.96170   0.16494   0.00000  Uiso   1.00
C158   C     0.35320   0.86288   0.15853   0.00000  Uiso   1.00
C159   C     0.00528   0.00514   0.15720   0.00000  Uiso   1.00
C160   C     0.97118   0.03267   0.18932   0.00000  Uiso   1.00
C161   C     0.88288   0.96630   0.19406   0.00000  Uiso   1.00
H162   H     0.96320   0.82898   0.07715   0.00000  Uiso   1.00
H163   H     0.90362   0.97655   0.01849   0.00000  Uiso   1.00
H164   H     0.14705   0.70702   0.09060   0.00000  Uiso   1.00
H165   H     0.82437   0.77798   0.11497   0.00000  Uiso   1.00
H166   H     0.86064   0.18010   0.96511   0.00000  Uiso   1.00
H167   H     0.37392   0.61177   0.11717   0.00000  Uiso   1.00
H168   H     0.69349   0.76140   0.16856   0.00000  Uiso   1.00
H169   H     0.14071   0.13689   0.16703   0.00000  Uiso   1.00
H170   H     0.09087   0.30136   0.11330   0.00000  Uiso   1.00
H171   H     0.33431   0.03183   0.18541   0.00000  Uiso   1.00
H172   H     0.01163   0.10279   0.20978   0.00000  Uiso   1.00
H173   H     0.01262   0.44373   0.04207   0.00000  Uiso   1.00
H174   H     0.52591   0.87539   0.19413   0.00000  Uiso   1.00
H175   H     0.84547   0.02503   0.24552   0.00000  Uiso   1.00
O176   O     0.90067   0.41455   0.96662   0.00000  Uiso   1.00
O177   O     0.57407   0.66890   0.16612   0.00000  Uiso   1.00
O178   O     0.68136   0.86522   0.23354   0.00000  Uiso   1.00
N179   N     0.90323   0.21958   0.99060   0.00000  Uiso   1.00
N180   N     0.38312   0.68823   0.13276   0.00000  Uiso   1.00
N181   N     0.74699   0.82810   0.18081   0.00000  Uiso   1.00
N182   N     0.98501   0.36144   0.03201   0.00000  Uiso   1.00
N183   N     0.46490   0.83009   0.17417   0.00000  Uiso   1.00
N184   N     0.82877   0.96996   0.22222   0.00000  Uiso   1.00
C185   C     0.43988   0.31550   0.06680   0.00000  Uiso   1.00
C186   C     0.44467   0.17886   0.06483   0.00000  Uiso   1.00
C187   C     0.39411   0.10904   0.03207   0.00000  Uiso   1.00
C188   C     0.40840   0.98555   0.03623   0.00000  Uiso   1.00
C189   C     0.40636   0.78124   0.02774   0.00000  Uiso   1.00
C190   C     0.56124   0.35825   0.08058   0.00000  Uiso   1.00
C191   C     0.60868   0.43926   0.06107   0.00000  Uiso   1.00
C192   C     0.72109   0.46680   0.07850   0.00000  Uiso   1.00
C193   C     0.90001   0.54105   0.09448   0.00000  Uiso   1.00
C194   C     0.39273   0.34421   0.09998   0.00000  Uiso   1.00
C195   C     0.29851   0.41345   0.09679   0.00000  Uiso   1.00
C196   C     0.26906   0.42918   0.13056   0.00000  Uiso   1.00
C197   C     0.18635   0.48164   0.17666   0.00000  Uiso   1.00
C198   C     0.55516   0.22036   0.13245   0.00000  Uiso   1.00
C199   C     0.50729   0.12718   0.10048   0.00000  Uiso   1.00
C200   C     0.52165   0.00377   0.10470   0.00000  Uiso   1.00
C201   C     0.47112   0.93378   0.07196   0.00000  Uiso   1.00
C202   C     0.62385   0.30657   0.11624   0.00000  Uiso   1.00
C203   C     0.73622   0.33399   0.13370   0.00000  Uiso   1.00
C204   C     0.78382   0.41502   0.11422   0.00000  Uiso   1.00
C205   C     0.45535   0.29252   0.13564   0.00000  Uiso   1.00
C206   C     0.42605   0.30817   0.16942   0.00000  Uiso   1.00
C207   C     0.33179   0.37741   0.16628   0.00000  Uiso   1.00
H208   H     0.39114   0.35574   0.03904   0.00000  Uiso   1.00
H209   H     0.34567   0.14907   0.00448   0.00000  Uiso   1.00
H210   H     0.56020   0.47925   0.03348   0.00000  Uiso   1.00
H211   H     0.25008   0.45343   0.06919   0.00000  Uiso   1.00
H212   H     0.32291   0.89714   0.98188   0.00000  Uiso   1.00
H213   H     0.77525   0.59338   0.04304   0.00000  Uiso   1.00
H214   H     0.12129   0.53893   0.11835   0.00000  Uiso   1.00
H215   H     0.60391   0.18012   0.16021   0.00000  Uiso   1.00
H216   H     0.57011   0.96380   0.13230   0.00000  Uiso   1.00
H217   H     0.78465   0.29399   0.16130   0.00000  Uiso   1.00
H218   H     0.47452   0.26816   0.19701   0.00000  Uiso   1.00
H219   H     0.50508   0.74677   0.08562   0.00000  Uiso   1.00
H220   H     0.95742   0.44302   0.14678   0.00000  Uiso   1.00
H221   H     0.30346   0.38856   0.22209   0.00000  Uiso   1.00
O222   O     0.38796   0.68283   0.01320   0.00000  Uiso   1.00
O223   O     0.98140   0.59628   0.09344   0.00000  Uiso   1.00
O224   O     0.12342   0.52484   0.19224   0.00000  Uiso   1.00
N225   N     0.37040   0.89144   0.01013   0.00000  Uiso   1.00
N226   N     0.79332   0.54237   0.06730   0.00000  Uiso   1.00
N227   N     0.18194   0.49149   0.13771   0.00000  Uiso   1.00
N228   N     0.46843   0.81053   0.06595   0.00000  Uiso   1.00
N229   N     0.89134   0.46145   0.12313   0.00000  Uiso   1.00
N230   N     0.27996   0.41058   0.19354   0.00000  Uiso   1.00
C231   C     0.00386   0.60047   0.59774   0.00000  Uiso   1.00
C232   C     0.99610   0.47760   0.57833   0.00000  Uiso   1.00
C233   C     0.94403   0.45330   0.53895   0.00000  Uiso   1.00
C234   C     0.94605   0.33505   0.52693   0.00000  Uiso   1.00
C235   C     0.92609   0.15805   0.49277   0.00000  Uiso   1.00
C236   C     0.12837   0.62403   0.61751   0.00000  Uiso   1.00
C237   C     0.18751   0.72287   0.61107   0.00000  Uiso   1.00
C238   C     0.30087   0.72789   0.63203   0.00000  Uiso   1.00
C239   C     0.48625   0.77828   0.65872   0.00000  Uiso   1.00
C240   C     0.95304   0.58547   0.63075   0.00000  Uiso   1.00
C241   C     0.86478   0.65191   0.63544   0.00000  Uiso   1.00
C242   C     0.83054   0.62448   0.66756   0.00000  Uiso   1.00
C243   C     0.74370   0.61499   0.71480   0.00000  Uiso   1.00
C244   C     0.10004   0.43365   0.64643   0.00000  Uiso   1.00
C245   C     0.04834   0.38699   0.60478   0.00000  Uiso   1.00
C246   C     0.05044   0.26874   0.59282   0.00000  Uiso   1.00
C247   C     0.99838   0.24427   0.55343   0.00000  Uiso   1.00
C248   C     0.18061   0.53343   0.64396   0.00000  Uiso   1.00
C249   C     0.29391   0.53830   0.66494   0.00000  Uiso   1.00
C250   C     0.35320   0.63712   0.65853   0.00000  Uiso   1.00
C251   C     0.00528   0.49486   0.65720   0.00000  Uiso   1.00
C252   C     0.97118   0.46733   0.68932   0.00000  Uiso   1.00
C253   C     0.88288   0.53370   0.69406   0.00000  Uiso   1.00
H254   H     0.96320   0.67102   0.57715   0.00000  Uiso   1.00
H255   H     0.90362   0.52345   0.51849   0.00000  Uiso   1.00
H256   H     0.14705   0.79298   0.59060   0.00000  Uiso   1.00
H257   H     0.82437   0.72202   0.61497   0.00000  Uiso   1.00
H258   H     0.86064   0.31990   0.46511   0.00000  Uiso   1.00
H259   H     0.37392   0.88823   0.61717   0.00000  Uiso   1.00
H260   H     0.69349   0.73860   0.66856   0.00000  Uiso   1.00
H261   H     0.14071   0.36311   0.66703   0.00000  Uiso   1.00
H262   H     0.09087   0.19864   0.61330   0.00000  Uiso   1.00
H263   H     0.33431   0.46817   0.68541   0.00000  Uiso   1.00
H264   H     0.01163   0.39721   0.70978   0.00000  Uiso   1.00
H265   H     0.01262   0.05627   0.54207   0.00000  Uiso   1.00
H266   H     0.52591   0.62461   0.69413   0.00000  Uiso   1.00
H267   H     0.84547   0.47497   0.74552   0.00000  Uiso   1.00
O268   O     0.90067   0.08545   0.46662   0.00000  Uiso   1.00
O269   O     0.57407   0.83110   0.66612   0.00000  Uiso   1.00
O270   O     0.68136   0.63478   0.73354   0.00000  Uiso   1.00
N271   N     0.90323   0.28042   0.49060   0.00000  Uiso   1.00
N272   N     0.38312   0.81177   0.63276   0.00000  Uiso   1.00
N273   N     0.74699   0.67190   0.68081   0.00000  Uiso   1.00
N274   N     0.98501   0.13856   0.53201   0.00000  Uiso   1.00
N275   N     0.46490   0.66991   0.67417   0.00000  Uiso   1.00
N276   N     0.82877   0.53004   0.72222   0.00000  Uiso   1.00
C277   C     0.56012   0.81550   0.43320   0.00000  Uiso   1.00
C278   C     0.55533   0.67886   0.43517   0.00000  Uiso   1.00
C279   C     0.60589   0.60904   0.46793   0.00000  Uiso   1.00
C280   C     0.59160   0.48555   0.46377   0.00000  Uiso   1.00
C281   C     0.59364   0.28124   0.47226   0.00000  Uiso   1.00
C282   C     0.43876   0.85825   0.41942   0.00000  Uiso   1.00
C283   C     0.39132   0.93926   0.43893   0.00000  Uiso   1.00
C284   C     0.27891   0.96680   0.42150   0.00000  Uiso   1.00
C285   C     0.09999   0.04105   0.40552   0.00000  Uiso   1.00
C286   C     0.60727   0.84421   0.40002   0.00000  Uiso   1.00
C287   C     0.70149   0.91345   0.40321   0.00000  Uiso   1.00
C288   C     0.73094   0.92918   0.36944   0.00000  Uiso   1.00
C289   C     0.81365   0.98164   0.32334   0.00000  Uiso   1.00
C290   C     0.44484   0.72036   0.36755   0.00000  Uiso   1.00
C291   C     0.49271   0.62718   0.39952   0.00000  Uiso   1.00
C292   C     0.47835   0.50377   0.39530   0.00000  Uiso   1.00
C293   C     0.52888   0.43378   0.42804   0.00000  Uiso   1.00
C294   C     0.37615   0.80657   0.38376   0.00000  Uiso   1.00
C295   C     0.26378   0.83399   0.36630   0.00000  Uiso   1.00
C296   C     0.21618   0.91502   0.38578   0.00000  Uiso   1.00
C297   C     0.54465   0.79252   0.36436   0.00000  Uiso   1.00
C298   C     0.57395   0.80817   0.33058   0.00000  Uiso   1.00
C299   C     0.66821   0.87741   0.33372   0.00000  Uiso   1.00
H300   H     0.60886   0.85574   0.46096   0.00000  Uiso   1.00
H301   H     0.65433   0.64907   0.49552   0.00000  Uiso   1.00
H302   H     0.43980   0.97925   0.46652   0.00000  Uiso   1.00
H303   H     0.74992   0.95343   0.43081   0.00000  Uiso   1.00
H304   H     0.67709   0.39714   0.51812   0.00000  Uiso   1.00
H305   H     0.22475   0.09338   0.45696   0.00000  Uiso   1.00
H306   H     0.87871   0.03893   0.38165   0.00000  Uiso   1.00
H307   H     0.39609   0.68012   0.33979   0.00000  Uiso   1.00
H308   H     0.42989   0.46380   0.36770   0.00000  Uiso   1.00
H309   H     0.21535   0.79399   0.33870   0.00000  Uiso   1.00
H310   H     0.52548   0.76816   0.30299   0.00000  Uiso   1.00
H311   H     0.49492   0.24677   0.41438   0.00000  Uiso   1.00
H312   H     0.04258   0.94302   0.35322   0.00000  Uiso   1.00
H313   H     0.69654   0.88856   0.27791   0.00000  Uiso   1.00
O314   O     0.61204   0.18283   0.48680   0.00000  Uiso   1.00
O315   O     0.01860   0.09628   0.40656   0.00000  Uiso   1.00
O316   O     0.87658   0.02484   0.30776   0.00000  Uiso   1.00
N317   N     0.62960   0.39144   0.48987   0.00000  Uiso   1.00
N318   N     0.20668   0.04237   0.43270   0.00000  Uiso   1.00
N319   N     0.81806   0.99149   0.36229   0.00000  Uiso   1.00
N320   N     0.53157   0.31053   0.43405   0.00000  Uiso   1.00
N321   N     0.10866   0.96145   0.37687   0.00000  Uiso   1.00
N322   N     0.72004   0.91058   0.30646   0.00000  Uiso   1.00
C323   C     0.99614   0.10047   0.90226   0.00000  Uiso   1.00
C324   C     0.00390   0.97760   0.92167   0.00000  Uiso   1.00
C325   C     0.05597   0.95330   0.96105   0.00000  Uiso   1.00
C326   C     0.05395   0.83505   0.97307   0.00000  Uiso   1.00
C327   C     0.07391   0.65805   0.00723   0.00000  Uiso   1.00
C328   C     0.87163   0.12403   0.88249   0.00000  Uiso   1.00
C329   C     0.81249   0.22287   0.88893   0.00000  Uiso   1.00
C330   C     0.69913   0.22789   0.86797   0.00000  Uiso   1.00
C331   C     0.51375   0.27828   0.84128   0.00000  Uiso   1.00
C332   C     0.04696   0.08547   0.86925   0.00000  Uiso   1.00
C333   C     0.13522   0.15191   0.86456   0.00000  Uiso   1.00
C334   C     0.16946   0.12448   0.83244   0.00000  Uiso   1.00
C335   C     0.25630   0.11499   0.78520   0.00000  Uiso   1.00
C336   C     0.89996   0.93365   0.85357   0.00000  Uiso   1.00
C337   C     0.95166   0.88699   0.89522   0.00000  Uiso   1.00
C338   C     0.94956   0.76874   0.90718   0.00000  Uiso   1.00
C339   C     0.00162   0.74427   0.94657   0.00000  Uiso   1.00
C340   C     0.81939   0.03343   0.85604   0.00000  Uiso   1.00
C341   C     0.70609   0.03830   0.83506   0.00000  Uiso   1.00
C342   C     0.64680   0.13712   0.84147   0.00000  Uiso   1.00
C343   C     0.99472   0.99486   0.84280   0.00000  Uiso   1.00
C344   C     0.02882   0.96733   0.81068   0.00000  Uiso   1.00
C345   C     0.11712   0.03370   0.80594   0.00000  Uiso   1.00
H346   H     0.03680   0.17102   0.92285   0.00000  Uiso   1.00
H347   H     0.09638   0.02345   0.98151   0.00000  Uiso   1.00
H348   H     0.85295   0.29298   0.90940   0.00000  Uiso   1.00
H349   H     0.17563   0.22202   0.88503   0.00000  Uiso   1.00
H350   H     0.13936   0.81990   0.03489   0.00000  Uiso   1.00
H351   H     0.62608   0.38823   0.88283   0.00000  Uiso   1.00
H352   H     0.30651   0.23860   0.83144   0.00000  Uiso   1.00
H353   H     0.85929   0.86311   0.83297   0.00000  Uiso   1.00
H354   H     0.90913   0.69864   0.88670   0.00000  Uiso   1.00
H355   H     0.66569   0.96817   0.81459   0.00000  Uiso   1.00
H356   H     0.98837   0.89721   0.79022   0.00000  Uiso   1.00
H357   H     0.98738   0.55627   0.95793   0.00000  Uiso   1.00
H358   H     0.47409   0.12461   0.80587   0.00000  Uiso   1.00
H359   H     0.15453   0.97497   0.75448   0.00000  Uiso   1.00
O360   O     0.09933   0.58545   0.03338   0.00000  Uiso   1.00
O361   O     0.42593   0.33110   0.83388   0.00000  Uiso   1.00
O362   O     0.31864   0.13478   0.76646   0.00000  Uiso   1.00
N363   N     0.09677   0.78042   0.00940   0.00000  Uiso   1.00
N364   N     0.61688   0.31177   0.86724   0.00000  Uiso   1.00
N365   N     0.25301   0.17190   0.81919   0.00000  Uiso   1.00
N366   N     0.01499   0.63856   0.96799   0.00000  Uiso   1.00
N367   N     0.53510   0.16991   0.82583   0.00000  Uiso   1.00
N368   N     0.17123   0.03004   0.77778   0.00000  Uiso   1.00
