data_job_05214
_audit_creation_date              2018-12-19
_audit_creation_method            'Materials Studio'
_symmetry_space_group_name_H-M    'P1'
_symmetry_Int_Tables_number       1
_symmetry_cell_setting            triclinic
loop_
_symmetry_equiv_pos_as_xyz
  x,y,z
_cell_length_a                    12.6792
_cell_length_b                    12.6792
_cell_length_c                    15.7540
_cell_angle_alpha                 90.0000
_cell_angle_beta                  90.0000
_cell_angle_gamma                 90.0000
loop_
_atom_site_label
_atom_site_type_symbol
_atom_site_fract_x
_atom_site_fract_y
_atom_site_fract_z
_atom_site_U_iso_or_equiv
_atom_site_adp_type
_atom_site_occupancy
C1     C     0.11262   0.56569   0.24668   0.00000  Uiso   1.00
C2     C     0.23085   0.54594   0.25460   0.00000  Uiso   1.00
C3     C     0.27779   0.45047   0.27532   0.00000  Uiso   1.00
C4     C     0.38716   0.44864   0.27937   0.00000  Uiso   1.00
C5     C     0.56158   0.40423   0.29416   0.00000  Uiso   1.00
C6     C     0.08759   0.65581   0.30753   0.00000  Uiso   1.00
C7     C     0.01406   0.65272   0.37275   0.00000  Uiso   1.00
C8     C     0.00283   0.74339   0.42134   0.00000  Uiso   1.00
C9     C     0.95478   0.86958   0.51827   0.00000  Uiso   1.00
C10    C     0.09533   0.60942   0.15760   0.00000  Uiso   1.00
C11    C     0.02829   0.56734   0.09675   0.00000  Uiso   1.00
C12    C     0.02355   0.61896   0.01911   0.00000  Uiso   1.00
C13    C     0.98752   0.67312   0.88324   0.00000  Uiso   1.00
C14    C     0.22339   0.73219   0.21702   0.00000  Uiso   1.00
C15    C     0.29101   0.63638   0.23849   0.00000  Uiso   1.00
C16    C     0.40034   0.63469   0.24250   0.00000  Uiso   1.00
C17    C     0.44743   0.53923   0.26323   0.00000  Uiso   1.00
C18    C     0.14775   0.74625   0.29142   0.00000  Uiso   1.00
C19    C     0.13661   0.83694   0.33993   0.00000  Uiso   1.00
C20    C     0.06310   0.83399   0.40520   0.00000  Uiso   1.00
C21    C     0.15549   0.69986   0.14148   0.00000  Uiso   1.00
C22    C     0.15085   0.75156   0.06393   0.00000  Uiso   1.00
C23    C     0.08382   0.70956   0.00297   0.00000  Uiso   1.00
H24    H     0.06577   0.49528   0.25923   0.00000  Uiso   1.00
H25    H     0.23120   0.38050   0.28780   0.00000  Uiso   1.00
H26    H     0.96751   0.58273   0.38520   0.00000  Uiso   1.00
H27    H     0.98174   0.49736   0.10924   0.00000  Uiso   1.00
H28    H     0.44113   0.29314   0.31239   0.00000  Uiso   1.00
H29    H     0.88510   0.71956   0.51775   0.00000  Uiso   1.00
H30    H     0.91511   0.53954   0.93584   0.00000  Uiso   1.00
H31    H     0.27023   0.80261   0.20448   0.00000  Uiso   1.00
H32    H     0.44688   0.70469   0.23003   0.00000  Uiso   1.00
H33    H     0.18318   0.90691   0.32744   0.00000  Uiso   1.00
H34    H     0.19742   0.82154   0.05148   0.00000  Uiso   1.00
H35    H     0.61619   0.55626   0.26551   0.00000  Uiso   1.00
H36    H     0.06015   0.98268   0.47087   0.00000  Uiso   1.00
H37    H     0.09016   0.80266   0.88896   0.00000  Uiso   1.00
O38    O     0.64117   0.35475   0.30678   0.00000  Uiso   1.00
O39    O     0.91167   0.91419   0.57619   0.00000  Uiso   1.00
O40    O     0.95104   0.67801   0.81274   0.00000  Uiso   1.00
N41    N     0.45809   0.36850   0.29783   0.00000  Uiso   1.00
N42    N     0.93824   0.76717   0.48984   0.00000  Uiso   1.00
N43    N     0.96628   0.59888   0.94581   0.00000  Uiso   1.00
N44    N     0.55228   0.51008   0.27261   0.00000  Uiso   1.00
N45    N     0.03244   0.90875   0.46461   0.00000  Uiso   1.00
N46    N     0.06047   0.74046   0.92059   0.00000  Uiso   1.00
C47    C     0.88738   0.43431   0.74668   0.00000  Uiso   1.00
C48    C     0.76915   0.45406   0.75460   0.00000  Uiso   1.00
C49    C     0.72221   0.54953   0.77532   0.00000  Uiso   1.00
C50    C     0.61284   0.55136   0.77937   0.00000  Uiso   1.00
C51    C     0.43842   0.59577   0.79416   0.00000  Uiso   1.00
C52    C     0.91241   0.34419   0.80753   0.00000  Uiso   1.00
C53    C     0.98594   0.34728   0.87275   0.00000  Uiso   1.00
C54    C     0.99717   0.25661   0.92134   0.00000  Uiso   1.00
C55    C     0.04522   0.13042   0.01827   0.00000  Uiso   1.00
C56    C     0.90467   0.39058   0.65760   0.00000  Uiso   1.00
C57    C     0.97171   0.43266   0.59675   0.00000  Uiso   1.00
C58    C     0.97645   0.38104   0.51911   0.00000  Uiso   1.00
C59    C     0.01248   0.32688   0.38324   0.00000  Uiso   1.00
C60    C     0.77661   0.26781   0.71702   0.00000  Uiso   1.00
C61    C     0.70899   0.36362   0.73849   0.00000  Uiso   1.00
C62    C     0.59966   0.36531   0.74250   0.00000  Uiso   1.00
C63    C     0.55257   0.46077   0.76323   0.00000  Uiso   1.00
C64    C     0.85225   0.25375   0.79142   0.00000  Uiso   1.00
C65    C     0.86339   0.16306   0.83993   0.00000  Uiso   1.00
C66    C     0.93690   0.16601   0.90520   0.00000  Uiso   1.00
C67    C     0.84451   0.30014   0.64148   0.00000  Uiso   1.00
C68    C     0.84915   0.24844   0.56393   0.00000  Uiso   1.00
C69    C     0.91618   0.29044   0.50297   0.00000  Uiso   1.00
H70    H     0.93423   0.50472   0.75923   0.00000  Uiso   1.00
H71    H     0.76880   0.61950   0.78780   0.00000  Uiso   1.00
H72    H     0.03249   0.41727   0.88520   0.00000  Uiso   1.00
H73    H     0.01826   0.50264   0.60924   0.00000  Uiso   1.00
H74    H     0.55887   0.70686   0.81239   0.00000  Uiso   1.00
H75    H     0.11490   0.28044   0.01775   0.00000  Uiso   1.00
H76    H     0.08489   0.46046   0.43584   0.00000  Uiso   1.00
H77    H     0.72977   0.19739   0.70448   0.00000  Uiso   1.00
H78    H     0.55312   0.29531   0.73003   0.00000  Uiso   1.00
H79    H     0.81682   0.09309   0.82744   0.00000  Uiso   1.00
H80    H     0.80258   0.17846   0.55148   0.00000  Uiso   1.00
H81    H     0.38381   0.44374   0.76551   0.00000  Uiso   1.00
H82    H     0.93985   0.01732   0.97087   0.00000  Uiso   1.00
H83    H     0.90984   0.19734   0.38896   0.00000  Uiso   1.00
O84    O     0.35883   0.64525   0.80678   0.00000  Uiso   1.00
O85    O     0.08833   0.08581   0.07619   0.00000  Uiso   1.00
O86    O     0.04896   0.32199   0.31274   0.00000  Uiso   1.00
N87    N     0.54191   0.63150   0.79783   0.00000  Uiso   1.00
N88    N     0.06176   0.23283   0.98984   0.00000  Uiso   1.00
N89    N     0.03372   0.40112   0.44581   0.00000  Uiso   1.00
N90    N     0.44772   0.48992   0.77261   0.00000  Uiso   1.00
N91    N     0.96756   0.09125   0.96461   0.00000  Uiso   1.00
N92    N     0.93953   0.25954   0.42059   0.00000  Uiso   1.00
C93    C     0.43431   0.11262   0.49668   0.00000  Uiso   1.00
C94    C     0.45406   0.23085   0.50460   0.00000  Uiso   1.00
C95    C     0.54953   0.27779   0.52532   0.00000  Uiso   1.00
C96    C     0.55136   0.38716   0.52937   0.00000  Uiso   1.00
C97    C     0.59577   0.56158   0.54416   0.00000  Uiso   1.00
C98    C     0.34419   0.08759   0.55753   0.00000  Uiso   1.00
C99    C     0.34728   0.01406   0.62275   0.00000  Uiso   1.00
C100   C     0.25661   0.00283   0.67134   0.00000  Uiso   1.00
C101   C     0.13042   0.95478   0.76827   0.00000  Uiso   1.00
C102   C     0.39058   0.09533   0.40760   0.00000  Uiso   1.00
C103   C     0.43266   0.02829   0.34675   0.00000  Uiso   1.00
C104   C     0.38104   0.02355   0.26911   0.00000  Uiso   1.00
C105   C     0.32688   0.98752   0.13324   0.00000  Uiso   1.00
C106   C     0.26781   0.22339   0.46702   0.00000  Uiso   1.00
C107   C     0.36362   0.29101   0.48849   0.00000  Uiso   1.00
C108   C     0.36531   0.40034   0.49250   0.00000  Uiso   1.00
C109   C     0.46077   0.44743   0.51323   0.00000  Uiso   1.00
C110   C     0.25375   0.14775   0.54142   0.00000  Uiso   1.00
C111   C     0.16306   0.13661   0.58993   0.00000  Uiso   1.00
C112   C     0.16601   0.06310   0.65520   0.00000  Uiso   1.00
C113   C     0.30014   0.15549   0.39148   0.00000  Uiso   1.00
C114   C     0.24844   0.15085   0.31393   0.00000  Uiso   1.00
C115   C     0.29044   0.08382   0.25297   0.00000  Uiso   1.00
H116   H     0.50472   0.06577   0.50923   0.00000  Uiso   1.00
H117   H     0.61950   0.23120   0.53780   0.00000  Uiso   1.00
H118   H     0.41727   0.96751   0.63520   0.00000  Uiso   1.00
H119   H     0.50264   0.98174   0.35924   0.00000  Uiso   1.00
H120   H     0.70686   0.44113   0.56239   0.00000  Uiso   1.00
H121   H     0.28044   0.88510   0.76775   0.00000  Uiso   1.00
H122   H     0.46046   0.91511   0.18584   0.00000  Uiso   1.00
H123   H     0.19739   0.27023   0.45448   0.00000  Uiso   1.00
H124   H     0.29531   0.44688   0.48003   0.00000  Uiso   1.00
H125   H     0.09309   0.18318   0.57744   0.00000  Uiso   1.00
H126   H     0.17846   0.19742   0.30148   0.00000  Uiso   1.00
H127   H     0.44374   0.61619   0.51551   0.00000  Uiso   1.00
H128   H     0.01732   0.06015   0.72087   0.00000  Uiso   1.00
H129   H     0.19734   0.09016   0.13896   0.00000  Uiso   1.00
O130   O     0.64525   0.64117   0.55678   0.00000  Uiso   1.00
O131   O     0.08581   0.91167   0.82619   0.00000  Uiso   1.00
O132   O     0.32199   0.95104   0.06274   0.00000  Uiso   1.00
N133   N     0.63150   0.45809   0.54783   0.00000  Uiso   1.00
N134   N     0.23283   0.93824   0.73984   0.00000  Uiso   1.00
N135   N     0.40112   0.96628   0.19581   0.00000  Uiso   1.00
N136   N     0.48992   0.55228   0.52261   0.00000  Uiso   1.00
N137   N     0.09125   0.03244   0.71461   0.00000  Uiso   1.00
N138   N     0.25954   0.06047   0.17059   0.00000  Uiso   1.00
C139   C     0.56569   0.88738   0.99668   0.00000  Uiso   1.00
C140   C     0.54594   0.76915   0.00460   0.00000  Uiso   1.00
C141   C     0.45047   0.72221   0.02532   0.00000  Uiso   1.00
C142   C     0.44864   0.61284   0.02937   0.00000  Uiso   1.00
C143   C     0.40423   0.43842   0.04416   0.00000  Uiso   1.00
C144   C     0.65581   0.91241   0.05753   0.00000  Uiso   1.00
C145   C     0.65272   0.98594   0.12275   0.00000  Uiso   1.00
C146   C     0.74339   0.99717   0.17134   0.00000  Uiso   1.00
C147   C     0.86958   0.04522   0.26827   0.00000  Uiso   1.00
C148   C     0.60942   0.90467   0.90760   0.00000  Uiso   1.00
C149   C     0.56734   0.97171   0.84675   0.00000  Uiso   1.00
C150   C     0.61896   0.97645   0.76911   0.00000  Uiso   1.00
C151   C     0.67312   0.01248   0.63324   0.00000  Uiso   1.00
C152   C     0.73219   0.77661   0.96702   0.00000  Uiso   1.00
C153   C     0.63638   0.70899   0.98849   0.00000  Uiso   1.00
C154   C     0.63469   0.59966   0.99250   0.00000  Uiso   1.00
C155   C     0.53923   0.55257   0.01323   0.00000  Uiso   1.00
C156   C     0.74625   0.85225   0.04142   0.00000  Uiso   1.00
C157   C     0.83694   0.86339   0.08993   0.00000  Uiso   1.00
C158   C     0.83399   0.93690   0.15520   0.00000  Uiso   1.00
C159   C     0.69986   0.84451   0.89148   0.00000  Uiso   1.00
C160   C     0.75156   0.84915   0.81393   0.00000  Uiso   1.00
C161   C     0.70956   0.91618   0.75297   0.00000  Uiso   1.00
H162   H     0.49528   0.93423   0.00923   0.00000  Uiso   1.00
H163   H     0.38050   0.76880   0.03780   0.00000  Uiso   1.00
H164   H     0.58273   0.03249   0.13520   0.00000  Uiso   1.00
H165   H     0.49736   0.01826   0.85924   0.00000  Uiso   1.00
H166   H     0.29314   0.55887   0.06239   0.00000  Uiso   1.00
H167   H     0.71956   0.11490   0.26775   0.00000  Uiso   1.00
H168   H     0.53954   0.08489   0.68584   0.00000  Uiso   1.00
H169   H     0.80261   0.72977   0.95448   0.00000  Uiso   1.00
H170   H     0.70469   0.55312   0.98003   0.00000  Uiso   1.00
H171   H     0.90691   0.81682   0.07744   0.00000  Uiso   1.00
H172   H     0.82154   0.80258   0.80148   0.00000  Uiso   1.00
H173   H     0.55626   0.38381   0.01551   0.00000  Uiso   1.00
H174   H     0.98268   0.93985   0.22087   0.00000  Uiso   1.00
H175   H     0.80266   0.90984   0.63896   0.00000  Uiso   1.00
O176   O     0.35475   0.35883   0.05678   0.00000  Uiso   1.00
O177   O     0.91419   0.08833   0.32619   0.00000  Uiso   1.00
O178   O     0.67801   0.04896   0.56274   0.00000  Uiso   1.00
N179   N     0.36850   0.54191   0.04783   0.00000  Uiso   1.00
N180   N     0.76717   0.06176   0.23984   0.00000  Uiso   1.00
N181   N     0.59888   0.03372   0.69581   0.00000  Uiso   1.00
N182   N     0.51008   0.44772   0.02261   0.00000  Uiso   1.00
N183   N     0.90875   0.96756   0.21461   0.00000  Uiso   1.00
N184   N     0.74046   0.93953   0.67059   0.00000  Uiso   1.00
