data_job_06348
_audit_creation_date              2018-12-19
_audit_creation_method            'Materials Studio'
_symmetry_space_group_name_H-M    'P1'
_symmetry_Int_Tables_number       1
_symmetry_cell_setting            triclinic
loop_
_symmetry_equiv_pos_as_xyz
  x,y,z
_cell_length_a                    16.6732
_cell_length_b                    16.4132
_cell_length_c                    16.2558
_cell_angle_alpha                 90.8207
_cell_angle_beta                  90.7802
_cell_angle_gamma                 90.9626
loop_
_atom_site_label
_atom_site_type_symbol
_atom_site_fract_x
_atom_site_fract_y
_atom_site_fract_z
_atom_site_U_iso_or_equiv
_atom_site_adp_type
_atom_site_occupancy
C1     C     0.06875   0.50248   0.89231   0.00000  Uiso   1.00
C2     C     0.12710   0.43609   0.91645   0.00000  Uiso   1.00
C3     C     0.11981   0.38541   0.98364   0.00000  Uiso   1.00
C4     C     0.17951   0.32856   0.99517   0.00000  Uiso   1.00
C5     C     0.26031   0.22640   0.04084   0.00000  Uiso   1.00
C6     C     0.11844   0.58117   0.88865   0.00000  Uiso   1.00
C7     C     0.10386   0.65246   0.93246   0.00000  Uiso   1.00
C8     C     0.15627   0.71774   0.92059   0.00000  Uiso   1.00
C9     C     0.22358   0.84083   0.92306   0.00000  Uiso   1.00
C10    C     0.04225   0.48277   0.80401   0.00000  Uiso   1.00
C11    C     0.96360   0.47136   0.77664   0.00000  Uiso   1.00
C12    C     0.95185   0.45382   0.69349   0.00000  Uiso   1.00
C13    C     0.90086   0.42413   0.56455   0.00000  Uiso   1.00
C14    C     0.18773   0.49165   0.79331   0.00000  Uiso   1.00
C15    C     0.19173   0.43021   0.86267   0.00000  Uiso   1.00
C16    C     0.25145   0.37342   0.87411   0.00000  Uiso   1.00
C17    C     0.24425   0.32266   0.94130   0.00000  Uiso   1.00
C18    C     0.18307   0.57528   0.83488   0.00000  Uiso   1.00
C19    C     0.23550   0.64047   0.82293   0.00000  Uiso   1.00
C20    C     0.22101   0.71185   0.86672   0.00000  Uiso   1.00
C21    C     0.10687   0.47689   0.75023   0.00000  Uiso   1.00
C22    C     0.09524   0.45937   0.66711   0.00000  Uiso   1.00
C23    C     0.01659   0.44793   0.63962   0.00000  Uiso   1.00
H24    H     0.01844   0.50707   0.93418   0.00000  Uiso   1.00
H25    H     0.06979   0.38999   0.02524   0.00000  Uiso   1.00
H26    H     0.05384   0.65700   0.97406   0.00000  Uiso   1.00
H27    H     0.91360   0.47592   0.81827   0.00000  Uiso   1.00
H28    H     0.15525   0.25761   0.10250   0.00000  Uiso   1.00
H29    H     0.12160   0.82063   0.99458   0.00000  Uiso   1.00
H30    H     0.82587   0.43879   0.66605   0.00000  Uiso   1.00
H31    H     0.23805   0.48707   0.75145   0.00000  Uiso   1.00
H32    H     0.30146   0.36888   0.83248   0.00000  Uiso   1.00
H33    H     0.28551   0.63590   0.78131   0.00000  Uiso   1.00
H34    H     0.14526   0.45482   0.62552   0.00000  Uiso   1.00
H35    H     0.34328   0.24048   0.94606   0.00000  Uiso   1.00
H36    H     0.30962   0.80350   0.83813   0.00000  Uiso   1.00
H37    H     0.01390   0.42166   0.50961   0.00000  Uiso   1.00
O38    O     0.28703   0.17168   0.08090   0.00000  Uiso   1.00
O39    O     0.24286   0.91034   0.93929   0.00000  Uiso   1.00
O40    O     0.85488   0.40937   0.50828   0.00000  Uiso   1.00
N41    N     0.19079   0.26978   0.05455   0.00000  Uiso   1.00
N42    N     0.15933   0.79617   0.95366   0.00000  Uiso   1.00
N43    N     0.88285   0.43921   0.64651   0.00000  Uiso   1.00
N44    N     0.29197   0.26057   0.97037   0.00000  Uiso   1.00
N45    N     0.26051   0.78695   0.86948   0.00000  Uiso   1.00
N46    N     0.98403   0.42999   0.56233   0.00000  Uiso   1.00
C47    C     0.88999   0.06864   0.50258   0.00000  Uiso   1.00
C48    C     0.91365   0.12801   0.43545   0.00000  Uiso   1.00
C49    C     0.97907   0.12066   0.38415   0.00000  Uiso   1.00
C50    C     0.99046   0.18140   0.32668   0.00000  Uiso   1.00
C51    C     0.03516   0.26363   0.22337   0.00000  Uiso   1.00
C52    C     0.88669   0.11899   0.58199   0.00000  Uiso   1.00
C53    C     0.92943   0.10405   0.65390   0.00000  Uiso   1.00
C54    C     0.91812   0.15719   0.71979   0.00000  Uiso   1.00
C55    C     0.92091   0.22537   0.84400   0.00000  Uiso   1.00
C56    C     0.80378   0.04178   0.48287   0.00000  Uiso   1.00
C57    C     0.77681   0.96191   0.47146   0.00000  Uiso   1.00
C58    C     0.69569   0.95003   0.45392   0.00000  Uiso   1.00
C59    C     0.56976   0.89833   0.42424   0.00000  Uiso   1.00
C60    C     0.79388   0.18956   0.49173   0.00000  Uiso   1.00
C61    C     0.86145   0.19370   0.42956   0.00000  Uiso   1.00
C62    C     0.87274   0.25446   0.37215   0.00000  Uiso   1.00
C63    C     0.93816   0.24720   0.32078   0.00000  Uiso   1.00
C64    C     0.83449   0.18468   0.57610   0.00000  Uiso   1.00
C65    C     0.82310   0.23784   0.64190   0.00000  Uiso   1.00
C66    C     0.86582   0.22299   0.71389   0.00000  Uiso   1.00
C67    C     0.75158   0.10746   0.47697   0.00000  Uiso   1.00
C68    C     0.67048   0.09570   0.45946   0.00000  Uiso   1.00
C69    C     0.64339   0.01583   0.44802   0.00000  Uiso   1.00
H70    H     0.93064   0.01750   0.50717   0.00000  Uiso   1.00
H71    H     0.01946   0.06983   0.38874   0.00000  Uiso   1.00
H72    H     0.96982   0.05321   0.65845   0.00000  Uiso   1.00
H73    H     0.81723   0.91109   0.47603   0.00000  Uiso   1.00
H74    H     0.09493   0.15682   0.25486   0.00000  Uiso   1.00
H75    H     0.99025   0.12177   0.82356   0.00000  Uiso   1.00
H76    H     0.66847   0.82209   0.43890   0.00000  Uiso   1.00
H77    H     0.75324   0.24070   0.48714   0.00000  Uiso   1.00
H78    H     0.83233   0.30528   0.36760   0.00000  Uiso   1.00
H79    H     0.78270   0.28866   0.63731   0.00000  Uiso   1.00
H80    H     0.63010   0.14655   0.45490   0.00000  Uiso   1.00
H81    H     0.94305   0.34793   0.23771   0.00000  Uiso   1.00
H82    H     0.83837   0.31287   0.80641   0.00000  Uiso   1.00
H83    H     0.51659   0.01319   0.42175   0.00000  Uiso   1.00
O84    O     0.07424   0.29084   0.16803   0.00000  Uiso   1.00
O85    O     0.93689   0.24484   0.91414   0.00000  Uiso   1.00
O86    O     0.51472   0.85167   0.40948   0.00000  Uiso   1.00
N87    N     0.04833   0.19293   0.26721   0.00000  Uiso   1.00
N88    N     0.95046   0.16017   0.79891   0.00000  Uiso   1.00
N89    N     0.64962   0.87998   0.43931   0.00000  Uiso   1.00
N90    N     0.96660   0.29576   0.25798   0.00000  Uiso   1.00
N91    N     0.86874   0.26300   0.78968   0.00000  Uiso   1.00
N92    N     0.56790   0.98281   0.43008   0.00000  Uiso   1.00
C93    C     0.50204   0.89120   0.06820   0.00000  Uiso   1.00
C94    C     0.43675   0.91516   0.12826   0.00000  Uiso   1.00
C95    C     0.38696   0.98165   0.12089   0.00000  Uiso   1.00
C96    C     0.33104   0.99315   0.18231   0.00000  Uiso   1.00
C97    C     0.23058   0.03846   0.26549   0.00000  Uiso   1.00
C98    C     0.57951   0.88773   0.11890   0.00000  Uiso   1.00
C99    C     0.64975   0.93115   0.10363   0.00000  Uiso   1.00
C100   C     0.71401   0.91955   0.15717   0.00000  Uiso   1.00
C101   C     0.83520   0.92223   0.22577   0.00000  Uiso   1.00
C102   C     0.48249   0.80367   0.04119   0.00000  Uiso   1.00
C103   C     0.47118   0.77641   0.96059   0.00000  Uiso   1.00
C104   C     0.45378   0.69402   0.94870   0.00000  Uiso   1.00
C105   C     0.42434   0.56618   0.89666   0.00000  Uiso   1.00
C106   C     0.49126   0.79338   0.19040   0.00000  Uiso   1.00
C107   C     0.43090   0.86203   0.19464   0.00000  Uiso   1.00
C108   C     0.37504   0.87342   0.25609   0.00000  Uiso   1.00
C109   C     0.32518   0.93992   0.24880   0.00000  Uiso   1.00
C110   C     0.57365   0.83460   0.18527   0.00000  Uiso   1.00
C111   C     0.63783   0.82292   0.23883   0.00000  Uiso   1.00
C112   C     0.70815   0.86632   0.22366   0.00000  Uiso   1.00
C113   C     0.47663   0.75054   0.10756   0.00000  Uiso   1.00
C114   C     0.45925   0.66817   0.09580   0.00000  Uiso   1.00
C115   C     0.44792   0.64079   0.01520   0.00000  Uiso   1.00
H116   H     0.50660   0.93257   0.01653   0.00000  Uiso   1.00
H117   H     0.39151   0.02277   0.06952   0.00000  Uiso   1.00
H118   H     0.65426   0.97226   0.05226   0.00000  Uiso   1.00
H119   H     0.47572   0.81754   0.90925   0.00000  Uiso   1.00
H120   H     0.26136   0.09935   0.15755   0.00000  Uiso   1.00
H121   H     0.81539   0.99284   0.12115   0.00000  Uiso   1.00
H122   H     0.43889   0.66658   0.81957   0.00000  Uiso   1.00
H123   H     0.48671   0.75201   0.24208   0.00000  Uiso   1.00
H124   H     0.37052   0.83229   0.30744   0.00000  Uiso   1.00
H125   H     0.63328   0.78179   0.29019   0.00000  Uiso   1.00
H126   H     0.45473   0.62707   0.14717   0.00000  Uiso   1.00
H127   H     0.24432   0.94476   0.35066   0.00000  Uiso   1.00
H128   H     0.79836   0.83825   0.31426   0.00000  Uiso   1.00
H129   H     0.42186   0.51199   0.01268   0.00000  Uiso   1.00
O130   O     0.17679   0.07814   0.29305   0.00000  Uiso   1.00
O131   O     0.90366   0.93840   0.24528   0.00000  Uiso   1.00
O132   O     0.40970   0.51035   0.84962   0.00000  Uiso   1.00
N133   N     0.27328   0.05194   0.19402   0.00000  Uiso   1.00
N134   N     0.79127   0.95237   0.16000   0.00000  Uiso   1.00
N135   N     0.43929   0.64734   0.87805   0.00000  Uiso   1.00
N136   N     0.26411   0.96875   0.29793   0.00000  Uiso   1.00
N137   N     0.78210   0.86919   0.26391   0.00000  Uiso   1.00
N138   N     0.43013   0.56415   0.98196   0.00000  Uiso   1.00
C139   C     0.93125   0.49752   0.10769   0.00000  Uiso   1.00
C140   C     0.87290   0.56391   0.08355   0.00000  Uiso   1.00
C141   C     0.88019   0.61459   0.01636   0.00000  Uiso   1.00
C142   C     0.82049   0.67144   0.00483   0.00000  Uiso   1.00
C143   C     0.73969   0.77360   0.95915   0.00000  Uiso   1.00
C144   C     0.88156   0.41883   0.11135   0.00000  Uiso   1.00
C145   C     0.89614   0.34753   0.06754   0.00000  Uiso   1.00
C146   C     0.84373   0.28226   0.07941   0.00000  Uiso   1.00
C147   C     0.77642   0.15917   0.07694   0.00000  Uiso   1.00
C148   C     0.95775   0.51723   0.19599   0.00000  Uiso   1.00
C149   C     0.03640   0.52864   0.22336   0.00000  Uiso   1.00
C150   C     0.04815   0.54618   0.30651   0.00000  Uiso   1.00
C151   C     0.09914   0.57586   0.43545   0.00000  Uiso   1.00
C152   C     0.81227   0.50835   0.20669   0.00000  Uiso   1.00
C153   C     0.80827   0.56979   0.13733   0.00000  Uiso   1.00
C154   C     0.74855   0.62658   0.12589   0.00000  Uiso   1.00
C155   C     0.75575   0.67734   0.05870   0.00000  Uiso   1.00
C156   C     0.81693   0.42472   0.16512   0.00000  Uiso   1.00
C157   C     0.76450   0.35953   0.17707   0.00000  Uiso   1.00
C158   C     0.77899   0.28815   0.13328   0.00000  Uiso   1.00
C159   C     0.89313   0.52311   0.24977   0.00000  Uiso   1.00
C160   C     0.90476   0.54063   0.33289   0.00000  Uiso   1.00
C161   C     0.98341   0.55207   0.36038   0.00000  Uiso   1.00
H162   H     0.98156   0.49293   0.06582   0.00000  Uiso   1.00
H163   H     0.93021   0.61001   0.97476   0.00000  Uiso   1.00
H164   H     0.94616   0.34300   0.02594   0.00000  Uiso   1.00
H165   H     0.08640   0.52408   0.18173   0.00000  Uiso   1.00
H166   H     0.84475   0.74239   0.89750   0.00000  Uiso   1.00
H167   H     0.87840   0.17937   0.00542   0.00000  Uiso   1.00
H168   H     0.17413   0.56121   0.33395   0.00000  Uiso   1.00
H169   H     0.76195   0.51293   0.24855   0.00000  Uiso   1.00
H170   H     0.69854   0.63112   0.16752   0.00000  Uiso   1.00
H171   H     0.71449   0.36410   0.21869   0.00000  Uiso   1.00
H172   H     0.85474   0.54518   0.37448   0.00000  Uiso   1.00
H173   H     0.65672   0.75952   0.05394   0.00000  Uiso   1.00
H174   H     0.69038   0.19650   0.16187   0.00000  Uiso   1.00
H175   H     0.98610   0.57834   0.49039   0.00000  Uiso   1.00
O176   O     0.71297   0.82832   0.91910   0.00000  Uiso   1.00
O177   O     0.75714   0.08966   0.06071   0.00000  Uiso   1.00
O178   O     0.14512   0.59063   0.49172   0.00000  Uiso   1.00
N179   N     0.80921   0.73022   0.94545   0.00000  Uiso   1.00
N180   N     0.84066   0.20383   0.04634   0.00000  Uiso   1.00
N181   N     0.11715   0.56079   0.35349   0.00000  Uiso   1.00
N182   N     0.70803   0.73943   0.02963   0.00000  Uiso   1.00
N183   N     0.73949   0.21305   0.13052   0.00000  Uiso   1.00
N184   N     0.01597   0.57001   0.43767   0.00000  Uiso   1.00
C185   C     0.11001   0.93136   0.49742   0.00000  Uiso   1.00
C186   C     0.08635   0.87199   0.56455   0.00000  Uiso   1.00
C187   C     0.02093   0.87933   0.61585   0.00000  Uiso   1.00
C188   C     0.00954   0.81860   0.67332   0.00000  Uiso   1.00
C189   C     0.96484   0.73637   0.77662   0.00000  Uiso   1.00
C190   C     0.11331   0.88100   0.41801   0.00000  Uiso   1.00
C191   C     0.07057   0.89595   0.34610   0.00000  Uiso   1.00
C192   C     0.08188   0.84281   0.28021   0.00000  Uiso   1.00
C193   C     0.07909   0.77463   0.15600   0.00000  Uiso   1.00
C194   C     0.19622   0.95822   0.51713   0.00000  Uiso   1.00
C195   C     0.22319   0.03809   0.52854   0.00000  Uiso   1.00
C196   C     0.30431   0.04997   0.54608   0.00000  Uiso   1.00
C197   C     0.43024   0.10167   0.57576   0.00000  Uiso   1.00
C198   C     0.20612   0.81044   0.50827   0.00000  Uiso   1.00
C199   C     0.13855   0.80630   0.57044   0.00000  Uiso   1.00
C200   C     0.12726   0.74554   0.62785   0.00000  Uiso   1.00
C201   C     0.06184   0.75280   0.67922   0.00000  Uiso   1.00
C202   C     0.16551   0.81532   0.42390   0.00000  Uiso   1.00
C203   C     0.17690   0.76216   0.35810   0.00000  Uiso   1.00
C204   C     0.13418   0.77701   0.28611   0.00000  Uiso   1.00
C205   C     0.24842   0.89254   0.52303   0.00000  Uiso   1.00
C206   C     0.32952   0.90430   0.54054   0.00000  Uiso   1.00
C207   C     0.35661   0.98417   0.55198   0.00000  Uiso   1.00
H208   H     0.06936   0.98250   0.49283   0.00000  Uiso   1.00
H209   H     0.98054   0.93017   0.61126   0.00000  Uiso   1.00
H210   H     0.03018   0.94679   0.34155   0.00000  Uiso   1.00
H211   H     0.18277   0.08891   0.52397   0.00000  Uiso   1.00
H212   H     0.90507   0.84318   0.74514   0.00000  Uiso   1.00
H213   H     0.00975   0.87823   0.17644   0.00000  Uiso   1.00
H214   H     0.33153   0.17791   0.56110   0.00000  Uiso   1.00
H215   H     0.24676   0.75930   0.51286   0.00000  Uiso   1.00
H216   H     0.16767   0.69472   0.63240   0.00000  Uiso   1.00
H217   H     0.21730   0.71134   0.36269   0.00000  Uiso   1.00
H218   H     0.36990   0.85345   0.54510   0.00000  Uiso   1.00
H219   H     0.05695   0.65207   0.76229   0.00000  Uiso   1.00
H220   H     0.16163   0.68713   0.19359   0.00000  Uiso   1.00
H221   H     0.48341   0.98681   0.57825   0.00000  Uiso   1.00
O222   O     0.92576   0.70916   0.83197   0.00000  Uiso   1.00
O223   O     0.06311   0.75516   0.08586   0.00000  Uiso   1.00
O224   O     0.48528   0.14833   0.59052   0.00000  Uiso   1.00
N225   N     0.95167   0.80707   0.73279   0.00000  Uiso   1.00
N226   N     0.04954   0.83983   0.20109   0.00000  Uiso   1.00
N227   N     0.35038   0.12002   0.56069   0.00000  Uiso   1.00
N228   N     0.03340   0.70424   0.74202   0.00000  Uiso   1.00
N229   N     0.13126   0.73700   0.21032   0.00000  Uiso   1.00
N230   N     0.43210   0.01719   0.56992   0.00000  Uiso   1.00
C231   C     0.49796   0.10880   0.93180   0.00000  Uiso   1.00
C232   C     0.56325   0.08484   0.87174   0.00000  Uiso   1.00
C233   C     0.61304   0.01835   0.87911   0.00000  Uiso   1.00
C234   C     0.66896   0.00685   0.81769   0.00000  Uiso   1.00
C235   C     0.76942   0.96153   0.73450   0.00000  Uiso   1.00
C236   C     0.42049   0.11227   0.88110   0.00000  Uiso   1.00
C237   C     0.35025   0.06885   0.89636   0.00000  Uiso   1.00
C238   C     0.28599   0.08045   0.84283   0.00000  Uiso   1.00
C239   C     0.16480   0.07777   0.77423   0.00000  Uiso   1.00
C240   C     0.51751   0.19633   0.95881   0.00000  Uiso   1.00
C241   C     0.52882   0.22359   0.03941   0.00000  Uiso   1.00
C242   C     0.54622   0.30598   0.05130   0.00000  Uiso   1.00
C243   C     0.57566   0.43382   0.10334   0.00000  Uiso   1.00
C244   C     0.50874   0.20662   0.80960   0.00000  Uiso   1.00
C245   C     0.56910   0.13797   0.80536   0.00000  Uiso   1.00
C246   C     0.62496   0.12658   0.74391   0.00000  Uiso   1.00
C247   C     0.67482   0.06008   0.75120   0.00000  Uiso   1.00
C248   C     0.42635   0.16540   0.81473   0.00000  Uiso   1.00
C249   C     0.36217   0.17708   0.76117   0.00000  Uiso   1.00
C250   C     0.29185   0.13368   0.77634   0.00000  Uiso   1.00
C251   C     0.52337   0.24946   0.89243   0.00000  Uiso   1.00
C252   C     0.54075   0.33183   0.90420   0.00000  Uiso   1.00
C253   C     0.55208   0.35921   0.98480   0.00000  Uiso   1.00
H254   H     0.49340   0.06743   0.98347   0.00000  Uiso   1.00
H255   H     0.60849   0.97723   0.93048   0.00000  Uiso   1.00
H256   H     0.34574   0.02774   0.94774   0.00000  Uiso   1.00
H257   H     0.52428   0.18246   0.09075   0.00000  Uiso   1.00
H258   H     0.73864   0.90065   0.84245   0.00000  Uiso   1.00
H259   H     0.18461   0.00716   0.87885   0.00000  Uiso   1.00
H260   H     0.56111   0.33342   0.18043   0.00000  Uiso   1.00
H261   H     0.51329   0.24799   0.75792   0.00000  Uiso   1.00
H262   H     0.62948   0.16771   0.69256   0.00000  Uiso   1.00
H263   H     0.36672   0.21821   0.70981   0.00000  Uiso   1.00
H264   H     0.54527   0.37293   0.85283   0.00000  Uiso   1.00
H265   H     0.75568   0.05524   0.64934   0.00000  Uiso   1.00
H266   H     0.20164   0.16175   0.68574   0.00000  Uiso   1.00
H267   H     0.57814   0.48801   0.98731   0.00000  Uiso   1.00
O268   O     0.82321   0.92186   0.70695   0.00000  Uiso   1.00
O269   O     0.09634   0.06160   0.75472   0.00000  Uiso   1.00
O270   O     0.59030   0.48965   0.15038   0.00000  Uiso   1.00
N271   N     0.72672   0.94806   0.80598   0.00000  Uiso   1.00
N272   N     0.20873   0.04763   0.84000   0.00000  Uiso   1.00
N273   N     0.56071   0.35266   0.12195   0.00000  Uiso   1.00
N274   N     0.73589   0.03125   0.70207   0.00000  Uiso   1.00
N275   N     0.21790   0.13081   0.73609   0.00000  Uiso   1.00
N276   N     0.56987   0.43585   0.01804   0.00000  Uiso   1.00
