data_job_03611
_audit_creation_date              2018-12-19
_audit_creation_method            'Materials Studio'
_symmetry_space_group_name_H-M    'P1'
_symmetry_Int_Tables_number       1
_symmetry_cell_setting            triclinic
loop_
_symmetry_equiv_pos_as_xyz
  x,y,z
_cell_length_a                    19.5636
_cell_length_b                    35.2544
_cell_length_c                    12.1999
_cell_angle_alpha                 90.0000
_cell_angle_beta                  90.0000
_cell_angle_gamma                 90.0000
loop_
_atom_site_label
_atom_site_type_symbol
_atom_site_fract_x
_atom_site_fract_y
_atom_site_fract_z
_atom_site_U_iso_or_equiv
_atom_site_adp_type
_atom_site_occupancy
C1     C     0.59857   0.66308   0.25962   0.00000  Uiso   1.00
C2     C     0.59126   0.66720   0.13575   0.00000  Uiso   1.00
C3     C     0.53820   0.68550   0.08185   0.00000  Uiso   1.00
C4     C     0.54083   0.68617   0.96814   0.00000  Uiso   1.00
C5     C     0.52127   0.69513   0.78456   0.00000  Uiso   1.00
C6     C     0.60427   0.62063   0.28182   0.00000  Uiso   1.00
C7     C     0.56216   0.59978   0.35075   0.00000  Uiso   1.00
C8     C     0.57574   0.56126   0.36002   0.00000  Uiso   1.00
C9     C     0.57641   0.49794   0.40328   0.00000  Uiso   1.00
C10    C     0.66804   0.67994   0.28860   0.00000  Uiso   1.00
C11    C     0.67957   0.70895   0.36325   0.00000  Uiso   1.00
C12    C     0.74685   0.72035   0.37824   0.00000  Uiso   1.00
C13    C     0.84654   0.74911   0.43202   0.00000  Uiso   1.00
C14    C     0.69758   0.63174   0.15354   0.00000  Uiso   1.00
C15    C     0.64504   0.65017   0.07813   0.00000  Uiso   1.00
C16    C     0.64774   0.65082   0.96447   0.00000  Uiso   1.00
C17    C     0.59470   0.66912   0.91041   0.00000  Uiso   1.00
C18    C     0.65804   0.60361   0.22420   0.00000  Uiso   1.00
C19    C     0.67170   0.56511   0.23338   0.00000  Uiso   1.00
C20    C     0.62961   0.54421   0.30229   0.00000  Uiso   1.00
C21    C     0.72182   0.66292   0.23097   0.00000  Uiso   1.00
C22    C     0.78911   0.67428   0.24586   0.00000  Uiso   1.00
C23    C     0.80072   0.70330   0.32051   0.00000  Uiso   1.00
H24    H     0.55671   0.67633   0.30449   0.00000  Uiso   1.00
H25    H     0.49659   0.69866   0.12647   0.00000  Uiso   1.00
H26    H     0.52055   0.61297   0.39534   0.00000  Uiso   1.00
H27    H     0.63794   0.72211   0.40782   0.00000  Uiso   1.00
H28    H     0.45365   0.71590   0.90369   0.00000  Uiso   1.00
H29    H     0.50417   0.53520   0.47064   0.00000  Uiso   1.00
H30    H     0.75171   0.76537   0.49697   0.00000  Uiso   1.00
H31    H     0.73945   0.61849   0.10867   0.00000  Uiso   1.00
H32    H     0.68937   0.63765   0.91990   0.00000  Uiso   1.00
H33    H     0.71332   0.55195   0.18878   0.00000  Uiso   1.00
H34    H     0.83071   0.66110   0.20126   0.00000  Uiso   1.00
H35    H     0.61011   0.66638   0.73603   0.00000  Uiso   1.00
H36    H     0.66063   0.48568   0.30299   0.00000  Uiso   1.00
H37    H     0.90817   0.71584   0.32931   0.00000  Uiso   1.00
O38    O     0.49562   0.70477   0.69922   0.00000  Uiso   1.00
O39    O     0.56191   0.46771   0.44305   0.00000  Uiso   1.00
O40    O     0.88668   0.76968   0.47759   0.00000  Uiso   1.00
N41    N     0.49735   0.70162   0.89014   0.00000  Uiso   1.00
N42    N     0.54458   0.53268   0.42019   0.00000  Uiso   1.00
N43    N     0.77601   0.74786   0.44483   0.00000  Uiso   1.00
N44    N     0.58154   0.67497   0.79992   0.00000  Uiso   1.00
N45    N     0.62877   0.50603   0.32998   0.00000  Uiso   1.00
N46    N     0.86020   0.72121   0.35461   0.00000  Uiso   1.00
C47    C     0.90143   0.33692   0.25962   0.00000  Uiso   1.00
C48    C     0.90874   0.33280   0.13575   0.00000  Uiso   1.00
C49    C     0.96180   0.31450   0.08185   0.00000  Uiso   1.00
C50    C     0.95917   0.31383   0.96814   0.00000  Uiso   1.00
C51    C     0.97873   0.30487   0.78456   0.00000  Uiso   1.00
C52    C     0.89573   0.37937   0.28182   0.00000  Uiso   1.00
C53    C     0.93784   0.40022   0.35075   0.00000  Uiso   1.00
C54    C     0.92426   0.43874   0.36002   0.00000  Uiso   1.00
C55    C     0.92359   0.50206   0.40328   0.00000  Uiso   1.00
C56    C     0.83196   0.32006   0.28860   0.00000  Uiso   1.00
C57    C     0.82043   0.29105   0.36325   0.00000  Uiso   1.00
C58    C     0.75315   0.27965   0.37824   0.00000  Uiso   1.00
C59    C     0.65346   0.25089   0.43202   0.00000  Uiso   1.00
C60    C     0.80242   0.36826   0.15354   0.00000  Uiso   1.00
C61    C     0.85496   0.34983   0.07813   0.00000  Uiso   1.00
C62    C     0.85226   0.34918   0.96447   0.00000  Uiso   1.00
C63    C     0.90530   0.33088   0.91041   0.00000  Uiso   1.00
C64    C     0.84196   0.39639   0.22420   0.00000  Uiso   1.00
C65    C     0.82830   0.43489   0.23338   0.00000  Uiso   1.00
C66    C     0.87039   0.45579   0.30229   0.00000  Uiso   1.00
C67    C     0.77818   0.33708   0.23097   0.00000  Uiso   1.00
C68    C     0.71089   0.32572   0.24586   0.00000  Uiso   1.00
C69    C     0.69928   0.29670   0.32051   0.00000  Uiso   1.00
H70    H     0.94329   0.32367   0.30449   0.00000  Uiso   1.00
H71    H     0.00341   0.30134   0.12647   0.00000  Uiso   1.00
H72    H     0.97945   0.38703   0.39534   0.00000  Uiso   1.00
H73    H     0.86206   0.27789   0.40782   0.00000  Uiso   1.00
H74    H     0.04635   0.28410   0.90369   0.00000  Uiso   1.00
H75    H     0.99583   0.46480   0.47064   0.00000  Uiso   1.00
H76    H     0.74829   0.23463   0.49697   0.00000  Uiso   1.00
H77    H     0.76055   0.38151   0.10867   0.00000  Uiso   1.00
H78    H     0.81063   0.36235   0.91990   0.00000  Uiso   1.00
H79    H     0.78668   0.44805   0.18878   0.00000  Uiso   1.00
H80    H     0.66929   0.33890   0.20126   0.00000  Uiso   1.00
H81    H     0.88989   0.33362   0.73603   0.00000  Uiso   1.00
H82    H     0.83937   0.51432   0.30299   0.00000  Uiso   1.00
H83    H     0.59183   0.28416   0.32931   0.00000  Uiso   1.00
O84    O     0.00438   0.29523   0.69922   0.00000  Uiso   1.00
O85    O     0.93809   0.53229   0.44305   0.00000  Uiso   1.00
O86    O     0.61332   0.23032   0.47759   0.00000  Uiso   1.00
N87    N     0.00265   0.29838   0.89014   0.00000  Uiso   1.00
N88    N     0.95542   0.46732   0.42019   0.00000  Uiso   1.00
N89    N     0.72399   0.25214   0.44483   0.00000  Uiso   1.00
N90    N     0.91846   0.32503   0.79992   0.00000  Uiso   1.00
N91    N     0.87123   0.49397   0.32998   0.00000  Uiso   1.00
N92    N     0.63980   0.27879   0.35461   0.00000  Uiso   1.00
C93    C     0.90143   0.16308   0.24038   0.00000  Uiso   1.00
C94    C     0.90874   0.16720   0.36425   0.00000  Uiso   1.00
C95    C     0.96180   0.18550   0.41815   0.00000  Uiso   1.00
C96    C     0.95917   0.18617   0.53186   0.00000  Uiso   1.00
C97    C     0.97873   0.19513   0.71544   0.00000  Uiso   1.00
C98    C     0.89573   0.12063   0.21818   0.00000  Uiso   1.00
C99    C     0.93784   0.09978   0.14925   0.00000  Uiso   1.00
C100   C     0.92426   0.06126   0.13998   0.00000  Uiso   1.00
C101   C     0.92359   0.99794   0.09672   0.00000  Uiso   1.00
C102   C     0.83196   0.17994   0.21140   0.00000  Uiso   1.00
C103   C     0.82043   0.20895   0.13675   0.00000  Uiso   1.00
C104   C     0.75315   0.22035   0.12176   0.00000  Uiso   1.00
C105   C     0.65346   0.24911   0.06798   0.00000  Uiso   1.00
C106   C     0.80242   0.13174   0.34646   0.00000  Uiso   1.00
C107   C     0.85496   0.15017   0.42187   0.00000  Uiso   1.00
C108   C     0.85226   0.15082   0.53553   0.00000  Uiso   1.00
C109   C     0.90530   0.16912   0.58959   0.00000  Uiso   1.00
C110   C     0.84196   0.10361   0.27580   0.00000  Uiso   1.00
C111   C     0.82830   0.06511   0.26662   0.00000  Uiso   1.00
C112   C     0.87039   0.04421   0.19771   0.00000  Uiso   1.00
C113   C     0.77818   0.16292   0.26903   0.00000  Uiso   1.00
C114   C     0.71089   0.17428   0.25414   0.00000  Uiso   1.00
C115   C     0.69928   0.20330   0.17949   0.00000  Uiso   1.00
H116   H     0.94329   0.17633   0.19551   0.00000  Uiso   1.00
H117   H     0.00341   0.19866   0.37353   0.00000  Uiso   1.00
H118   H     0.97945   0.11297   0.10466   0.00000  Uiso   1.00
H119   H     0.86206   0.22211   0.09218   0.00000  Uiso   1.00
H120   H     0.04635   0.21590   0.59631   0.00000  Uiso   1.00
H121   H     0.99583   0.03520   0.02936   0.00000  Uiso   1.00
H122   H     0.74829   0.26537   0.00303   0.00000  Uiso   1.00
H123   H     0.76055   0.11849   0.39133   0.00000  Uiso   1.00
H124   H     0.81063   0.13765   0.58010   0.00000  Uiso   1.00
H125   H     0.78668   0.05195   0.31122   0.00000  Uiso   1.00
H126   H     0.66929   0.16110   0.29874   0.00000  Uiso   1.00
H127   H     0.88989   0.16638   0.76397   0.00000  Uiso   1.00
H128   H     0.83937   0.98568   0.19701   0.00000  Uiso   1.00
H129   H     0.59183   0.21584   0.17069   0.00000  Uiso   1.00
O130   O     0.00438   0.20477   0.80078   0.00000  Uiso   1.00
O131   O     0.93809   0.96771   0.05695   0.00000  Uiso   1.00
O132   O     0.61332   0.26968   0.02241   0.00000  Uiso   1.00
N133   N     0.00265   0.20162   0.60986   0.00000  Uiso   1.00
N134   N     0.95542   0.03268   0.07981   0.00000  Uiso   1.00
N135   N     0.72399   0.24786   0.05517   0.00000  Uiso   1.00
N136   N     0.91846   0.17497   0.70008   0.00000  Uiso   1.00
N137   N     0.87123   0.00603   0.17002   0.00000  Uiso   1.00
N138   N     0.63980   0.22121   0.14539   0.00000  Uiso   1.00
C139   C     0.59857   0.83692   0.24038   0.00000  Uiso   1.00
C140   C     0.59126   0.83280   0.36425   0.00000  Uiso   1.00
C141   C     0.53820   0.81450   0.41815   0.00000  Uiso   1.00
C142   C     0.54083   0.81383   0.53186   0.00000  Uiso   1.00
C143   C     0.52127   0.80487   0.71544   0.00000  Uiso   1.00
C144   C     0.60427   0.87937   0.21818   0.00000  Uiso   1.00
C145   C     0.56216   0.90022   0.14925   0.00000  Uiso   1.00
C146   C     0.57574   0.93874   0.13998   0.00000  Uiso   1.00
C147   C     0.57641   0.00206   0.09672   0.00000  Uiso   1.00
C148   C     0.66804   0.82006   0.21140   0.00000  Uiso   1.00
C149   C     0.67957   0.79105   0.13675   0.00000  Uiso   1.00
C150   C     0.74685   0.77965   0.12176   0.00000  Uiso   1.00
C151   C     0.84654   0.75089   0.06798   0.00000  Uiso   1.00
C152   C     0.69758   0.86826   0.34646   0.00000  Uiso   1.00
C153   C     0.64504   0.84983   0.42187   0.00000  Uiso   1.00
C154   C     0.64774   0.84918   0.53553   0.00000  Uiso   1.00
C155   C     0.59470   0.83088   0.58959   0.00000  Uiso   1.00
C156   C     0.65804   0.89639   0.27580   0.00000  Uiso   1.00
C157   C     0.67170   0.93489   0.26662   0.00000  Uiso   1.00
C158   C     0.62961   0.95579   0.19771   0.00000  Uiso   1.00
C159   C     0.72182   0.83708   0.26903   0.00000  Uiso   1.00
C160   C     0.78911   0.82572   0.25414   0.00000  Uiso   1.00
C161   C     0.80072   0.79670   0.17949   0.00000  Uiso   1.00
H162   H     0.55671   0.82367   0.19551   0.00000  Uiso   1.00
H163   H     0.49659   0.80134   0.37353   0.00000  Uiso   1.00
H164   H     0.52055   0.88703   0.10466   0.00000  Uiso   1.00
H165   H     0.63794   0.77789   0.09218   0.00000  Uiso   1.00
H166   H     0.45365   0.78410   0.59631   0.00000  Uiso   1.00
H167   H     0.50417   0.96480   0.02936   0.00000  Uiso   1.00
H168   H     0.75171   0.73463   0.00303   0.00000  Uiso   1.00
H169   H     0.73945   0.88151   0.39133   0.00000  Uiso   1.00
H170   H     0.68937   0.86235   0.58010   0.00000  Uiso   1.00
H171   H     0.71332   0.94805   0.31122   0.00000  Uiso   1.00
H172   H     0.83071   0.83890   0.29874   0.00000  Uiso   1.00
H173   H     0.61011   0.83362   0.76397   0.00000  Uiso   1.00
H174   H     0.66063   0.01432   0.19701   0.00000  Uiso   1.00
H175   H     0.90817   0.78416   0.17069   0.00000  Uiso   1.00
O176   O     0.49562   0.79523   0.80078   0.00000  Uiso   1.00
O177   O     0.56191   0.03229   0.05695   0.00000  Uiso   1.00
O178   O     0.88668   0.73032   0.02241   0.00000  Uiso   1.00
N179   N     0.49735   0.79838   0.60986   0.00000  Uiso   1.00
N180   N     0.54458   0.96732   0.07981   0.00000  Uiso   1.00
N181   N     0.77601   0.75214   0.05517   0.00000  Uiso   1.00
N182   N     0.58154   0.82503   0.70008   0.00000  Uiso   1.00
N183   N     0.62877   0.99397   0.17002   0.00000  Uiso   1.00
N184   N     0.86020   0.77879   0.14539   0.00000  Uiso   1.00
C185   C     0.40143   0.33692   0.74038   0.00000  Uiso   1.00
C186   C     0.40874   0.33280   0.86425   0.00000  Uiso   1.00
C187   C     0.46180   0.31450   0.91815   0.00000  Uiso   1.00
C188   C     0.45917   0.31383   0.03186   0.00000  Uiso   1.00
C189   C     0.47873   0.30487   0.21544   0.00000  Uiso   1.00
C190   C     0.39573   0.37937   0.71818   0.00000  Uiso   1.00
C191   C     0.43784   0.40022   0.64925   0.00000  Uiso   1.00
C192   C     0.42426   0.43874   0.63998   0.00000  Uiso   1.00
C193   C     0.42359   0.50206   0.59672   0.00000  Uiso   1.00
C194   C     0.33196   0.32006   0.71140   0.00000  Uiso   1.00
C195   C     0.32043   0.29105   0.63675   0.00000  Uiso   1.00
C196   C     0.25315   0.27965   0.62176   0.00000  Uiso   1.00
C197   C     0.15346   0.25089   0.56798   0.00000  Uiso   1.00
C198   C     0.30242   0.36826   0.84646   0.00000  Uiso   1.00
C199   C     0.35496   0.34983   0.92187   0.00000  Uiso   1.00
C200   C     0.35226   0.34918   0.03553   0.00000  Uiso   1.00
C201   C     0.40530   0.33088   0.08959   0.00000  Uiso   1.00
C202   C     0.34196   0.39639   0.77580   0.00000  Uiso   1.00
C203   C     0.32830   0.43489   0.76662   0.00000  Uiso   1.00
C204   C     0.37039   0.45579   0.69771   0.00000  Uiso   1.00
C205   C     0.27818   0.33708   0.76903   0.00000  Uiso   1.00
C206   C     0.21089   0.32572   0.75414   0.00000  Uiso   1.00
C207   C     0.19928   0.29670   0.67949   0.00000  Uiso   1.00
H208   H     0.44329   0.32367   0.69551   0.00000  Uiso   1.00
H209   H     0.50341   0.30134   0.87353   0.00000  Uiso   1.00
H210   H     0.47945   0.38703   0.60466   0.00000  Uiso   1.00
H211   H     0.36206   0.27789   0.59218   0.00000  Uiso   1.00
H212   H     0.54635   0.28410   0.09631   0.00000  Uiso   1.00
H213   H     0.49583   0.46480   0.52936   0.00000  Uiso   1.00
H214   H     0.24829   0.23463   0.50303   0.00000  Uiso   1.00
H215   H     0.26055   0.38151   0.89133   0.00000  Uiso   1.00
H216   H     0.31063   0.36235   0.08010   0.00000  Uiso   1.00
H217   H     0.28668   0.44805   0.81122   0.00000  Uiso   1.00
H218   H     0.16929   0.33890   0.79874   0.00000  Uiso   1.00
H219   H     0.38989   0.33362   0.26397   0.00000  Uiso   1.00
H220   H     0.33937   0.51432   0.69701   0.00000  Uiso   1.00
H221   H     0.09183   0.28416   0.67069   0.00000  Uiso   1.00
O222   O     0.50438   0.29523   0.30078   0.00000  Uiso   1.00
O223   O     0.43809   0.53229   0.55695   0.00000  Uiso   1.00
O224   O     0.11332   0.23032   0.52241   0.00000  Uiso   1.00
N225   N     0.50265   0.29838   0.10986   0.00000  Uiso   1.00
N226   N     0.45542   0.46732   0.57981   0.00000  Uiso   1.00
N227   N     0.22399   0.25214   0.55517   0.00000  Uiso   1.00
N228   N     0.41846   0.32503   0.20008   0.00000  Uiso   1.00
N229   N     0.37123   0.49397   0.67002   0.00000  Uiso   1.00
N230   N     0.13980   0.27879   0.64539   0.00000  Uiso   1.00
C231   C     0.09857   0.66308   0.74038   0.00000  Uiso   1.00
C232   C     0.09126   0.66720   0.86425   0.00000  Uiso   1.00
C233   C     0.03820   0.68550   0.91815   0.00000  Uiso   1.00
C234   C     0.04083   0.68617   0.03186   0.00000  Uiso   1.00
C235   C     0.02127   0.69513   0.21544   0.00000  Uiso   1.00
C236   C     0.10427   0.62063   0.71818   0.00000  Uiso   1.00
C237   C     0.06216   0.59978   0.64925   0.00000  Uiso   1.00
C238   C     0.07574   0.56126   0.63998   0.00000  Uiso   1.00
C239   C     0.07641   0.49794   0.59672   0.00000  Uiso   1.00
C240   C     0.16804   0.67994   0.71140   0.00000  Uiso   1.00
C241   C     0.17957   0.70895   0.63675   0.00000  Uiso   1.00
C242   C     0.24685   0.72035   0.62176   0.00000  Uiso   1.00
C243   C     0.34654   0.74911   0.56798   0.00000  Uiso   1.00
C244   C     0.19758   0.63174   0.84646   0.00000  Uiso   1.00
C245   C     0.14504   0.65017   0.92187   0.00000  Uiso   1.00
C246   C     0.14774   0.65082   0.03553   0.00000  Uiso   1.00
C247   C     0.09470   0.66912   0.08959   0.00000  Uiso   1.00
C248   C     0.15804   0.60361   0.77580   0.00000  Uiso   1.00
C249   C     0.17170   0.56511   0.76662   0.00000  Uiso   1.00
C250   C     0.12961   0.54421   0.69771   0.00000  Uiso   1.00
C251   C     0.22182   0.66292   0.76903   0.00000  Uiso   1.00
C252   C     0.28911   0.67428   0.75414   0.00000  Uiso   1.00
C253   C     0.30072   0.70330   0.67949   0.00000  Uiso   1.00
H254   H     0.05671   0.67633   0.69551   0.00000  Uiso   1.00
H255   H     0.99659   0.69866   0.87353   0.00000  Uiso   1.00
H256   H     0.02055   0.61297   0.60466   0.00000  Uiso   1.00
H257   H     0.13794   0.72211   0.59218   0.00000  Uiso   1.00
H258   H     0.95365   0.71590   0.09631   0.00000  Uiso   1.00
H259   H     0.00417   0.53520   0.52936   0.00000  Uiso   1.00
H260   H     0.25171   0.76537   0.50303   0.00000  Uiso   1.00
H261   H     0.23945   0.61849   0.89133   0.00000  Uiso   1.00
H262   H     0.18937   0.63765   0.08010   0.00000  Uiso   1.00
H263   H     0.21332   0.55195   0.81122   0.00000  Uiso   1.00
H264   H     0.33071   0.66110   0.79874   0.00000  Uiso   1.00
H265   H     0.11011   0.66638   0.26397   0.00000  Uiso   1.00
H266   H     0.16063   0.48568   0.69701   0.00000  Uiso   1.00
H267   H     0.40817   0.71584   0.67069   0.00000  Uiso   1.00
O268   O     0.99562   0.70477   0.30078   0.00000  Uiso   1.00
O269   O     0.06191   0.46771   0.55695   0.00000  Uiso   1.00
O270   O     0.38668   0.76968   0.52241   0.00000  Uiso   1.00
N271   N     0.99735   0.70162   0.10986   0.00000  Uiso   1.00
N272   N     0.04458   0.53268   0.57981   0.00000  Uiso   1.00
N273   N     0.27601   0.74786   0.55517   0.00000  Uiso   1.00
N274   N     0.08154   0.67497   0.20008   0.00000  Uiso   1.00
N275   N     0.12877   0.50603   0.67002   0.00000  Uiso   1.00
N276   N     0.36020   0.72121   0.64539   0.00000  Uiso   1.00
C277   C     0.09857   0.83692   0.75962   0.00000  Uiso   1.00
C278   C     0.09126   0.83280   0.63575   0.00000  Uiso   1.00
C279   C     0.03820   0.81450   0.58185   0.00000  Uiso   1.00
C280   C     0.04083   0.81383   0.46814   0.00000  Uiso   1.00
C281   C     0.02127   0.80487   0.28456   0.00000  Uiso   1.00
C282   C     0.10427   0.87937   0.78182   0.00000  Uiso   1.00
C283   C     0.06216   0.90022   0.85075   0.00000  Uiso   1.00
C284   C     0.07574   0.93874   0.86002   0.00000  Uiso   1.00
C285   C     0.07641   0.00206   0.90328   0.00000  Uiso   1.00
C286   C     0.16804   0.82006   0.78860   0.00000  Uiso   1.00
C287   C     0.17957   0.79105   0.86325   0.00000  Uiso   1.00
C288   C     0.24685   0.77965   0.87824   0.00000  Uiso   1.00
C289   C     0.34654   0.75089   0.93202   0.00000  Uiso   1.00
C290   C     0.19758   0.86826   0.65354   0.00000  Uiso   1.00
C291   C     0.14504   0.84983   0.57813   0.00000  Uiso   1.00
C292   C     0.14774   0.84918   0.46447   0.00000  Uiso   1.00
C293   C     0.09470   0.83088   0.41041   0.00000  Uiso   1.00
C294   C     0.15804   0.89639   0.72420   0.00000  Uiso   1.00
C295   C     0.17170   0.93489   0.73338   0.00000  Uiso   1.00
C296   C     0.12961   0.95579   0.80229   0.00000  Uiso   1.00
C297   C     0.22182   0.83708   0.73097   0.00000  Uiso   1.00
C298   C     0.28911   0.82572   0.74586   0.00000  Uiso   1.00
C299   C     0.30072   0.79670   0.82051   0.00000  Uiso   1.00
H300   H     0.05671   0.82367   0.80449   0.00000  Uiso   1.00
H301   H     0.99659   0.80134   0.62647   0.00000  Uiso   1.00
H302   H     0.02055   0.88703   0.89534   0.00000  Uiso   1.00
H303   H     0.13794   0.77789   0.90782   0.00000  Uiso   1.00
H304   H     0.95365   0.78410   0.40369   0.00000  Uiso   1.00
H305   H     0.00417   0.96480   0.97064   0.00000  Uiso   1.00
H306   H     0.25171   0.73463   0.99697   0.00000  Uiso   1.00
H307   H     0.23945   0.88151   0.60867   0.00000  Uiso   1.00
H308   H     0.18937   0.86235   0.41990   0.00000  Uiso   1.00
H309   H     0.21332   0.94805   0.68878   0.00000  Uiso   1.00
H310   H     0.33071   0.83890   0.70126   0.00000  Uiso   1.00
H311   H     0.11011   0.83362   0.23603   0.00000  Uiso   1.00
H312   H     0.16063   0.01432   0.80299   0.00000  Uiso   1.00
H313   H     0.40817   0.78416   0.82931   0.00000  Uiso   1.00
O314   O     0.99562   0.79523   0.19922   0.00000  Uiso   1.00
O315   O     0.06191   0.03229   0.94305   0.00000  Uiso   1.00
O316   O     0.38668   0.73032   0.97759   0.00000  Uiso   1.00
N317   N     0.99735   0.79838   0.39014   0.00000  Uiso   1.00
N318   N     0.04458   0.96732   0.92019   0.00000  Uiso   1.00
N319   N     0.27601   0.75214   0.94483   0.00000  Uiso   1.00
N320   N     0.08154   0.82503   0.29992   0.00000  Uiso   1.00
N321   N     0.12877   0.99397   0.82998   0.00000  Uiso   1.00
N322   N     0.36020   0.77879   0.85461   0.00000  Uiso   1.00
C323   C     0.40143   0.16308   0.75962   0.00000  Uiso   1.00
C324   C     0.40874   0.16720   0.63575   0.00000  Uiso   1.00
C325   C     0.46180   0.18550   0.58185   0.00000  Uiso   1.00
C326   C     0.45917   0.18617   0.46814   0.00000  Uiso   1.00
C327   C     0.47873   0.19513   0.28456   0.00000  Uiso   1.00
C328   C     0.39573   0.12063   0.78182   0.00000  Uiso   1.00
C329   C     0.43784   0.09978   0.85075   0.00000  Uiso   1.00
C330   C     0.42426   0.06126   0.86002   0.00000  Uiso   1.00
C331   C     0.42359   0.99794   0.90328   0.00000  Uiso   1.00
C332   C     0.33196   0.17994   0.78860   0.00000  Uiso   1.00
C333   C     0.32043   0.20895   0.86325   0.00000  Uiso   1.00
C334   C     0.25315   0.22035   0.87824   0.00000  Uiso   1.00
C335   C     0.15346   0.24911   0.93202   0.00000  Uiso   1.00
C336   C     0.30242   0.13174   0.65354   0.00000  Uiso   1.00
C337   C     0.35496   0.15017   0.57813   0.00000  Uiso   1.00
C338   C     0.35226   0.15082   0.46447   0.00000  Uiso   1.00
C339   C     0.40530   0.16912   0.41041   0.00000  Uiso   1.00
C340   C     0.34196   0.10361   0.72420   0.00000  Uiso   1.00
C341   C     0.32830   0.06511   0.73338   0.00000  Uiso   1.00
C342   C     0.37039   0.04421   0.80229   0.00000  Uiso   1.00
C343   C     0.27818   0.16292   0.73097   0.00000  Uiso   1.00
C344   C     0.21089   0.17428   0.74586   0.00000  Uiso   1.00
C345   C     0.19928   0.20330   0.82051   0.00000  Uiso   1.00
H346   H     0.44329   0.17633   0.80449   0.00000  Uiso   1.00
H347   H     0.50341   0.19866   0.62647   0.00000  Uiso   1.00
H348   H     0.47945   0.11297   0.89534   0.00000  Uiso   1.00
H349   H     0.36206   0.22211   0.90782   0.00000  Uiso   1.00
H350   H     0.54635   0.21590   0.40369   0.00000  Uiso   1.00
H351   H     0.49583   0.03520   0.97064   0.00000  Uiso   1.00
H352   H     0.24829   0.26537   0.99697   0.00000  Uiso   1.00
H353   H     0.26055   0.11849   0.60867   0.00000  Uiso   1.00
H354   H     0.31063   0.13765   0.41990   0.00000  Uiso   1.00
H355   H     0.28668   0.05195   0.68878   0.00000  Uiso   1.00
H356   H     0.16929   0.16110   0.70126   0.00000  Uiso   1.00
H357   H     0.38989   0.16638   0.23603   0.00000  Uiso   1.00
H358   H     0.33937   0.98568   0.80299   0.00000  Uiso   1.00
H359   H     0.09183   0.21584   0.82931   0.00000  Uiso   1.00
O360   O     0.50438   0.20477   0.19922   0.00000  Uiso   1.00
O361   O     0.43809   0.96771   0.94305   0.00000  Uiso   1.00
O362   O     0.11332   0.26968   0.97759   0.00000  Uiso   1.00
N363   N     0.50265   0.20162   0.39014   0.00000  Uiso   1.00
N364   N     0.45542   0.03268   0.92019   0.00000  Uiso   1.00
N365   N     0.22399   0.24786   0.94483   0.00000  Uiso   1.00
N366   N     0.41846   0.17497   0.29992   0.00000  Uiso   1.00
N367   N     0.37123   0.00603   0.82998   0.00000  Uiso   1.00
N368   N     0.13980   0.22121   0.85461   0.00000  Uiso   1.00
