data_job_01666
_audit_creation_date              2018-12-19
_audit_creation_method            'Materials Studio'
_symmetry_space_group_name_H-M    'P1'
_symmetry_Int_Tables_number       1
_symmetry_cell_setting            triclinic
loop_
_symmetry_equiv_pos_as_xyz
  x,y,z
_cell_length_a                    15.6474
_cell_length_b                    15.6474
_cell_length_c                    18.2131
_cell_angle_alpha                 90.0000
_cell_angle_beta                  90.0000
_cell_angle_gamma                 90.0000
loop_
_atom_site_label
_atom_site_type_symbol
_atom_site_fract_x
_atom_site_fract_y
_atom_site_fract_z
_atom_site_U_iso_or_equiv
_atom_site_adp_type
_atom_site_occupancy
C1     C     0.54440   0.88361   0.05699   0.00000  Uiso   1.00
C2     C     0.63750   0.90984   0.06726   0.00000  Uiso   1.00
C3     C     0.67046   0.99116   0.05619   0.00000  Uiso   1.00
C4     C     0.75733   0.00213   0.06851   0.00000  Uiso   1.00
C5     C     0.89399   0.05319   0.08098   0.00000  Uiso   1.00
C6     C     0.54517   0.80996   0.00216   0.00000  Uiso   1.00
C7     C     0.50049   0.80730   0.93638   0.00000  Uiso   1.00
C8     C     0.50963   0.73418   0.89391   0.00000  Uiso   1.00
C9     C     0.50289   0.63014   0.80535   0.00000  Uiso   1.00
C10    C     0.51611   0.84527   0.13002   0.00000  Uiso   1.00
C11    C     0.44697   0.87229   0.17174   0.00000  Uiso   1.00
C12    C     0.43163   0.82889   0.23691   0.00000  Uiso   1.00
C13    C     0.37977   0.77968   0.34687   0.00000  Uiso   1.00
C14    C     0.64007   0.75847   0.09855   0.00000  Uiso   1.00
C15    C     0.68946   0.84187   0.08983   0.00000  Uiso   1.00
C16    C     0.77631   0.85272   0.10217   0.00000  Uiso   1.00
C17    C     0.80939   0.93404   0.09113   0.00000  Uiso   1.00
C18    C     0.59713   0.74199   0.02473   0.00000  Uiso   1.00
C19    C     0.60633   0.66885   0.98236   0.00000  Uiso   1.00
C20    C     0.56168   0.66609   0.91652   0.00000  Uiso   1.00
C21    C     0.56807   0.77730   0.15260   0.00000  Uiso   1.00
C22    C     0.55283   0.73384   0.21772   0.00000  Uiso   1.00
C23    C     0.48369   0.76079   0.25952   0.00000  Uiso   1.00
H24    H     0.50395   0.93652   0.03941   0.00000  Uiso   1.00
H25    H     0.63023   0.04374   0.03872   0.00000  Uiso   1.00
H26    H     0.46027   0.85990   0.91893   0.00000  Uiso   1.00
H27    H     0.40678   0.92489   0.15425   0.00000  Uiso   1.00
H28    H     0.79315   0.13264   0.04787   0.00000  Uiso   1.00
H29    H     0.43478   0.74499   0.79530   0.00000  Uiso   1.00
H30    H     0.32196   0.88202   0.29153   0.00000  Uiso   1.00
H31    H     0.68053   0.70555   0.11612   0.00000  Uiso   1.00
H32    H     0.81650   0.80011   0.11964   0.00000  Uiso   1.00
H33    H     0.64655   0.61627   0.99984   0.00000  Uiso   1.00
H34    H     0.59305   0.68125   0.23517   0.00000  Uiso   1.00
H35    H     0.94434   0.93490   0.11354   0.00000  Uiso   1.00
H36    H     0.58596   0.54725   0.86097   0.00000  Uiso   1.00
H37    H     0.47315   0.68428   0.35720   0.00000  Uiso   1.00
O38    O     0.95501   0.10013   0.08161   0.00000  Uiso   1.00
O39    O     0.48482   0.59154   0.75026   0.00000  Uiso   1.00
O40    O     0.33682   0.77133   0.40130   0.00000  Uiso   1.00
N41    N     0.81007   0.07313   0.06286   0.00000  Uiso   1.00
N42    N     0.47502   0.71071   0.82672   0.00000  Uiso   1.00
N43    N     0.36953   0.83880   0.29064   0.00000  Uiso   1.00
N44    N     0.89143   0.96672   0.09820   0.00000  Uiso   1.00
N45    N     0.55637   0.60430   0.86206   0.00000  Uiso   1.00
N46    N     0.45089   0.73240   0.32598   0.00000  Uiso   1.00
C47    C     0.45560   0.11639   0.05699   0.00000  Uiso   1.00
C48    C     0.36250   0.09016   0.06726   0.00000  Uiso   1.00
C49    C     0.32954   0.00884   0.05619   0.00000  Uiso   1.00
C50    C     0.24267   0.99787   0.06851   0.00000  Uiso   1.00
C51    C     0.10601   0.94681   0.08098   0.00000  Uiso   1.00
C52    C     0.45483   0.19004   0.00216   0.00000  Uiso   1.00
C53    C     0.49951   0.19270   0.93638   0.00000  Uiso   1.00
C54    C     0.49037   0.26582   0.89391   0.00000  Uiso   1.00
C55    C     0.49711   0.36986   0.80535   0.00000  Uiso   1.00
C56    C     0.48389   0.15473   0.13002   0.00000  Uiso   1.00
C57    C     0.55303   0.12771   0.17174   0.00000  Uiso   1.00
C58    C     0.56837   0.17111   0.23691   0.00000  Uiso   1.00
C59    C     0.62023   0.22032   0.34687   0.00000  Uiso   1.00
C60    C     0.35993   0.24153   0.09855   0.00000  Uiso   1.00
C61    C     0.31054   0.15813   0.08983   0.00000  Uiso   1.00
C62    C     0.22369   0.14728   0.10217   0.00000  Uiso   1.00
C63    C     0.19061   0.06596   0.09113   0.00000  Uiso   1.00
C64    C     0.40287   0.25801   0.02473   0.00000  Uiso   1.00
C65    C     0.39367   0.33115   0.98236   0.00000  Uiso   1.00
C66    C     0.43832   0.33391   0.91652   0.00000  Uiso   1.00
C67    C     0.43193   0.22270   0.15260   0.00000  Uiso   1.00
C68    C     0.44717   0.26616   0.21772   0.00000  Uiso   1.00
C69    C     0.51631   0.23921   0.25952   0.00000  Uiso   1.00
H70    H     0.49605   0.06348   0.03941   0.00000  Uiso   1.00
H71    H     0.36977   0.95626   0.03872   0.00000  Uiso   1.00
H72    H     0.53973   0.14010   0.91893   0.00000  Uiso   1.00
H73    H     0.59322   0.07511   0.15425   0.00000  Uiso   1.00
H74    H     0.20685   0.86736   0.04787   0.00000  Uiso   1.00
H75    H     0.56522   0.25501   0.79530   0.00000  Uiso   1.00
H76    H     0.67804   0.11798   0.29153   0.00000  Uiso   1.00
H77    H     0.31947   0.29445   0.11612   0.00000  Uiso   1.00
H78    H     0.18350   0.19989   0.11964   0.00000  Uiso   1.00
H79    H     0.35345   0.38373   0.99984   0.00000  Uiso   1.00
H80    H     0.40695   0.31875   0.23517   0.00000  Uiso   1.00
H81    H     0.05566   0.06510   0.11354   0.00000  Uiso   1.00
H82    H     0.41404   0.45275   0.86097   0.00000  Uiso   1.00
H83    H     0.52685   0.31572   0.35720   0.00000  Uiso   1.00
O84    O     0.04499   0.89987   0.08161   0.00000  Uiso   1.00
O85    O     0.51518   0.40846   0.75026   0.00000  Uiso   1.00
O86    O     0.66318   0.22867   0.40130   0.00000  Uiso   1.00
N87    N     0.18993   0.92687   0.06286   0.00000  Uiso   1.00
N88    N     0.52498   0.28929   0.82672   0.00000  Uiso   1.00
N89    N     0.63047   0.16120   0.29064   0.00000  Uiso   1.00
N90    N     0.10857   0.03328   0.09820   0.00000  Uiso   1.00
N91    N     0.44363   0.39570   0.86206   0.00000  Uiso   1.00
N92    N     0.54911   0.26760   0.32598   0.00000  Uiso   1.00
C93    C     0.61639   0.04440   0.55699   0.00000  Uiso   1.00
C94    C     0.59016   0.13750   0.56726   0.00000  Uiso   1.00
C95    C     0.50884   0.17046   0.55619   0.00000  Uiso   1.00
C96    C     0.49787   0.25733   0.56851   0.00000  Uiso   1.00
C97    C     0.44681   0.39399   0.58098   0.00000  Uiso   1.00
C98    C     0.69004   0.04517   0.50216   0.00000  Uiso   1.00
C99    C     0.69270   0.00049   0.43638   0.00000  Uiso   1.00
C100   C     0.76582   0.00963   0.39391   0.00000  Uiso   1.00
C101   C     0.86986   0.00289   0.30535   0.00000  Uiso   1.00
C102   C     0.65473   0.01611   0.63002   0.00000  Uiso   1.00
C103   C     0.62771   0.94697   0.67174   0.00000  Uiso   1.00
C104   C     0.67111   0.93163   0.73691   0.00000  Uiso   1.00
C105   C     0.72032   0.87977   0.84687   0.00000  Uiso   1.00
C106   C     0.74153   0.14007   0.59855   0.00000  Uiso   1.00
C107   C     0.65813   0.18946   0.58983   0.00000  Uiso   1.00
C108   C     0.64728   0.27631   0.60217   0.00000  Uiso   1.00
C109   C     0.56596   0.30939   0.59113   0.00000  Uiso   1.00
C110   C     0.75801   0.09713   0.52473   0.00000  Uiso   1.00
C111   C     0.83115   0.10633   0.48236   0.00000  Uiso   1.00
C112   C     0.83391   0.06168   0.41652   0.00000  Uiso   1.00
C113   C     0.72270   0.06807   0.65260   0.00000  Uiso   1.00
C114   C     0.76616   0.05283   0.71772   0.00000  Uiso   1.00
C115   C     0.73921   0.98369   0.75952   0.00000  Uiso   1.00
H116   H     0.56348   0.00395   0.53941   0.00000  Uiso   1.00
H117   H     0.45626   0.13023   0.53872   0.00000  Uiso   1.00
H118   H     0.64010   0.96027   0.41893   0.00000  Uiso   1.00
H119   H     0.57511   0.90678   0.65425   0.00000  Uiso   1.00
H120   H     0.36736   0.29315   0.54787   0.00000  Uiso   1.00
H121   H     0.75501   0.93478   0.29530   0.00000  Uiso   1.00
H122   H     0.61798   0.82196   0.79153   0.00000  Uiso   1.00
H123   H     0.79445   0.18053   0.61612   0.00000  Uiso   1.00
H124   H     0.69989   0.31650   0.61964   0.00000  Uiso   1.00
H125   H     0.88373   0.14655   0.49984   0.00000  Uiso   1.00
H126   H     0.81875   0.09305   0.73517   0.00000  Uiso   1.00
H127   H     0.56510   0.44434   0.61354   0.00000  Uiso   1.00
H128   H     0.95275   0.08596   0.36097   0.00000  Uiso   1.00
H129   H     0.81572   0.97315   0.85720   0.00000  Uiso   1.00
O130   O     0.39987   0.45501   0.58161   0.00000  Uiso   1.00
O131   O     0.90846   0.98482   0.25026   0.00000  Uiso   1.00
O132   O     0.72867   0.83682   0.90130   0.00000  Uiso   1.00
N133   N     0.42687   0.31007   0.56286   0.00000  Uiso   1.00
N134   N     0.78929   0.97502   0.32672   0.00000  Uiso   1.00
N135   N     0.66120   0.86953   0.79064   0.00000  Uiso   1.00
N136   N     0.53328   0.39143   0.59820   0.00000  Uiso   1.00
N137   N     0.89570   0.05637   0.36206   0.00000  Uiso   1.00
N138   N     0.76760   0.95089   0.82598   0.00000  Uiso   1.00
C139   C     0.38361   0.95560   0.55699   0.00000  Uiso   1.00
C140   C     0.40984   0.86250   0.56726   0.00000  Uiso   1.00
C141   C     0.49116   0.82954   0.55619   0.00000  Uiso   1.00
C142   C     0.50213   0.74267   0.56851   0.00000  Uiso   1.00
C143   C     0.55319   0.60601   0.58098   0.00000  Uiso   1.00
C144   C     0.30996   0.95483   0.50216   0.00000  Uiso   1.00
C145   C     0.30730   0.99951   0.43638   0.00000  Uiso   1.00
C146   C     0.23418   0.99037   0.39391   0.00000  Uiso   1.00
C147   C     0.13014   0.99711   0.30535   0.00000  Uiso   1.00
C148   C     0.34527   0.98389   0.63002   0.00000  Uiso   1.00
C149   C     0.37229   0.05303   0.67174   0.00000  Uiso   1.00
C150   C     0.32889   0.06837   0.73691   0.00000  Uiso   1.00
C151   C     0.27968   0.12023   0.84687   0.00000  Uiso   1.00
C152   C     0.25847   0.85993   0.59855   0.00000  Uiso   1.00
C153   C     0.34187   0.81054   0.58983   0.00000  Uiso   1.00
C154   C     0.35272   0.72369   0.60217   0.00000  Uiso   1.00
C155   C     0.43404   0.69061   0.59113   0.00000  Uiso   1.00
C156   C     0.24199   0.90287   0.52473   0.00000  Uiso   1.00
C157   C     0.16885   0.89367   0.48236   0.00000  Uiso   1.00
C158   C     0.16609   0.93832   0.41652   0.00000  Uiso   1.00
C159   C     0.27730   0.93193   0.65260   0.00000  Uiso   1.00
C160   C     0.23384   0.94717   0.71772   0.00000  Uiso   1.00
C161   C     0.26079   0.01631   0.75952   0.00000  Uiso   1.00
H162   H     0.43652   0.99605   0.53941   0.00000  Uiso   1.00
H163   H     0.54374   0.86977   0.53872   0.00000  Uiso   1.00
H164   H     0.35990   0.03973   0.41893   0.00000  Uiso   1.00
H165   H     0.42489   0.09322   0.65425   0.00000  Uiso   1.00
H166   H     0.63264   0.70685   0.54787   0.00000  Uiso   1.00
H167   H     0.24499   0.06522   0.29530   0.00000  Uiso   1.00
H168   H     0.38202   0.17804   0.79153   0.00000  Uiso   1.00
H169   H     0.20555   0.81947   0.61612   0.00000  Uiso   1.00
H170   H     0.30011   0.68350   0.61964   0.00000  Uiso   1.00
H171   H     0.11627   0.85345   0.49984   0.00000  Uiso   1.00
H172   H     0.18125   0.90695   0.73517   0.00000  Uiso   1.00
H173   H     0.43490   0.55566   0.61354   0.00000  Uiso   1.00
H174   H     0.04725   0.91404   0.36097   0.00000  Uiso   1.00
H175   H     0.18428   0.02685   0.85720   0.00000  Uiso   1.00
O176   O     0.60013   0.54499   0.58161   0.00000  Uiso   1.00
O177   O     0.09154   0.01518   0.25026   0.00000  Uiso   1.00
O178   O     0.27133   0.16318   0.90130   0.00000  Uiso   1.00
N179   N     0.57313   0.68993   0.56286   0.00000  Uiso   1.00
N180   N     0.21071   0.02498   0.32672   0.00000  Uiso   1.00
N181   N     0.33880   0.13047   0.79064   0.00000  Uiso   1.00
N182   N     0.46672   0.60857   0.59820   0.00000  Uiso   1.00
N183   N     0.10430   0.94363   0.36206   0.00000  Uiso   1.00
N184   N     0.23240   0.04911   0.82598   0.00000  Uiso   1.00
C185   C     0.95560   0.61639   0.44301   0.00000  Uiso   1.00
C186   C     0.86250   0.59016   0.43274   0.00000  Uiso   1.00
C187   C     0.82954   0.50884   0.44381   0.00000  Uiso   1.00
C188   C     0.74267   0.49787   0.43149   0.00000  Uiso   1.00
C189   C     0.60601   0.44681   0.41902   0.00000  Uiso   1.00
C190   C     0.95483   0.69004   0.49784   0.00000  Uiso   1.00
C191   C     0.99951   0.69270   0.56362   0.00000  Uiso   1.00
C192   C     0.99037   0.76582   0.60609   0.00000  Uiso   1.00
C193   C     0.99711   0.86986   0.69465   0.00000  Uiso   1.00
C194   C     0.98389   0.65473   0.36998   0.00000  Uiso   1.00
C195   C     0.05303   0.62771   0.32826   0.00000  Uiso   1.00
C196   C     0.06837   0.67111   0.26309   0.00000  Uiso   1.00
C197   C     0.12023   0.72032   0.15313   0.00000  Uiso   1.00
C198   C     0.85993   0.74153   0.40145   0.00000  Uiso   1.00
C199   C     0.81054   0.65813   0.41017   0.00000  Uiso   1.00
C200   C     0.72369   0.64728   0.39783   0.00000  Uiso   1.00
C201   C     0.69061   0.56596   0.40887   0.00000  Uiso   1.00
C202   C     0.90287   0.75801   0.47527   0.00000  Uiso   1.00
C203   C     0.89367   0.83115   0.51764   0.00000  Uiso   1.00
C204   C     0.93832   0.83391   0.58348   0.00000  Uiso   1.00
C205   C     0.93193   0.72270   0.34740   0.00000  Uiso   1.00
C206   C     0.94717   0.76616   0.28228   0.00000  Uiso   1.00
C207   C     0.01631   0.73921   0.24048   0.00000  Uiso   1.00
H208   H     0.99605   0.56348   0.46059   0.00000  Uiso   1.00
H209   H     0.86977   0.45626   0.46128   0.00000  Uiso   1.00
H210   H     0.03973   0.64010   0.58107   0.00000  Uiso   1.00
H211   H     0.09322   0.57511   0.34575   0.00000  Uiso   1.00
H212   H     0.70685   0.36736   0.45213   0.00000  Uiso   1.00
H213   H     0.06522   0.75501   0.70470   0.00000  Uiso   1.00
H214   H     0.17804   0.61798   0.20847   0.00000  Uiso   1.00
H215   H     0.81947   0.79445   0.38388   0.00000  Uiso   1.00
H216   H     0.68350   0.69989   0.38036   0.00000  Uiso   1.00
H217   H     0.85345   0.88373   0.50016   0.00000  Uiso   1.00
H218   H     0.90695   0.81875   0.26483   0.00000  Uiso   1.00
H219   H     0.55566   0.56510   0.38646   0.00000  Uiso   1.00
H220   H     0.91404   0.95275   0.63903   0.00000  Uiso   1.00
H221   H     0.02685   0.81572   0.14280   0.00000  Uiso   1.00
O222   O     0.54499   0.39987   0.41839   0.00000  Uiso   1.00
O223   O     0.01518   0.90846   0.74974   0.00000  Uiso   1.00
O224   O     0.16318   0.72867   0.09870   0.00000  Uiso   1.00
N225   N     0.68993   0.42687   0.43714   0.00000  Uiso   1.00
N226   N     0.02498   0.78929   0.67328   0.00000  Uiso   1.00
N227   N     0.13047   0.66120   0.20936   0.00000  Uiso   1.00
N228   N     0.60857   0.53328   0.40180   0.00000  Uiso   1.00
N229   N     0.94363   0.89570   0.63794   0.00000  Uiso   1.00
N230   N     0.04911   0.76760   0.17402   0.00000  Uiso   1.00
C231   C     0.04440   0.38361   0.44301   0.00000  Uiso   1.00
C232   C     0.13750   0.40984   0.43274   0.00000  Uiso   1.00
C233   C     0.17046   0.49116   0.44381   0.00000  Uiso   1.00
C234   C     0.25733   0.50213   0.43149   0.00000  Uiso   1.00
C235   C     0.39399   0.55319   0.41902   0.00000  Uiso   1.00
C236   C     0.04517   0.30996   0.49784   0.00000  Uiso   1.00
C237   C     0.00049   0.30730   0.56362   0.00000  Uiso   1.00
C238   C     0.00963   0.23418   0.60609   0.00000  Uiso   1.00
C239   C     0.00289   0.13014   0.69465   0.00000  Uiso   1.00
C240   C     0.01611   0.34527   0.36998   0.00000  Uiso   1.00
C241   C     0.94697   0.37229   0.32826   0.00000  Uiso   1.00
C242   C     0.93163   0.32889   0.26309   0.00000  Uiso   1.00
C243   C     0.87977   0.27968   0.15313   0.00000  Uiso   1.00
C244   C     0.14007   0.25847   0.40145   0.00000  Uiso   1.00
C245   C     0.18946   0.34187   0.41017   0.00000  Uiso   1.00
C246   C     0.27631   0.35272   0.39783   0.00000  Uiso   1.00
C247   C     0.30939   0.43404   0.40887   0.00000  Uiso   1.00
C248   C     0.09713   0.24199   0.47527   0.00000  Uiso   1.00
C249   C     0.10633   0.16885   0.51764   0.00000  Uiso   1.00
C250   C     0.06168   0.16609   0.58348   0.00000  Uiso   1.00
C251   C     0.06807   0.27730   0.34740   0.00000  Uiso   1.00
C252   C     0.05283   0.23384   0.28228   0.00000  Uiso   1.00
C253   C     0.98369   0.26079   0.24048   0.00000  Uiso   1.00
H254   H     0.00395   0.43652   0.46059   0.00000  Uiso   1.00
H255   H     0.13023   0.54374   0.46128   0.00000  Uiso   1.00
H256   H     0.96027   0.35990   0.58107   0.00000  Uiso   1.00
H257   H     0.90678   0.42489   0.34575   0.00000  Uiso   1.00
H258   H     0.29315   0.63264   0.45213   0.00000  Uiso   1.00
H259   H     0.93478   0.24499   0.70470   0.00000  Uiso   1.00
H260   H     0.82196   0.38202   0.20847   0.00000  Uiso   1.00
H261   H     0.18053   0.20555   0.38388   0.00000  Uiso   1.00
H262   H     0.31650   0.30011   0.38036   0.00000  Uiso   1.00
H263   H     0.14655   0.11627   0.50016   0.00000  Uiso   1.00
H264   H     0.09305   0.18125   0.26483   0.00000  Uiso   1.00
H265   H     0.44434   0.43490   0.38646   0.00000  Uiso   1.00
H266   H     0.08596   0.04725   0.63903   0.00000  Uiso   1.00
H267   H     0.97315   0.18428   0.14280   0.00000  Uiso   1.00
O268   O     0.45501   0.60013   0.41839   0.00000  Uiso   1.00
O269   O     0.98482   0.09154   0.74974   0.00000  Uiso   1.00
O270   O     0.83682   0.27133   0.09870   0.00000  Uiso   1.00
N271   N     0.31007   0.57313   0.43714   0.00000  Uiso   1.00
N272   N     0.97502   0.21071   0.67328   0.00000  Uiso   1.00
N273   N     0.86953   0.33880   0.20936   0.00000  Uiso   1.00
N274   N     0.39143   0.46672   0.40180   0.00000  Uiso   1.00
N275   N     0.05637   0.10430   0.63794   0.00000  Uiso   1.00
N276   N     0.95089   0.23240   0.17402   0.00000  Uiso   1.00
C277   C     0.88361   0.45560   0.94301   0.00000  Uiso   1.00
C278   C     0.90984   0.36250   0.93274   0.00000  Uiso   1.00
C279   C     0.99116   0.32954   0.94381   0.00000  Uiso   1.00
C280   C     0.00213   0.24267   0.93149   0.00000  Uiso   1.00
C281   C     0.05319   0.10601   0.91902   0.00000  Uiso   1.00
C282   C     0.80996   0.45483   0.99784   0.00000  Uiso   1.00
C283   C     0.80730   0.49951   0.06362   0.00000  Uiso   1.00
C284   C     0.73418   0.49037   0.10609   0.00000  Uiso   1.00
C285   C     0.63014   0.49711   0.19465   0.00000  Uiso   1.00
C286   C     0.84527   0.48389   0.86998   0.00000  Uiso   1.00
C287   C     0.87229   0.55303   0.82826   0.00000  Uiso   1.00
C288   C     0.82889   0.56837   0.76309   0.00000  Uiso   1.00
C289   C     0.77968   0.62023   0.65313   0.00000  Uiso   1.00
C290   C     0.75847   0.35993   0.90145   0.00000  Uiso   1.00
C291   C     0.84187   0.31054   0.91017   0.00000  Uiso   1.00
C292   C     0.85272   0.22369   0.89783   0.00000  Uiso   1.00
C293   C     0.93404   0.19061   0.90887   0.00000  Uiso   1.00
C294   C     0.74199   0.40287   0.97527   0.00000  Uiso   1.00
C295   C     0.66885   0.39367   0.01764   0.00000  Uiso   1.00
C296   C     0.66609   0.43832   0.08348   0.00000  Uiso   1.00
C297   C     0.77730   0.43193   0.84740   0.00000  Uiso   1.00
C298   C     0.73384   0.44717   0.78228   0.00000  Uiso   1.00
C299   C     0.76079   0.51631   0.74048   0.00000  Uiso   1.00
H300   H     0.93652   0.49605   0.96059   0.00000  Uiso   1.00
H301   H     0.04374   0.36977   0.96128   0.00000  Uiso   1.00
H302   H     0.85990   0.53973   0.08107   0.00000  Uiso   1.00
H303   H     0.92489   0.59322   0.84575   0.00000  Uiso   1.00
H304   H     0.13264   0.20685   0.95213   0.00000  Uiso   1.00
H305   H     0.74499   0.56522   0.20470   0.00000  Uiso   1.00
H306   H     0.88202   0.67804   0.70847   0.00000  Uiso   1.00
H307   H     0.70555   0.31947   0.88388   0.00000  Uiso   1.00
H308   H     0.80011   0.18350   0.88036   0.00000  Uiso   1.00
H309   H     0.61627   0.35345   0.00016   0.00000  Uiso   1.00
H310   H     0.68125   0.40695   0.76483   0.00000  Uiso   1.00
H311   H     0.93490   0.05566   0.88646   0.00000  Uiso   1.00
H312   H     0.54725   0.41404   0.13903   0.00000  Uiso   1.00
H313   H     0.68428   0.52685   0.64280   0.00000  Uiso   1.00
O314   O     0.10013   0.04499   0.91839   0.00000  Uiso   1.00
O315   O     0.59154   0.51518   0.24974   0.00000  Uiso   1.00
O316   O     0.77133   0.66318   0.59870   0.00000  Uiso   1.00
N317   N     0.07313   0.18993   0.93714   0.00000  Uiso   1.00
N318   N     0.71071   0.52498   0.17328   0.00000  Uiso   1.00
N319   N     0.83880   0.63047   0.70936   0.00000  Uiso   1.00
N320   N     0.96672   0.10857   0.90180   0.00000  Uiso   1.00
N321   N     0.60430   0.44363   0.13794   0.00000  Uiso   1.00
N322   N     0.73240   0.54911   0.67402   0.00000  Uiso   1.00
C323   C     0.11639   0.54440   0.94301   0.00000  Uiso   1.00
C324   C     0.09016   0.63750   0.93274   0.00000  Uiso   1.00
C325   C     0.00884   0.67046   0.94381   0.00000  Uiso   1.00
C326   C     0.99787   0.75733   0.93149   0.00000  Uiso   1.00
C327   C     0.94681   0.89399   0.91902   0.00000  Uiso   1.00
C328   C     0.19004   0.54517   0.99784   0.00000  Uiso   1.00
C329   C     0.19270   0.50049   0.06362   0.00000  Uiso   1.00
C330   C     0.26582   0.50963   0.10609   0.00000  Uiso   1.00
C331   C     0.36986   0.50289   0.19465   0.00000  Uiso   1.00
C332   C     0.15473   0.51611   0.86998   0.00000  Uiso   1.00
C333   C     0.12771   0.44697   0.82826   0.00000  Uiso   1.00
C334   C     0.17111   0.43163   0.76309   0.00000  Uiso   1.00
C335   C     0.22032   0.37977   0.65313   0.00000  Uiso   1.00
C336   C     0.24153   0.64007   0.90145   0.00000  Uiso   1.00
C337   C     0.15813   0.68946   0.91017   0.00000  Uiso   1.00
C338   C     0.14728   0.77631   0.89783   0.00000  Uiso   1.00
C339   C     0.06596   0.80939   0.90887   0.00000  Uiso   1.00
C340   C     0.25801   0.59713   0.97527   0.00000  Uiso   1.00
C341   C     0.33115   0.60633   0.01764   0.00000  Uiso   1.00
C342   C     0.33391   0.56168   0.08348   0.00000  Uiso   1.00
C343   C     0.22270   0.56807   0.84740   0.00000  Uiso   1.00
C344   C     0.26616   0.55283   0.78228   0.00000  Uiso   1.00
C345   C     0.23921   0.48369   0.74048   0.00000  Uiso   1.00
H346   H     0.06348   0.50395   0.96059   0.00000  Uiso   1.00
H347   H     0.95626   0.63023   0.96128   0.00000  Uiso   1.00
H348   H     0.14010   0.46027   0.08107   0.00000  Uiso   1.00
H349   H     0.07511   0.40678   0.84575   0.00000  Uiso   1.00
H350   H     0.86736   0.79315   0.95213   0.00000  Uiso   1.00
H351   H     0.25501   0.43478   0.20470   0.00000  Uiso   1.00
H352   H     0.11798   0.32196   0.70847   0.00000  Uiso   1.00
H353   H     0.29445   0.68053   0.88388   0.00000  Uiso   1.00
H354   H     0.19989   0.81650   0.88036   0.00000  Uiso   1.00
H355   H     0.38373   0.64655   0.00016   0.00000  Uiso   1.00
H356   H     0.31875   0.59305   0.76483   0.00000  Uiso   1.00
H357   H     0.06510   0.94434   0.88646   0.00000  Uiso   1.00
H358   H     0.45275   0.58596   0.13903   0.00000  Uiso   1.00
H359   H     0.31572   0.47315   0.64280   0.00000  Uiso   1.00
O360   O     0.89987   0.95501   0.91839   0.00000  Uiso   1.00
O361   O     0.40846   0.48482   0.24974   0.00000  Uiso   1.00
O362   O     0.22867   0.33682   0.59870   0.00000  Uiso   1.00
N363   N     0.92687   0.81007   0.93714   0.00000  Uiso   1.00
N364   N     0.28929   0.47502   0.17328   0.00000  Uiso   1.00
N365   N     0.16120   0.36953   0.70936   0.00000  Uiso   1.00
N366   N     0.03328   0.89143   0.90180   0.00000  Uiso   1.00
N367   N     0.39570   0.55637   0.13794   0.00000  Uiso   1.00
N368   N     0.26760   0.45089   0.67402   0.00000  Uiso   1.00
