data_job_01270
_audit_creation_date              2018-12-19
_audit_creation_method            'Materials Studio'
_symmetry_space_group_name_H-M    'P1'
_symmetry_Int_Tables_number       1
_symmetry_cell_setting            triclinic
loop_
_symmetry_equiv_pos_as_xyz
  x,y,z
_cell_length_a                    21.6619
_cell_length_b                    13.3576
_cell_length_c                    23.8289
_cell_angle_alpha                 90.0000
_cell_angle_beta                  90.0000
_cell_angle_gamma                 90.0000
loop_
_atom_site_label
_atom_site_type_symbol
_atom_site_fract_x
_atom_site_fract_y
_atom_site_fract_z
_atom_site_U_iso_or_equiv
_atom_site_adp_type
_atom_site_occupancy
C1     C     0.12292   0.38658   0.82529   0.00000  Uiso   1.00
C2     C     0.07642   0.47230   0.82519   0.00000  Uiso   1.00
C3     C     0.01267   0.46216   0.82547   0.00000  Uiso   1.00
C4     C     0.97814   0.54973   0.82530   0.00000  Uiso   1.00
C5     C     0.90164   0.66848   0.82518   0.00000  Uiso   1.00
C6     C     0.16376   0.40266   0.77395   0.00000  Uiso   1.00
C7     C     0.17345   0.33395   0.73116   0.00000  Uiso   1.00
C8     C     0.21246   0.36290   0.68787   0.00000  Uiso   1.00
C9     C     0.27159   0.37351   0.60822   0.00000  Uiso   1.00
C10    C     0.16426   0.40373   0.87619   0.00000  Uiso   1.00
C11    C     0.17437   0.33592   0.91935   0.00000  Uiso   1.00
C12    C     0.21381   0.36577   0.96213   0.00000  Uiso   1.00
C13    C     0.27371   0.37804   0.04122   0.00000  Uiso   1.00
C14    C     0.17499   0.56015   0.82451   0.00000  Uiso   1.00
C15    C     0.10471   0.56657   0.82476   0.00000  Uiso   1.00
C16    C     0.07028   0.65418   0.82460   0.00000  Uiso   1.00
C17    C     0.00648   0.64417   0.82488   0.00000  Uiso   1.00
C18    C     0.19205   0.49693   0.77353   0.00000  Uiso   1.00
C19    C     0.23106   0.52598   0.73029   0.00000  Uiso   1.00
C20    C     0.24079   0.45735   0.68744   0.00000  Uiso   1.00
C21    C     0.19254   0.49801   0.87577   0.00000  Uiso   1.00
C22    C     0.23198   0.52796   0.91848   0.00000  Uiso   1.00
C23    C     0.24214   0.46021   0.96170   0.00000  Uiso   1.00
H24    H     0.10090   0.31319   0.82562   0.00000  Uiso   1.00
H25    H     0.99079   0.38918   0.82579   0.00000  Uiso   1.00
H26    H     0.15156   0.26100   0.73150   0.00000  Uiso   1.00
H27    H     0.15248   0.26298   0.91966   0.00000  Uiso   1.00
H28    H     0.88119   0.51502   0.82577   0.00000  Uiso   1.00
H29    H     0.22018   0.24473   0.62697   0.00000  Uiso   1.00
H30    H     0.22212   0.24888   0.02374   0.00000  Uiso   1.00
H31    H     0.19701   0.63354   0.82418   0.00000  Uiso   1.00
H32    H     0.09218   0.72713   0.82427   0.00000  Uiso   1.00
H33    H     0.25294   0.59894   0.72998   0.00000  Uiso   1.00
H34    H     0.25386   0.60091   0.91814   0.00000  Uiso   1.00
H35    H     0.96348   0.78931   0.82453   0.00000  Uiso   1.00
H36    H     0.30247   0.51901   0.62573   0.00000  Uiso   1.00
H37    H     0.30441   0.52317   0.02251   0.00000  Uiso   1.00
O38    O     0.85163   0.70794   0.82522   0.00000  Uiso   1.00
O39    O     0.29639   0.35332   0.56441   0.00000  Uiso   1.00
O40    O     0.29893   0.35878   0.08496   0.00000  Uiso   1.00
N41    N     0.91494   0.56673   0.82548   0.00000  Uiso   1.00
N42    N     0.23187   0.31403   0.63960   0.00000  Uiso   1.00
N43    N     0.23370   0.31790   0.01055   0.00000  Uiso   1.00
N44    N     0.95922   0.71432   0.82481   0.00000  Uiso   1.00
N45    N     0.27615   0.46162   0.63894   0.00000  Uiso   1.00
N46    N     0.27798   0.46549   0.00988   0.00000  Uiso   1.00
C47    C     0.37708   0.11342   0.32529   0.00000  Uiso   1.00
C48    C     0.42358   0.02770   0.32519   0.00000  Uiso   1.00
C49    C     0.48733   0.03784   0.32547   0.00000  Uiso   1.00
C50    C     0.52186   0.95027   0.32530   0.00000  Uiso   1.00
C51    C     0.59836   0.83152   0.32518   0.00000  Uiso   1.00
C52    C     0.33624   0.09734   0.27395   0.00000  Uiso   1.00
C53    C     0.32655   0.16605   0.23116   0.00000  Uiso   1.00
C54    C     0.28754   0.13710   0.18787   0.00000  Uiso   1.00
C55    C     0.22841   0.12649   0.10822   0.00000  Uiso   1.00
C56    C     0.33574   0.09627   0.37619   0.00000  Uiso   1.00
C57    C     0.32563   0.16408   0.41935   0.00000  Uiso   1.00
C58    C     0.28619   0.13423   0.46213   0.00000  Uiso   1.00
C59    C     0.22629   0.12196   0.54122   0.00000  Uiso   1.00
C60    C     0.32501   0.93985   0.32451   0.00000  Uiso   1.00
C61    C     0.39529   0.93343   0.32476   0.00000  Uiso   1.00
C62    C     0.42972   0.84582   0.32460   0.00000  Uiso   1.00
C63    C     0.49352   0.85583   0.32488   0.00000  Uiso   1.00
C64    C     0.30795   0.00307   0.27353   0.00000  Uiso   1.00
C65    C     0.26894   0.97402   0.23029   0.00000  Uiso   1.00
C66    C     0.25921   0.04265   0.18744   0.00000  Uiso   1.00
C67    C     0.30746   0.00199   0.37577   0.00000  Uiso   1.00
C68    C     0.26802   0.97204   0.41848   0.00000  Uiso   1.00
C69    C     0.25786   0.03979   0.46170   0.00000  Uiso   1.00
H70    H     0.39910   0.18681   0.32562   0.00000  Uiso   1.00
H71    H     0.50921   0.11082   0.32579   0.00000  Uiso   1.00
H72    H     0.34844   0.23900   0.23150   0.00000  Uiso   1.00
H73    H     0.34752   0.23702   0.41966   0.00000  Uiso   1.00
H74    H     0.61881   0.98498   0.32577   0.00000  Uiso   1.00
H75    H     0.27982   0.25527   0.12697   0.00000  Uiso   1.00
H76    H     0.27788   0.25112   0.52374   0.00000  Uiso   1.00
H77    H     0.30299   0.86646   0.32418   0.00000  Uiso   1.00
H78    H     0.40782   0.77287   0.32427   0.00000  Uiso   1.00
H79    H     0.24706   0.90106   0.22998   0.00000  Uiso   1.00
H80    H     0.24614   0.89909   0.41814   0.00000  Uiso   1.00
H81    H     0.53652   0.71069   0.32453   0.00000  Uiso   1.00
H82    H     0.19753   0.98099   0.12573   0.00000  Uiso   1.00
H83    H     0.19559   0.97683   0.52251   0.00000  Uiso   1.00
O84    O     0.64837   0.79206   0.32522   0.00000  Uiso   1.00
O85    O     0.20361   0.14668   0.06441   0.00000  Uiso   1.00
O86    O     0.20107   0.14122   0.58496   0.00000  Uiso   1.00
N87    N     0.58506   0.93327   0.32548   0.00000  Uiso   1.00
N88    N     0.26813   0.18597   0.13960   0.00000  Uiso   1.00
N89    N     0.26630   0.18210   0.51055   0.00000  Uiso   1.00
N90    N     0.54078   0.78568   0.32481   0.00000  Uiso   1.00
N91    N     0.22385   0.03838   0.13894   0.00000  Uiso   1.00
N92    N     0.22202   0.03451   0.50988   0.00000  Uiso   1.00
C93    C     0.87708   0.38658   0.67471   0.00000  Uiso   1.00
C94    C     0.92358   0.47230   0.67481   0.00000  Uiso   1.00
C95    C     0.98733   0.46216   0.67453   0.00000  Uiso   1.00
C96    C     0.02186   0.54973   0.67470   0.00000  Uiso   1.00
C97    C     0.09836   0.66848   0.67482   0.00000  Uiso   1.00
C98    C     0.83624   0.40266   0.72605   0.00000  Uiso   1.00
C99    C     0.82655   0.33395   0.76884   0.00000  Uiso   1.00
C100   C     0.78754   0.36290   0.81213   0.00000  Uiso   1.00
C101   C     0.72841   0.37351   0.89178   0.00000  Uiso   1.00
C102   C     0.83574   0.40373   0.62381   0.00000  Uiso   1.00
C103   C     0.82563   0.33592   0.58065   0.00000  Uiso   1.00
C104   C     0.78619   0.36577   0.53787   0.00000  Uiso   1.00
C105   C     0.72629   0.37804   0.45878   0.00000  Uiso   1.00
C106   C     0.82501   0.56015   0.67549   0.00000  Uiso   1.00
C107   C     0.89529   0.56657   0.67524   0.00000  Uiso   1.00
C108   C     0.92972   0.65418   0.67540   0.00000  Uiso   1.00
C109   C     0.99352   0.64417   0.67512   0.00000  Uiso   1.00
C110   C     0.80795   0.49693   0.72647   0.00000  Uiso   1.00
C111   C     0.76894   0.52598   0.76971   0.00000  Uiso   1.00
C112   C     0.75921   0.45735   0.81256   0.00000  Uiso   1.00
C113   C     0.80746   0.49801   0.62423   0.00000  Uiso   1.00
C114   C     0.76802   0.52796   0.58152   0.00000  Uiso   1.00
C115   C     0.75786   0.46021   0.53830   0.00000  Uiso   1.00
H116   H     0.89910   0.31319   0.67438   0.00000  Uiso   1.00
H117   H     0.00921   0.38918   0.67421   0.00000  Uiso   1.00
H118   H     0.84844   0.26100   0.76850   0.00000  Uiso   1.00
H119   H     0.84752   0.26298   0.58034   0.00000  Uiso   1.00
H120   H     0.11881   0.51502   0.67423   0.00000  Uiso   1.00
H121   H     0.77982   0.24473   0.87303   0.00000  Uiso   1.00
H122   H     0.77788   0.24888   0.47626   0.00000  Uiso   1.00
H123   H     0.80299   0.63354   0.67582   0.00000  Uiso   1.00
H124   H     0.90782   0.72713   0.67573   0.00000  Uiso   1.00
H125   H     0.74706   0.59894   0.77002   0.00000  Uiso   1.00
H126   H     0.74614   0.60091   0.58186   0.00000  Uiso   1.00
H127   H     0.03652   0.78931   0.67547   0.00000  Uiso   1.00
H128   H     0.69753   0.51901   0.87427   0.00000  Uiso   1.00
H129   H     0.69559   0.52317   0.47749   0.00000  Uiso   1.00
O130   O     0.14837   0.70794   0.67478   0.00000  Uiso   1.00
O131   O     0.70361   0.35332   0.93559   0.00000  Uiso   1.00
O132   O     0.70107   0.35878   0.41504   0.00000  Uiso   1.00
N133   N     0.08506   0.56673   0.67452   0.00000  Uiso   1.00
N134   N     0.76813   0.31403   0.86040   0.00000  Uiso   1.00
N135   N     0.76630   0.31790   0.48945   0.00000  Uiso   1.00
N136   N     0.04078   0.71432   0.67519   0.00000  Uiso   1.00
N137   N     0.72385   0.46162   0.86106   0.00000  Uiso   1.00
N138   N     0.72202   0.46549   0.49012   0.00000  Uiso   1.00
C139   C     0.62292   0.11342   0.17471   0.00000  Uiso   1.00
C140   C     0.57642   0.02770   0.17481   0.00000  Uiso   1.00
C141   C     0.51267   0.03784   0.17453   0.00000  Uiso   1.00
C142   C     0.47814   0.95027   0.17470   0.00000  Uiso   1.00
C143   C     0.40164   0.83152   0.17482   0.00000  Uiso   1.00
C144   C     0.66376   0.09734   0.22605   0.00000  Uiso   1.00
C145   C     0.67345   0.16605   0.26884   0.00000  Uiso   1.00
C146   C     0.71246   0.13710   0.31213   0.00000  Uiso   1.00
C147   C     0.77159   0.12649   0.39178   0.00000  Uiso   1.00
C148   C     0.66426   0.09627   0.12381   0.00000  Uiso   1.00
C149   C     0.67437   0.16408   0.08065   0.00000  Uiso   1.00
C150   C     0.71381   0.13423   0.03787   0.00000  Uiso   1.00
C151   C     0.77371   0.12196   0.95878   0.00000  Uiso   1.00
C152   C     0.67499   0.93985   0.17549   0.00000  Uiso   1.00
C153   C     0.60471   0.93343   0.17524   0.00000  Uiso   1.00
C154   C     0.57028   0.84582   0.17540   0.00000  Uiso   1.00
C155   C     0.50648   0.85583   0.17512   0.00000  Uiso   1.00
C156   C     0.69205   0.00307   0.22647   0.00000  Uiso   1.00
C157   C     0.73106   0.97402   0.26971   0.00000  Uiso   1.00
C158   C     0.74079   0.04265   0.31256   0.00000  Uiso   1.00
C159   C     0.69254   0.00199   0.12423   0.00000  Uiso   1.00
C160   C     0.73198   0.97204   0.08152   0.00000  Uiso   1.00
C161   C     0.74214   0.03979   0.03830   0.00000  Uiso   1.00
H162   H     0.60090   0.18681   0.17438   0.00000  Uiso   1.00
H163   H     0.49079   0.11082   0.17421   0.00000  Uiso   1.00
H164   H     0.65156   0.23900   0.26850   0.00000  Uiso   1.00
H165   H     0.65248   0.23702   0.08034   0.00000  Uiso   1.00
H166   H     0.38119   0.98498   0.17423   0.00000  Uiso   1.00
H167   H     0.72018   0.25527   0.37303   0.00000  Uiso   1.00
H168   H     0.72212   0.25112   0.97626   0.00000  Uiso   1.00
H169   H     0.69701   0.86646   0.17582   0.00000  Uiso   1.00
H170   H     0.59218   0.77287   0.17573   0.00000  Uiso   1.00
H171   H     0.75294   0.90106   0.27002   0.00000  Uiso   1.00
H172   H     0.75386   0.89909   0.08186   0.00000  Uiso   1.00
H173   H     0.46348   0.71069   0.17547   0.00000  Uiso   1.00
H174   H     0.80247   0.98099   0.37427   0.00000  Uiso   1.00
H175   H     0.80441   0.97683   0.97749   0.00000  Uiso   1.00
O176   O     0.35163   0.79206   0.17478   0.00000  Uiso   1.00
O177   O     0.79639   0.14668   0.43559   0.00000  Uiso   1.00
O178   O     0.79893   0.14122   0.91504   0.00000  Uiso   1.00
N179   N     0.41494   0.93327   0.17452   0.00000  Uiso   1.00
N180   N     0.73187   0.18597   0.36040   0.00000  Uiso   1.00
N181   N     0.73370   0.18210   0.98945   0.00000  Uiso   1.00
N182   N     0.45922   0.78568   0.17519   0.00000  Uiso   1.00
N183   N     0.77615   0.03838   0.36106   0.00000  Uiso   1.00
N184   N     0.77798   0.03451   0.99012   0.00000  Uiso   1.00
C185   C     0.87708   0.61342   0.17471   0.00000  Uiso   1.00
C186   C     0.92358   0.52770   0.17481   0.00000  Uiso   1.00
C187   C     0.98733   0.53784   0.17453   0.00000  Uiso   1.00
C188   C     0.02186   0.45027   0.17470   0.00000  Uiso   1.00
C189   C     0.09836   0.33152   0.17482   0.00000  Uiso   1.00
C190   C     0.83624   0.59734   0.22605   0.00000  Uiso   1.00
C191   C     0.82655   0.66605   0.26884   0.00000  Uiso   1.00
C192   C     0.78754   0.63710   0.31213   0.00000  Uiso   1.00
C193   C     0.72841   0.62649   0.39178   0.00000  Uiso   1.00
C194   C     0.83574   0.59627   0.12381   0.00000  Uiso   1.00
C195   C     0.82563   0.66408   0.08065   0.00000  Uiso   1.00
C196   C     0.78619   0.63423   0.03787   0.00000  Uiso   1.00
C197   C     0.72629   0.62196   0.95878   0.00000  Uiso   1.00
C198   C     0.82501   0.43985   0.17549   0.00000  Uiso   1.00
C199   C     0.89529   0.43343   0.17524   0.00000  Uiso   1.00
C200   C     0.92972   0.34582   0.17540   0.00000  Uiso   1.00
C201   C     0.99352   0.35583   0.17512   0.00000  Uiso   1.00
C202   C     0.80795   0.50307   0.22647   0.00000  Uiso   1.00
C203   C     0.76894   0.47402   0.26971   0.00000  Uiso   1.00
C204   C     0.75921   0.54265   0.31256   0.00000  Uiso   1.00
C205   C     0.80746   0.50199   0.12423   0.00000  Uiso   1.00
C206   C     0.76802   0.47204   0.08152   0.00000  Uiso   1.00
C207   C     0.75786   0.53979   0.03830   0.00000  Uiso   1.00
H208   H     0.89910   0.68681   0.17438   0.00000  Uiso   1.00
H209   H     0.00921   0.61082   0.17421   0.00000  Uiso   1.00
H210   H     0.84844   0.73900   0.26850   0.00000  Uiso   1.00
H211   H     0.84752   0.73702   0.08034   0.00000  Uiso   1.00
H212   H     0.11881   0.48498   0.17423   0.00000  Uiso   1.00
H213   H     0.77982   0.75527   0.37303   0.00000  Uiso   1.00
H214   H     0.77788   0.75112   0.97626   0.00000  Uiso   1.00
H215   H     0.80299   0.36646   0.17582   0.00000  Uiso   1.00
H216   H     0.90782   0.27287   0.17573   0.00000  Uiso   1.00
H217   H     0.74706   0.40106   0.27002   0.00000  Uiso   1.00
H218   H     0.74614   0.39909   0.08186   0.00000  Uiso   1.00
H219   H     0.03652   0.21069   0.17547   0.00000  Uiso   1.00
H220   H     0.69753   0.48099   0.37427   0.00000  Uiso   1.00
H221   H     0.69559   0.47683   0.97749   0.00000  Uiso   1.00
O222   O     0.14837   0.29206   0.17478   0.00000  Uiso   1.00
O223   O     0.70361   0.64668   0.43559   0.00000  Uiso   1.00
O224   O     0.70107   0.64122   0.91504   0.00000  Uiso   1.00
N225   N     0.08506   0.43327   0.17452   0.00000  Uiso   1.00
N226   N     0.76813   0.68597   0.36040   0.00000  Uiso   1.00
N227   N     0.76630   0.68210   0.98945   0.00000  Uiso   1.00
N228   N     0.04078   0.28568   0.17519   0.00000  Uiso   1.00
N229   N     0.72385   0.53838   0.36106   0.00000  Uiso   1.00
N230   N     0.72202   0.53451   0.99012   0.00000  Uiso   1.00
C231   C     0.62292   0.88658   0.67471   0.00000  Uiso   1.00
C232   C     0.57642   0.97230   0.67481   0.00000  Uiso   1.00
C233   C     0.51267   0.96216   0.67453   0.00000  Uiso   1.00
C234   C     0.47814   0.04973   0.67470   0.00000  Uiso   1.00
C235   C     0.40164   0.16848   0.67482   0.00000  Uiso   1.00
C236   C     0.66376   0.90266   0.72605   0.00000  Uiso   1.00
C237   C     0.67345   0.83395   0.76884   0.00000  Uiso   1.00
C238   C     0.71246   0.86290   0.81213   0.00000  Uiso   1.00
C239   C     0.77159   0.87351   0.89178   0.00000  Uiso   1.00
C240   C     0.66426   0.90373   0.62381   0.00000  Uiso   1.00
C241   C     0.67437   0.83592   0.58065   0.00000  Uiso   1.00
C242   C     0.71381   0.86577   0.53787   0.00000  Uiso   1.00
C243   C     0.77371   0.87804   0.45878   0.00000  Uiso   1.00
C244   C     0.67499   0.06015   0.67549   0.00000  Uiso   1.00
C245   C     0.60471   0.06657   0.67524   0.00000  Uiso   1.00
C246   C     0.57028   0.15418   0.67540   0.00000  Uiso   1.00
C247   C     0.50648   0.14417   0.67512   0.00000  Uiso   1.00
C248   C     0.69205   0.99693   0.72647   0.00000  Uiso   1.00
C249   C     0.73106   0.02598   0.76971   0.00000  Uiso   1.00
C250   C     0.74079   0.95735   0.81256   0.00000  Uiso   1.00
C251   C     0.69254   0.99801   0.62423   0.00000  Uiso   1.00
C252   C     0.73198   0.02796   0.58152   0.00000  Uiso   1.00
C253   C     0.74214   0.96021   0.53830   0.00000  Uiso   1.00
H254   H     0.60090   0.81319   0.67438   0.00000  Uiso   1.00
H255   H     0.49079   0.88918   0.67421   0.00000  Uiso   1.00
H256   H     0.65156   0.76100   0.76850   0.00000  Uiso   1.00
H257   H     0.65248   0.76298   0.58034   0.00000  Uiso   1.00
H258   H     0.38119   0.01502   0.67423   0.00000  Uiso   1.00
H259   H     0.72018   0.74473   0.87303   0.00000  Uiso   1.00
H260   H     0.72212   0.74888   0.47626   0.00000  Uiso   1.00
H261   H     0.69701   0.13354   0.67582   0.00000  Uiso   1.00
H262   H     0.59218   0.22713   0.67573   0.00000  Uiso   1.00
H263   H     0.75294   0.09894   0.77002   0.00000  Uiso   1.00
H264   H     0.75386   0.10091   0.58186   0.00000  Uiso   1.00
H265   H     0.46348   0.28931   0.67547   0.00000  Uiso   1.00
H266   H     0.80247   0.01901   0.87427   0.00000  Uiso   1.00
H267   H     0.80441   0.02317   0.47749   0.00000  Uiso   1.00
O268   O     0.35163   0.20794   0.67478   0.00000  Uiso   1.00
O269   O     0.79639   0.85332   0.93559   0.00000  Uiso   1.00
O270   O     0.79893   0.85878   0.41504   0.00000  Uiso   1.00
N271   N     0.41494   0.06673   0.67452   0.00000  Uiso   1.00
N272   N     0.73187   0.81403   0.86040   0.00000  Uiso   1.00
N273   N     0.73370   0.81790   0.48945   0.00000  Uiso   1.00
N274   N     0.45922   0.21432   0.67519   0.00000  Uiso   1.00
N275   N     0.77615   0.96162   0.86106   0.00000  Uiso   1.00
N276   N     0.77798   0.96549   0.49012   0.00000  Uiso   1.00
C277   C     0.12292   0.61342   0.32529   0.00000  Uiso   1.00
C278   C     0.07642   0.52770   0.32519   0.00000  Uiso   1.00
C279   C     0.01267   0.53784   0.32547   0.00000  Uiso   1.00
C280   C     0.97814   0.45027   0.32530   0.00000  Uiso   1.00
C281   C     0.90164   0.33152   0.32518   0.00000  Uiso   1.00
C282   C     0.16376   0.59734   0.27395   0.00000  Uiso   1.00
C283   C     0.17345   0.66605   0.23116   0.00000  Uiso   1.00
C284   C     0.21246   0.63710   0.18787   0.00000  Uiso   1.00
C285   C     0.27159   0.62649   0.10822   0.00000  Uiso   1.00
C286   C     0.16426   0.59627   0.37619   0.00000  Uiso   1.00
C287   C     0.17437   0.66408   0.41935   0.00000  Uiso   1.00
C288   C     0.21381   0.63423   0.46213   0.00000  Uiso   1.00
C289   C     0.27371   0.62196   0.54122   0.00000  Uiso   1.00
C290   C     0.17499   0.43985   0.32451   0.00000  Uiso   1.00
C291   C     0.10471   0.43343   0.32476   0.00000  Uiso   1.00
C292   C     0.07028   0.34582   0.32460   0.00000  Uiso   1.00
C293   C     0.00648   0.35583   0.32488   0.00000  Uiso   1.00
C294   C     0.19205   0.50307   0.27353   0.00000  Uiso   1.00
C295   C     0.23106   0.47402   0.23029   0.00000  Uiso   1.00
C296   C     0.24079   0.54265   0.18744   0.00000  Uiso   1.00
C297   C     0.19254   0.50199   0.37577   0.00000  Uiso   1.00
C298   C     0.23198   0.47204   0.41848   0.00000  Uiso   1.00
C299   C     0.24214   0.53979   0.46170   0.00000  Uiso   1.00
H300   H     0.10090   0.68681   0.32562   0.00000  Uiso   1.00
H301   H     0.99079   0.61082   0.32579   0.00000  Uiso   1.00
H302   H     0.15156   0.73900   0.23150   0.00000  Uiso   1.00
H303   H     0.15248   0.73702   0.41966   0.00000  Uiso   1.00
H304   H     0.88119   0.48498   0.32577   0.00000  Uiso   1.00
H305   H     0.22018   0.75527   0.12697   0.00000  Uiso   1.00
H306   H     0.22212   0.75112   0.52374   0.00000  Uiso   1.00
H307   H     0.19701   0.36646   0.32418   0.00000  Uiso   1.00
H308   H     0.09218   0.27287   0.32427   0.00000  Uiso   1.00
H309   H     0.25294   0.40106   0.22998   0.00000  Uiso   1.00
H310   H     0.25386   0.39909   0.41814   0.00000  Uiso   1.00
H311   H     0.96348   0.21069   0.32453   0.00000  Uiso   1.00
H312   H     0.30247   0.48099   0.12573   0.00000  Uiso   1.00
H313   H     0.30441   0.47683   0.52251   0.00000  Uiso   1.00
O314   O     0.85163   0.29206   0.32522   0.00000  Uiso   1.00
O315   O     0.29639   0.64668   0.06441   0.00000  Uiso   1.00
O316   O     0.29893   0.64122   0.58496   0.00000  Uiso   1.00
N317   N     0.91494   0.43327   0.32548   0.00000  Uiso   1.00
N318   N     0.23187   0.68597   0.13960   0.00000  Uiso   1.00
N319   N     0.23370   0.68210   0.51055   0.00000  Uiso   1.00
N320   N     0.95922   0.28568   0.32481   0.00000  Uiso   1.00
N321   N     0.27615   0.53838   0.13894   0.00000  Uiso   1.00
N322   N     0.27798   0.53451   0.50988   0.00000  Uiso   1.00
C323   C     0.37708   0.88658   0.82529   0.00000  Uiso   1.00
C324   C     0.42358   0.97230   0.82519   0.00000  Uiso   1.00
C325   C     0.48733   0.96216   0.82547   0.00000  Uiso   1.00
C326   C     0.52186   0.04973   0.82530   0.00000  Uiso   1.00
C327   C     0.59836   0.16848   0.82518   0.00000  Uiso   1.00
C328   C     0.33624   0.90266   0.77395   0.00000  Uiso   1.00
C329   C     0.32655   0.83395   0.73116   0.00000  Uiso   1.00
C330   C     0.28754   0.86290   0.68787   0.00000  Uiso   1.00
C331   C     0.22841   0.87351   0.60822   0.00000  Uiso   1.00
C332   C     0.33574   0.90373   0.87619   0.00000  Uiso   1.00
C333   C     0.32563   0.83592   0.91935   0.00000  Uiso   1.00
C334   C     0.28619   0.86577   0.96213   0.00000  Uiso   1.00
C335   C     0.22629   0.87804   0.04122   0.00000  Uiso   1.00
C336   C     0.32501   0.06015   0.82451   0.00000  Uiso   1.00
C337   C     0.39529   0.06657   0.82476   0.00000  Uiso   1.00
C338   C     0.42972   0.15418   0.82460   0.00000  Uiso   1.00
C339   C     0.49352   0.14417   0.82488   0.00000  Uiso   1.00
C340   C     0.30795   0.99693   0.77353   0.00000  Uiso   1.00
C341   C     0.26894   0.02598   0.73029   0.00000  Uiso   1.00
C342   C     0.25921   0.95735   0.68744   0.00000  Uiso   1.00
C343   C     0.30746   0.99801   0.87577   0.00000  Uiso   1.00
C344   C     0.26802   0.02796   0.91848   0.00000  Uiso   1.00
C345   C     0.25786   0.96021   0.96170   0.00000  Uiso   1.00
H346   H     0.39910   0.81319   0.82562   0.00000  Uiso   1.00
H347   H     0.50921   0.88918   0.82579   0.00000  Uiso   1.00
H348   H     0.34844   0.76100   0.73150   0.00000  Uiso   1.00
H349   H     0.34752   0.76298   0.91966   0.00000  Uiso   1.00
H350   H     0.61881   0.01502   0.82577   0.00000  Uiso   1.00
H351   H     0.27982   0.74473   0.62697   0.00000  Uiso   1.00
H352   H     0.27788   0.74888   0.02374   0.00000  Uiso   1.00
H353   H     0.30299   0.13354   0.82418   0.00000  Uiso   1.00
H354   H     0.40782   0.22713   0.82427   0.00000  Uiso   1.00
H355   H     0.24706   0.09894   0.72998   0.00000  Uiso   1.00
H356   H     0.24614   0.10091   0.91814   0.00000  Uiso   1.00
H357   H     0.53652   0.28931   0.82453   0.00000  Uiso   1.00
H358   H     0.19753   0.01901   0.62573   0.00000  Uiso   1.00
H359   H     0.19559   0.02317   0.02251   0.00000  Uiso   1.00
O360   O     0.64837   0.20794   0.82522   0.00000  Uiso   1.00
O361   O     0.20361   0.85332   0.56441   0.00000  Uiso   1.00
O362   O     0.20107   0.85878   0.08496   0.00000  Uiso   1.00
N363   N     0.58506   0.06673   0.82548   0.00000  Uiso   1.00
N364   N     0.26813   0.81403   0.63960   0.00000  Uiso   1.00
N365   N     0.26630   0.81790   0.01055   0.00000  Uiso   1.00
N366   N     0.54078   0.21432   0.82481   0.00000  Uiso   1.00
N367   N     0.22385   0.96162   0.63894   0.00000  Uiso   1.00
N368   N     0.22202   0.96549   0.00988   0.00000  Uiso   1.00
