data_job_02758
_audit_creation_date              2018-12-19
_audit_creation_method            'Materials Studio'
_symmetry_space_group_name_H-M    'P1'
_symmetry_Int_Tables_number       1
_symmetry_cell_setting            triclinic
loop_
_symmetry_equiv_pos_as_xyz
  x,y,z
_cell_length_a                    16.8151
_cell_length_b                    12.0663
_cell_length_c                    31.7385
_cell_angle_alpha                 90.0000
_cell_angle_beta                  138.8455
_cell_angle_gamma                 90.0000
loop_
_atom_site_label
_atom_site_type_symbol
_atom_site_fract_x
_atom_site_fract_y
_atom_site_fract_z
_atom_site_U_iso_or_equiv
_atom_site_adp_type
_atom_site_occupancy
C1     C     0.76866   0.97291   0.82036   0.00000  Uiso   1.00
C2     C     0.88274   0.04346   0.86322   0.00000  Uiso   1.00
C3     C     0.91065   0.13254   0.90024   0.00000  Uiso   1.00
C4     C     0.01943   0.18637   0.93614   0.00000  Uiso   1.00
C5     C     0.18467   0.30115   0.00284   0.00000  Uiso   1.00
C6     C     0.71021   0.97861   0.75358   0.00000  Uiso   1.00
C7     C     0.59305   0.01315   0.69842   0.00000  Uiso   1.00
C8     C     0.55659   0.01237   0.64202   0.00000  Uiso   1.00
C9     C     0.45395   0.02638   0.53851   0.00000  Uiso   1.00
C10    C     0.81141   0.85362   0.84283   0.00000  Uiso   1.00
C11    C     0.77931   0.78304   0.86269   0.00000  Uiso   1.00
C12    C     0.82804   0.67702   0.88142   0.00000  Uiso   1.00
C13    C     0.88253   0.49697   0.91647   0.00000  Uiso   1.00
C14    C     0.91223   0.91009   0.81827   0.00000  Uiso   1.00
C15    C     0.96072   0.00934   0.86209   0.00000  Uiso   1.00
C16    C     0.06949   0.06305   0.89794   0.00000  Uiso   1.00
C17    C     0.09755   0.15219   0.93501   0.00000  Uiso   1.00
C18    C     0.78819   0.94449   0.75245   0.00000  Uiso   1.00
C19    C     0.75189   0.94365   0.69612   0.00000  Uiso   1.00
C20    C     0.63471   0.97819   0.64089   0.00000  Uiso   1.00
C21    C     0.88940   0.81950   0.84170   0.00000  Uiso   1.00
C22    C     0.93817   0.71356   0.86039   0.00000  Uiso   1.00
C23    C     0.90616   0.64284   0.88028   0.00000  Uiso   1.00
H24    H     0.70794   0.99947   0.82123   0.00000  Uiso   1.00
H25    H     0.85027   0.15892   0.90110   0.00000  Uiso   1.00
H26    H     0.53272   0.03953   0.69931   0.00000  Uiso   1.00
H27    H     0.71897   0.80948   0.86356   0.00000  Uiso   1.00
H28    H     0.04243   0.32069   0.98913   0.00000  Uiso   1.00
H29    H     0.37285   0.06892   0.56365   0.00000  Uiso   1.00
H30    H     0.76558   0.58379   0.90999   0.00000  Uiso   1.00
H31    H     0.97295   0.88353   0.81739   0.00000  Uiso   1.00
H32    H     0.12982   0.03663   0.89705   0.00000  Uiso   1.00
H33    H     0.81226   0.91724   0.69526   0.00000  Uiso   1.00
H34    H     0.99851   0.68718   0.85951   0.00000  Uiso   1.00
H35    H     0.26932   0.22143   0.98584   0.00000  Uiso   1.00
H36    H     0.59973   0.96966   0.56035   0.00000  Uiso   1.00
H37    H     0.99247   0.48453   0.90670   0.00000  Uiso   1.00
O38    O     0.25427   0.37389   0.03994   0.00000  Uiso   1.00
O39    O     0.37579   0.04355   0.48172   0.00000  Uiso   1.00
O40    O     0.89106   0.40708   0.93612   0.00000  Uiso   1.00
N41    N     0.07431   0.27631   0.97744   0.00000  Uiso   1.00
N42    N     0.44829   0.04093   0.57963   0.00000  Uiso   1.00
N43    N     0.81544   0.58737   0.90342   0.00000  Uiso   1.00
N44    N     0.19640   0.22290   0.97567   0.00000  Uiso   1.00
N45    N     0.57038   0.98752   0.57786   0.00000  Uiso   1.00
N46    N     0.93753   0.53396   0.90165   0.00000  Uiso   1.00
C47    C     0.23134   0.47291   0.67964   0.00000  Uiso   1.00
C48    C     0.11726   0.54346   0.63678   0.00000  Uiso   1.00
C49    C     0.08935   0.63254   0.59976   0.00000  Uiso   1.00
C50    C     0.98057   0.68637   0.56386   0.00000  Uiso   1.00
C51    C     0.81533   0.80115   0.49716   0.00000  Uiso   1.00
C52    C     0.28979   0.47861   0.74642   0.00000  Uiso   1.00
C53    C     0.40695   0.51315   0.80158   0.00000  Uiso   1.00
C54    C     0.44341   0.51237   0.85798   0.00000  Uiso   1.00
C55    C     0.54605   0.52638   0.96149   0.00000  Uiso   1.00
C56    C     0.18859   0.35362   0.65717   0.00000  Uiso   1.00
C57    C     0.22069   0.28304   0.63731   0.00000  Uiso   1.00
C58    C     0.17196   0.17702   0.61858   0.00000  Uiso   1.00
C59    C     0.11747   0.99697   0.58353   0.00000  Uiso   1.00
C60    C     0.08777   0.41009   0.68173   0.00000  Uiso   1.00
C61    C     0.03928   0.50934   0.63791   0.00000  Uiso   1.00
C62    C     0.93051   0.56305   0.60206   0.00000  Uiso   1.00
C63    C     0.90245   0.65219   0.56499   0.00000  Uiso   1.00
C64    C     0.21181   0.44449   0.74755   0.00000  Uiso   1.00
C65    C     0.24811   0.44365   0.80388   0.00000  Uiso   1.00
C66    C     0.36529   0.47819   0.85911   0.00000  Uiso   1.00
C67    C     0.11060   0.31950   0.65830   0.00000  Uiso   1.00
C68    C     0.06183   0.21356   0.63961   0.00000  Uiso   1.00
C69    C     0.09384   0.14284   0.61972   0.00000  Uiso   1.00
H70    H     0.29206   0.49947   0.67877   0.00000  Uiso   1.00
H71    H     0.14973   0.65892   0.59890   0.00000  Uiso   1.00
H72    H     0.46728   0.53953   0.80069   0.00000  Uiso   1.00
H73    H     0.28103   0.30948   0.63644   0.00000  Uiso   1.00
H74    H     0.95757   0.82069   0.51087   0.00000  Uiso   1.00
H75    H     0.62715   0.56892   0.93635   0.00000  Uiso   1.00
H76    H     0.23442   0.08379   0.59001   0.00000  Uiso   1.00
H77    H     0.02705   0.38353   0.68261   0.00000  Uiso   1.00
H78    H     0.87018   0.53663   0.60295   0.00000  Uiso   1.00
H79    H     0.18774   0.41724   0.80474   0.00000  Uiso   1.00
H80    H     0.00149   0.18718   0.64049   0.00000  Uiso   1.00
H81    H     0.73068   0.72143   0.51416   0.00000  Uiso   1.00
H82    H     0.40027   0.46966   0.93965   0.00000  Uiso   1.00
H83    H     0.00753   0.98453   0.59330   0.00000  Uiso   1.00
O84    O     0.74573   0.87389   0.46006   0.00000  Uiso   1.00
O85    O     0.62421   0.54355   0.01828   0.00000  Uiso   1.00
O86    O     0.10894   0.90708   0.56388   0.00000  Uiso   1.00
N87    N     0.92569   0.77631   0.52256   0.00000  Uiso   1.00
N88    N     0.55171   0.54093   0.92037   0.00000  Uiso   1.00
N89    N     0.18456   0.08737   0.59658   0.00000  Uiso   1.00
N90    N     0.80360   0.72290   0.52433   0.00000  Uiso   1.00
N91    N     0.42962   0.48752   0.92214   0.00000  Uiso   1.00
N92    N     0.06247   0.03396   0.59835   0.00000  Uiso   1.00
C93    C     0.23134   0.02709   0.17964   0.00000  Uiso   1.00
C94    C     0.11726   0.95654   0.13678   0.00000  Uiso   1.00
C95    C     0.08935   0.86746   0.09976   0.00000  Uiso   1.00
C96    C     0.98057   0.81363   0.06386   0.00000  Uiso   1.00
C97    C     0.81533   0.69885   0.99716   0.00000  Uiso   1.00
C98    C     0.28979   0.02139   0.24642   0.00000  Uiso   1.00
C99    C     0.40695   0.98685   0.30158   0.00000  Uiso   1.00
C100   C     0.44341   0.98763   0.35798   0.00000  Uiso   1.00
C101   C     0.54605   0.97362   0.46149   0.00000  Uiso   1.00
C102   C     0.18859   0.14638   0.15717   0.00000  Uiso   1.00
C103   C     0.22069   0.21696   0.13731   0.00000  Uiso   1.00
C104   C     0.17196   0.32298   0.11858   0.00000  Uiso   1.00
C105   C     0.11747   0.50303   0.08353   0.00000  Uiso   1.00
C106   C     0.08777   0.08991   0.18173   0.00000  Uiso   1.00
C107   C     0.03928   0.99066   0.13791   0.00000  Uiso   1.00
C108   C     0.93051   0.93695   0.10206   0.00000  Uiso   1.00
C109   C     0.90245   0.84781   0.06499   0.00000  Uiso   1.00
C110   C     0.21181   0.05551   0.24755   0.00000  Uiso   1.00
C111   C     0.24811   0.05635   0.30388   0.00000  Uiso   1.00
C112   C     0.36529   0.02181   0.35911   0.00000  Uiso   1.00
C113   C     0.11060   0.18050   0.15830   0.00000  Uiso   1.00
C114   C     0.06183   0.28644   0.13961   0.00000  Uiso   1.00
C115   C     0.09384   0.35716   0.11972   0.00000  Uiso   1.00
H116   H     0.29206   0.00053   0.17877   0.00000  Uiso   1.00
H117   H     0.14973   0.84108   0.09890   0.00000  Uiso   1.00
H118   H     0.46728   0.96047   0.30069   0.00000  Uiso   1.00
H119   H     0.28103   0.19052   0.13644   0.00000  Uiso   1.00
H120   H     0.95757   0.67931   0.01087   0.00000  Uiso   1.00
H121   H     0.62715   0.93108   0.43635   0.00000  Uiso   1.00
H122   H     0.23442   0.41621   0.09001   0.00000  Uiso   1.00
H123   H     0.02705   0.11647   0.18261   0.00000  Uiso   1.00
H124   H     0.87018   0.96337   0.10295   0.00000  Uiso   1.00
H125   H     0.18774   0.08276   0.30474   0.00000  Uiso   1.00
H126   H     0.00149   0.31282   0.14049   0.00000  Uiso   1.00
H127   H     0.73068   0.77857   0.01416   0.00000  Uiso   1.00
H128   H     0.40027   0.03034   0.43965   0.00000  Uiso   1.00
H129   H     0.00753   0.51547   0.09330   0.00000  Uiso   1.00
O130   O     0.74573   0.62611   0.96006   0.00000  Uiso   1.00
O131   O     0.62421   0.95645   0.51828   0.00000  Uiso   1.00
O132   O     0.10894   0.59292   0.06388   0.00000  Uiso   1.00
N133   N     0.92569   0.72369   0.02256   0.00000  Uiso   1.00
N134   N     0.55171   0.95907   0.42037   0.00000  Uiso   1.00
N135   N     0.18456   0.41263   0.09658   0.00000  Uiso   1.00
N136   N     0.80360   0.77710   0.02433   0.00000  Uiso   1.00
N137   N     0.42962   0.01248   0.42214   0.00000  Uiso   1.00
N138   N     0.06247   0.46604   0.09835   0.00000  Uiso   1.00
C139   C     0.76866   0.52709   0.32036   0.00000  Uiso   1.00
C140   C     0.88274   0.45654   0.36322   0.00000  Uiso   1.00
C141   C     0.91065   0.36746   0.40024   0.00000  Uiso   1.00
C142   C     0.01943   0.31363   0.43614   0.00000  Uiso   1.00
C143   C     0.18467   0.19885   0.50284   0.00000  Uiso   1.00
C144   C     0.71021   0.52139   0.25358   0.00000  Uiso   1.00
C145   C     0.59305   0.48685   0.19842   0.00000  Uiso   1.00
C146   C     0.55659   0.48763   0.14202   0.00000  Uiso   1.00
C147   C     0.45395   0.47362   0.03851   0.00000  Uiso   1.00
C148   C     0.81141   0.64638   0.34283   0.00000  Uiso   1.00
C149   C     0.77931   0.71696   0.36269   0.00000  Uiso   1.00
C150   C     0.82804   0.82298   0.38142   0.00000  Uiso   1.00
C151   C     0.88253   0.00303   0.41647   0.00000  Uiso   1.00
C152   C     0.91223   0.58991   0.31827   0.00000  Uiso   1.00
C153   C     0.96072   0.49066   0.36209   0.00000  Uiso   1.00
C154   C     0.06949   0.43695   0.39794   0.00000  Uiso   1.00
C155   C     0.09755   0.34781   0.43501   0.00000  Uiso   1.00
C156   C     0.78819   0.55551   0.25245   0.00000  Uiso   1.00
C157   C     0.75189   0.55635   0.19612   0.00000  Uiso   1.00
C158   C     0.63471   0.52181   0.14089   0.00000  Uiso   1.00
C159   C     0.88940   0.68050   0.34170   0.00000  Uiso   1.00
C160   C     0.93817   0.78644   0.36039   0.00000  Uiso   1.00
C161   C     0.90616   0.85716   0.38028   0.00000  Uiso   1.00
H162   H     0.70794   0.50053   0.32123   0.00000  Uiso   1.00
H163   H     0.85027   0.34108   0.40110   0.00000  Uiso   1.00
H164   H     0.53272   0.46047   0.19931   0.00000  Uiso   1.00
H165   H     0.71897   0.69052   0.36356   0.00000  Uiso   1.00
H166   H     0.04243   0.17931   0.48913   0.00000  Uiso   1.00
H167   H     0.37285   0.43108   0.06365   0.00000  Uiso   1.00
H168   H     0.76558   0.91621   0.40999   0.00000  Uiso   1.00
H169   H     0.97295   0.61647   0.31739   0.00000  Uiso   1.00
H170   H     0.12982   0.46337   0.39705   0.00000  Uiso   1.00
H171   H     0.81226   0.58276   0.19526   0.00000  Uiso   1.00
H172   H     0.99851   0.81282   0.35951   0.00000  Uiso   1.00
H173   H     0.26932   0.27857   0.48584   0.00000  Uiso   1.00
H174   H     0.59973   0.53034   0.06035   0.00000  Uiso   1.00
H175   H     0.99247   0.01547   0.40670   0.00000  Uiso   1.00
O176   O     0.25427   0.12611   0.53994   0.00000  Uiso   1.00
O177   O     0.37579   0.45645   0.98172   0.00000  Uiso   1.00
O178   O     0.89106   0.09292   0.43612   0.00000  Uiso   1.00
N179   N     0.07431   0.22369   0.47744   0.00000  Uiso   1.00
N180   N     0.44829   0.45907   0.07963   0.00000  Uiso   1.00
N181   N     0.81544   0.91263   0.40342   0.00000  Uiso   1.00
N182   N     0.19640   0.27710   0.47567   0.00000  Uiso   1.00
N183   N     0.57038   0.51248   0.07786   0.00000  Uiso   1.00
N184   N     0.93753   0.96604   0.40165   0.00000  Uiso   1.00
