data_job_01491
_audit_creation_date              2018-12-19
_audit_creation_method            'Materials Studio'
_symmetry_space_group_name_H-M    'P1'
_symmetry_Int_Tables_number       1
_symmetry_cell_setting            triclinic
loop_
_symmetry_equiv_pos_as_xyz
  x,y,z
_cell_length_a                    11.5755
_cell_length_b                    20.1698
_cell_length_c                    24.2846
_cell_angle_alpha                 90.0000
_cell_angle_beta                  79.0379
_cell_angle_gamma                 90.0000
loop_
_atom_site_label
_atom_site_type_symbol
_atom_site_fract_x
_atom_site_fract_y
_atom_site_fract_z
_atom_site_U_iso_or_equiv
_atom_site_adp_type
_atom_site_occupancy
C1     C     0.76976   0.04980   0.35782   0.00000  Uiso   1.00
C2     C     0.75808   0.99165   0.31912   0.00000  Uiso   1.00
C3     C     0.68044   0.98797   0.28216   0.00000  Uiso   1.00
C4     C     0.68330   0.93053   0.25042   0.00000  Uiso   1.00
C5     C     0.65328   0.84811   0.18958   0.00000  Uiso   1.00
C6     C     0.75089   0.02122   0.41699   0.00000  Uiso   1.00
C7     C     0.66722   0.04240   0.46230   0.00000  Uiso   1.00
C8     C     0.66404   0.00986   0.51295   0.00000  Uiso   1.00
C9     C     0.62293   0.97337   0.60405   0.00000  Uiso   1.00
C10    C     0.89840   0.07112   0.34378   0.00000  Uiso   1.00
C11    C     0.93877   0.13427   0.32755   0.00000  Uiso   1.00
C12    C     0.05979   0.14374   0.31657   0.00000  Uiso   1.00
C13    C     0.24770   0.18474   0.29400   0.00000  Uiso   1.00
C14    C     0.91289   0.95434   0.36720   0.00000  Uiso   1.00
C15    C     0.83581   0.93980   0.32422   0.00000  Uiso   1.00
C16    C     0.83879   0.88235   0.29253   0.00000  Uiso   1.00
C17    C     0.76118   0.87859   0.25552   0.00000  Uiso   1.00
C18    C     0.82862   0.96937   0.42208   0.00000  Uiso   1.00
C19    C     0.82557   0.93678   0.47267   0.00000  Uiso   1.00
C20    C     0.74192   0.95791   0.51805   0.00000  Uiso   1.00
C21    C     0.97614   0.01927   0.34887   0.00000  Uiso   1.00
C22    C     0.09712   0.02865   0.33792   0.00000  Uiso   1.00
C23    C     0.13767   0.09180   0.32167   0.00000  Uiso   1.00
H24    H     0.70924   0.09017   0.35386   0.00000  Uiso   1.00
H25    H     0.62029   0.02811   0.27823   0.00000  Uiso   1.00
H26    H     0.60708   0.08254   0.45835   0.00000  Uiso   1.00
H27    H     0.87859   0.17438   0.32361   0.00000  Uiso   1.00
H28    H     0.55592   0.93642   0.19664   0.00000  Uiso   1.00
H29    H     0.52810   0.05120   0.57644   0.00000  Uiso   1.00
H30    H     0.10062   0.24488   0.29232   0.00000  Uiso   1.00
H31    H     0.97341   0.91397   0.37116   0.00000  Uiso   1.00
H32    H     0.89896   0.84223   0.29648   0.00000  Uiso   1.00
H33    H     0.88575   0.89666   0.47660   0.00000  Uiso   1.00
H34    H     0.15725   0.98851   0.34186   0.00000  Uiso   1.00
H35    H     0.78210   0.78556   0.21146   0.00000  Uiso   1.00
H36    H     0.75428   0.90034   0.59125   0.00000  Uiso   1.00
H37    H     0.32680   0.09402   0.30713   0.00000  Uiso   1.00
O38    O     0.61524   0.81697   0.15462   0.00000  Uiso   1.00
O39    O     0.57876   0.96756   0.65290   0.00000  Uiso   1.00
O40    O     0.32988   0.22167   0.28014   0.00000  Uiso   1.00
N41    N     0.61939   0.91076   0.21037   0.00000  Uiso   1.00
N42    N     0.59337   0.01807   0.56545   0.00000  Uiso   1.00
N43    N     0.12862   0.19915   0.29984   0.00000  Uiso   1.00
N44    N     0.74109   0.82959   0.21834   0.00000  Uiso   1.00
N45    N     0.71507   0.93689   0.57342   0.00000  Uiso   1.00
N46    N     0.25033   0.11797   0.30781   0.00000  Uiso   1.00
C47    C     0.26976   0.54980   0.35782   0.00000  Uiso   1.00
C48    C     0.25808   0.49165   0.31912   0.00000  Uiso   1.00
C49    C     0.18044   0.48797   0.28216   0.00000  Uiso   1.00
C50    C     0.18330   0.43053   0.25042   0.00000  Uiso   1.00
C51    C     0.15328   0.34811   0.18958   0.00000  Uiso   1.00
C52    C     0.25089   0.52122   0.41699   0.00000  Uiso   1.00
C53    C     0.16722   0.54240   0.46230   0.00000  Uiso   1.00
C54    C     0.16404   0.50986   0.51295   0.00000  Uiso   1.00
C55    C     0.12293   0.47337   0.60405   0.00000  Uiso   1.00
C56    C     0.39840   0.57112   0.34378   0.00000  Uiso   1.00
C57    C     0.43877   0.63427   0.32755   0.00000  Uiso   1.00
C58    C     0.55979   0.64374   0.31657   0.00000  Uiso   1.00
C59    C     0.74770   0.68474   0.29400   0.00000  Uiso   1.00
C60    C     0.41289   0.45434   0.36720   0.00000  Uiso   1.00
C61    C     0.33581   0.43980   0.32422   0.00000  Uiso   1.00
C62    C     0.33879   0.38235   0.29253   0.00000  Uiso   1.00
C63    C     0.26118   0.37859   0.25552   0.00000  Uiso   1.00
C64    C     0.32862   0.46937   0.42208   0.00000  Uiso   1.00
C65    C     0.32557   0.43678   0.47267   0.00000  Uiso   1.00
C66    C     0.24192   0.45791   0.51805   0.00000  Uiso   1.00
C67    C     0.47614   0.51927   0.34887   0.00000  Uiso   1.00
C68    C     0.59712   0.52865   0.33792   0.00000  Uiso   1.00
C69    C     0.63767   0.59180   0.32167   0.00000  Uiso   1.00
H70    H     0.20924   0.59017   0.35386   0.00000  Uiso   1.00
H71    H     0.12029   0.52811   0.27823   0.00000  Uiso   1.00
H72    H     0.10708   0.58254   0.45835   0.00000  Uiso   1.00
H73    H     0.37859   0.67438   0.32361   0.00000  Uiso   1.00
H74    H     0.05592   0.43642   0.19664   0.00000  Uiso   1.00
H75    H     0.02810   0.55120   0.57644   0.00000  Uiso   1.00
H76    H     0.60062   0.74488   0.29232   0.00000  Uiso   1.00
H77    H     0.47341   0.41397   0.37116   0.00000  Uiso   1.00
H78    H     0.39896   0.34223   0.29648   0.00000  Uiso   1.00
H79    H     0.38575   0.39666   0.47660   0.00000  Uiso   1.00
H80    H     0.65725   0.48851   0.34186   0.00000  Uiso   1.00
H81    H     0.28210   0.28556   0.21146   0.00000  Uiso   1.00
H82    H     0.25428   0.40034   0.59125   0.00000  Uiso   1.00
H83    H     0.82680   0.59402   0.30713   0.00000  Uiso   1.00
O84    O     0.11524   0.31697   0.15462   0.00000  Uiso   1.00
O85    O     0.07876   0.46756   0.65290   0.00000  Uiso   1.00
O86    O     0.82988   0.72167   0.28014   0.00000  Uiso   1.00
N87    N     0.11939   0.41076   0.21037   0.00000  Uiso   1.00
N88    N     0.09337   0.51807   0.56545   0.00000  Uiso   1.00
N89    N     0.62862   0.69915   0.29984   0.00000  Uiso   1.00
N90    N     0.24109   0.32959   0.21834   0.00000  Uiso   1.00
N91    N     0.21507   0.43689   0.57342   0.00000  Uiso   1.00
N92    N     0.75033   0.61797   0.30781   0.00000  Uiso   1.00
C93    C     0.23024   0.04980   0.14218   0.00000  Uiso   1.00
C94    C     0.24192   0.99165   0.18088   0.00000  Uiso   1.00
C95    C     0.31956   0.98797   0.21784   0.00000  Uiso   1.00
C96    C     0.31670   0.93053   0.24958   0.00000  Uiso   1.00
C97    C     0.34672   0.84811   0.31042   0.00000  Uiso   1.00
C98    C     0.24911   0.02122   0.08301   0.00000  Uiso   1.00
C99    C     0.33278   0.04240   0.03770   0.00000  Uiso   1.00
C100   C     0.33596   0.00986   0.98705   0.00000  Uiso   1.00
C101   C     0.37707   0.97337   0.89595   0.00000  Uiso   1.00
C102   C     0.10160   0.07112   0.15622   0.00000  Uiso   1.00
C103   C     0.06123   0.13427   0.17245   0.00000  Uiso   1.00
C104   C     0.94021   0.14374   0.18343   0.00000  Uiso   1.00
C105   C     0.75230   0.18474   0.20600   0.00000  Uiso   1.00
C106   C     0.08711   0.95434   0.13280   0.00000  Uiso   1.00
C107   C     0.16419   0.93980   0.17578   0.00000  Uiso   1.00
C108   C     0.16121   0.88235   0.20747   0.00000  Uiso   1.00
C109   C     0.23882   0.87859   0.24448   0.00000  Uiso   1.00
C110   C     0.17138   0.96937   0.07792   0.00000  Uiso   1.00
C111   C     0.17443   0.93678   0.02733   0.00000  Uiso   1.00
C112   C     0.25808   0.95791   0.98195   0.00000  Uiso   1.00
C113   C     0.02386   0.01927   0.15113   0.00000  Uiso   1.00
C114   C     0.90288   0.02865   0.16208   0.00000  Uiso   1.00
C115   C     0.86233   0.09180   0.17833   0.00000  Uiso   1.00
H116   H     0.29076   0.09017   0.14614   0.00000  Uiso   1.00
H117   H     0.37971   0.02811   0.22177   0.00000  Uiso   1.00
H118   H     0.39292   0.08254   0.04165   0.00000  Uiso   1.00
H119   H     0.12141   0.17438   0.17639   0.00000  Uiso   1.00
H120   H     0.44408   0.93642   0.30336   0.00000  Uiso   1.00
H121   H     0.47190   0.05120   0.92356   0.00000  Uiso   1.00
H122   H     0.89938   0.24488   0.20768   0.00000  Uiso   1.00
H123   H     0.02659   0.91397   0.12884   0.00000  Uiso   1.00
H124   H     0.10104   0.84223   0.20352   0.00000  Uiso   1.00
H125   H     0.11425   0.89666   0.02340   0.00000  Uiso   1.00
H126   H     0.84275   0.98851   0.15814   0.00000  Uiso   1.00
H127   H     0.21790   0.78556   0.28854   0.00000  Uiso   1.00
H128   H     0.24572   0.90034   0.90875   0.00000  Uiso   1.00
H129   H     0.67320   0.09402   0.19287   0.00000  Uiso   1.00
O130   O     0.38476   0.81697   0.34538   0.00000  Uiso   1.00
O131   O     0.42124   0.96756   0.84710   0.00000  Uiso   1.00
O132   O     0.67012   0.22167   0.21986   0.00000  Uiso   1.00
N133   N     0.38061   0.91076   0.28963   0.00000  Uiso   1.00
N134   N     0.40663   0.01807   0.93455   0.00000  Uiso   1.00
N135   N     0.87138   0.19915   0.20016   0.00000  Uiso   1.00
N136   N     0.25891   0.82959   0.28166   0.00000  Uiso   1.00
N137   N     0.28493   0.93689   0.92658   0.00000  Uiso   1.00
N138   N     0.74967   0.11797   0.19219   0.00000  Uiso   1.00
C139   C     0.73024   0.54980   0.14218   0.00000  Uiso   1.00
C140   C     0.74192   0.49165   0.18088   0.00000  Uiso   1.00
C141   C     0.81956   0.48797   0.21784   0.00000  Uiso   1.00
C142   C     0.81670   0.43053   0.24958   0.00000  Uiso   1.00
C143   C     0.84672   0.34811   0.31042   0.00000  Uiso   1.00
C144   C     0.74911   0.52122   0.08301   0.00000  Uiso   1.00
C145   C     0.83278   0.54240   0.03770   0.00000  Uiso   1.00
C146   C     0.83596   0.50986   0.98705   0.00000  Uiso   1.00
C147   C     0.87707   0.47337   0.89595   0.00000  Uiso   1.00
C148   C     0.60160   0.57112   0.15622   0.00000  Uiso   1.00
C149   C     0.56123   0.63427   0.17245   0.00000  Uiso   1.00
C150   C     0.44021   0.64374   0.18343   0.00000  Uiso   1.00
C151   C     0.25230   0.68474   0.20600   0.00000  Uiso   1.00
C152   C     0.58711   0.45434   0.13280   0.00000  Uiso   1.00
C153   C     0.66419   0.43980   0.17578   0.00000  Uiso   1.00
C154   C     0.66121   0.38235   0.20747   0.00000  Uiso   1.00
C155   C     0.73882   0.37859   0.24448   0.00000  Uiso   1.00
C156   C     0.67138   0.46937   0.07792   0.00000  Uiso   1.00
C157   C     0.67443   0.43678   0.02733   0.00000  Uiso   1.00
C158   C     0.75808   0.45791   0.98195   0.00000  Uiso   1.00
C159   C     0.52386   0.51927   0.15113   0.00000  Uiso   1.00
C160   C     0.40288   0.52865   0.16208   0.00000  Uiso   1.00
C161   C     0.36233   0.59180   0.17833   0.00000  Uiso   1.00
H162   H     0.79076   0.59017   0.14614   0.00000  Uiso   1.00
H163   H     0.87971   0.52811   0.22177   0.00000  Uiso   1.00
H164   H     0.89292   0.58254   0.04165   0.00000  Uiso   1.00
H165   H     0.62141   0.67438   0.17639   0.00000  Uiso   1.00
H166   H     0.94408   0.43642   0.30336   0.00000  Uiso   1.00
H167   H     0.97190   0.55120   0.92356   0.00000  Uiso   1.00
H168   H     0.39938   0.74488   0.20768   0.00000  Uiso   1.00
H169   H     0.52659   0.41397   0.12884   0.00000  Uiso   1.00
H170   H     0.60104   0.34223   0.20352   0.00000  Uiso   1.00
H171   H     0.61425   0.39666   0.02340   0.00000  Uiso   1.00
H172   H     0.34275   0.48851   0.15814   0.00000  Uiso   1.00
H173   H     0.71790   0.28556   0.28854   0.00000  Uiso   1.00
H174   H     0.74572   0.40034   0.90875   0.00000  Uiso   1.00
H175   H     0.17320   0.59402   0.19287   0.00000  Uiso   1.00
O176   O     0.88476   0.31697   0.34538   0.00000  Uiso   1.00
O177   O     0.92124   0.46756   0.84710   0.00000  Uiso   1.00
O178   O     0.17012   0.72167   0.21986   0.00000  Uiso   1.00
N179   N     0.88061   0.41076   0.28963   0.00000  Uiso   1.00
N180   N     0.90663   0.51807   0.93455   0.00000  Uiso   1.00
N181   N     0.37138   0.69915   0.20016   0.00000  Uiso   1.00
N182   N     0.75891   0.32959   0.28166   0.00000  Uiso   1.00
N183   N     0.78493   0.43689   0.92658   0.00000  Uiso   1.00
N184   N     0.24967   0.61797   0.19219   0.00000  Uiso   1.00
C185   C     0.23024   0.95020   0.64218   0.00000  Uiso   1.00
C186   C     0.24192   0.00835   0.68088   0.00000  Uiso   1.00
C187   C     0.31956   0.01203   0.71784   0.00000  Uiso   1.00
C188   C     0.31670   0.06947   0.74958   0.00000  Uiso   1.00
C189   C     0.34672   0.15189   0.81042   0.00000  Uiso   1.00
C190   C     0.24911   0.97878   0.58301   0.00000  Uiso   1.00
C191   C     0.33278   0.95760   0.53770   0.00000  Uiso   1.00
C192   C     0.33596   0.99014   0.48705   0.00000  Uiso   1.00
C193   C     0.37707   0.02663   0.39595   0.00000  Uiso   1.00
C194   C     0.10160   0.92888   0.65622   0.00000  Uiso   1.00
C195   C     0.06123   0.86573   0.67245   0.00000  Uiso   1.00
C196   C     0.94021   0.85626   0.68343   0.00000  Uiso   1.00
C197   C     0.75230   0.81526   0.70600   0.00000  Uiso   1.00
C198   C     0.08711   0.04566   0.63280   0.00000  Uiso   1.00
C199   C     0.16419   0.06020   0.67578   0.00000  Uiso   1.00
C200   C     0.16121   0.11765   0.70747   0.00000  Uiso   1.00
C201   C     0.23882   0.12141   0.74448   0.00000  Uiso   1.00
C202   C     0.17138   0.03063   0.57792   0.00000  Uiso   1.00
C203   C     0.17443   0.06322   0.52733   0.00000  Uiso   1.00
C204   C     0.25808   0.04209   0.48195   0.00000  Uiso   1.00
C205   C     0.02386   0.98073   0.65113   0.00000  Uiso   1.00
C206   C     0.90288   0.97135   0.66208   0.00000  Uiso   1.00
C207   C     0.86233   0.90820   0.67833   0.00000  Uiso   1.00
H208   H     0.29076   0.90983   0.64614   0.00000  Uiso   1.00
H209   H     0.37971   0.97189   0.72177   0.00000  Uiso   1.00
H210   H     0.39292   0.91746   0.54165   0.00000  Uiso   1.00
H211   H     0.12141   0.82562   0.67639   0.00000  Uiso   1.00
H212   H     0.44408   0.06358   0.80336   0.00000  Uiso   1.00
H213   H     0.47190   0.94880   0.42356   0.00000  Uiso   1.00
H214   H     0.89938   0.75512   0.70768   0.00000  Uiso   1.00
H215   H     0.02659   0.08603   0.62884   0.00000  Uiso   1.00
H216   H     0.10104   0.15777   0.70352   0.00000  Uiso   1.00
H217   H     0.11425   0.10334   0.52340   0.00000  Uiso   1.00
H218   H     0.84275   0.01149   0.65814   0.00000  Uiso   1.00
H219   H     0.21790   0.21444   0.78854   0.00000  Uiso   1.00
H220   H     0.24572   0.09966   0.40875   0.00000  Uiso   1.00
H221   H     0.67320   0.90598   0.69287   0.00000  Uiso   1.00
O222   O     0.38476   0.18303   0.84538   0.00000  Uiso   1.00
O223   O     0.42124   0.03244   0.34710   0.00000  Uiso   1.00
O224   O     0.67012   0.77833   0.71986   0.00000  Uiso   1.00
N225   N     0.38061   0.08924   0.78963   0.00000  Uiso   1.00
N226   N     0.40663   0.98193   0.43455   0.00000  Uiso   1.00
N227   N     0.87138   0.80085   0.70016   0.00000  Uiso   1.00
N228   N     0.25891   0.17041   0.78166   0.00000  Uiso   1.00
N229   N     0.28493   0.06311   0.42658   0.00000  Uiso   1.00
N230   N     0.74967   0.88203   0.69219   0.00000  Uiso   1.00
C231   C     0.73024   0.45020   0.64218   0.00000  Uiso   1.00
C232   C     0.74192   0.50835   0.68088   0.00000  Uiso   1.00
C233   C     0.81956   0.51203   0.71784   0.00000  Uiso   1.00
C234   C     0.81670   0.56947   0.74958   0.00000  Uiso   1.00
C235   C     0.84672   0.65189   0.81042   0.00000  Uiso   1.00
C236   C     0.74911   0.47878   0.58301   0.00000  Uiso   1.00
C237   C     0.83278   0.45760   0.53770   0.00000  Uiso   1.00
C238   C     0.83596   0.49014   0.48705   0.00000  Uiso   1.00
C239   C     0.87707   0.52663   0.39595   0.00000  Uiso   1.00
C240   C     0.60160   0.42888   0.65622   0.00000  Uiso   1.00
C241   C     0.56123   0.36573   0.67245   0.00000  Uiso   1.00
C242   C     0.44021   0.35626   0.68343   0.00000  Uiso   1.00
C243   C     0.25230   0.31526   0.70600   0.00000  Uiso   1.00
C244   C     0.58711   0.54566   0.63280   0.00000  Uiso   1.00
C245   C     0.66419   0.56020   0.67578   0.00000  Uiso   1.00
C246   C     0.66121   0.61765   0.70747   0.00000  Uiso   1.00
C247   C     0.73882   0.62141   0.74448   0.00000  Uiso   1.00
C248   C     0.67138   0.53063   0.57792   0.00000  Uiso   1.00
C249   C     0.67443   0.56322   0.52733   0.00000  Uiso   1.00
C250   C     0.75808   0.54209   0.48195   0.00000  Uiso   1.00
C251   C     0.52386   0.48073   0.65113   0.00000  Uiso   1.00
C252   C     0.40288   0.47135   0.66208   0.00000  Uiso   1.00
C253   C     0.36233   0.40820   0.67833   0.00000  Uiso   1.00
H254   H     0.79076   0.40983   0.64614   0.00000  Uiso   1.00
H255   H     0.87971   0.47189   0.72177   0.00000  Uiso   1.00
H256   H     0.89292   0.41746   0.54165   0.00000  Uiso   1.00
H257   H     0.62141   0.32562   0.67639   0.00000  Uiso   1.00
H258   H     0.94408   0.56358   0.80336   0.00000  Uiso   1.00
H259   H     0.97190   0.44880   0.42356   0.00000  Uiso   1.00
H260   H     0.39938   0.25512   0.70768   0.00000  Uiso   1.00
H261   H     0.52659   0.58603   0.62884   0.00000  Uiso   1.00
H262   H     0.60104   0.65777   0.70352   0.00000  Uiso   1.00
H263   H     0.61425   0.60334   0.52340   0.00000  Uiso   1.00
H264   H     0.34275   0.51149   0.65814   0.00000  Uiso   1.00
H265   H     0.71790   0.71444   0.78854   0.00000  Uiso   1.00
H266   H     0.74572   0.59966   0.40875   0.00000  Uiso   1.00
H267   H     0.17320   0.40598   0.69287   0.00000  Uiso   1.00
O268   O     0.88476   0.68303   0.84538   0.00000  Uiso   1.00
O269   O     0.92124   0.53244   0.34710   0.00000  Uiso   1.00
O270   O     0.17012   0.27833   0.71986   0.00000  Uiso   1.00
N271   N     0.88061   0.58924   0.78963   0.00000  Uiso   1.00
N272   N     0.90663   0.48193   0.43455   0.00000  Uiso   1.00
N273   N     0.37138   0.30085   0.70016   0.00000  Uiso   1.00
N274   N     0.75891   0.67041   0.78166   0.00000  Uiso   1.00
N275   N     0.78493   0.56311   0.42658   0.00000  Uiso   1.00
N276   N     0.24967   0.38203   0.69219   0.00000  Uiso   1.00
C277   C     0.76976   0.95020   0.85782   0.00000  Uiso   1.00
C278   C     0.75808   0.00835   0.81912   0.00000  Uiso   1.00
C279   C     0.68044   0.01203   0.78216   0.00000  Uiso   1.00
C280   C     0.68330   0.06947   0.75042   0.00000  Uiso   1.00
C281   C     0.65328   0.15189   0.68958   0.00000  Uiso   1.00
C282   C     0.75089   0.97878   0.91699   0.00000  Uiso   1.00
C283   C     0.66722   0.95760   0.96230   0.00000  Uiso   1.00
C284   C     0.66404   0.99014   0.01295   0.00000  Uiso   1.00
C285   C     0.62293   0.02663   0.10405   0.00000  Uiso   1.00
C286   C     0.89840   0.92888   0.84378   0.00000  Uiso   1.00
C287   C     0.93877   0.86573   0.82755   0.00000  Uiso   1.00
C288   C     0.05979   0.85626   0.81657   0.00000  Uiso   1.00
C289   C     0.24770   0.81526   0.79400   0.00000  Uiso   1.00
C290   C     0.91289   0.04566   0.86720   0.00000  Uiso   1.00
C291   C     0.83581   0.06020   0.82422   0.00000  Uiso   1.00
C292   C     0.83879   0.11765   0.79253   0.00000  Uiso   1.00
C293   C     0.76118   0.12141   0.75552   0.00000  Uiso   1.00
C294   C     0.82862   0.03063   0.92208   0.00000  Uiso   1.00
C295   C     0.82557   0.06322   0.97267   0.00000  Uiso   1.00
C296   C     0.74192   0.04209   0.01805   0.00000  Uiso   1.00
C297   C     0.97614   0.98073   0.84887   0.00000  Uiso   1.00
C298   C     0.09712   0.97135   0.83792   0.00000  Uiso   1.00
C299   C     0.13767   0.90820   0.82167   0.00000  Uiso   1.00
H300   H     0.70924   0.90983   0.85386   0.00000  Uiso   1.00
H301   H     0.62029   0.97189   0.77823   0.00000  Uiso   1.00
H302   H     0.60708   0.91746   0.95835   0.00000  Uiso   1.00
H303   H     0.87859   0.82562   0.82361   0.00000  Uiso   1.00
H304   H     0.55592   0.06358   0.69664   0.00000  Uiso   1.00
H305   H     0.52810   0.94880   0.07644   0.00000  Uiso   1.00
H306   H     0.10062   0.75512   0.79232   0.00000  Uiso   1.00
H307   H     0.97341   0.08603   0.87116   0.00000  Uiso   1.00
H308   H     0.89896   0.15777   0.79648   0.00000  Uiso   1.00
H309   H     0.88575   0.10334   0.97660   0.00000  Uiso   1.00
H310   H     0.15725   0.01149   0.84186   0.00000  Uiso   1.00
H311   H     0.78210   0.21444   0.71146   0.00000  Uiso   1.00
H312   H     0.75428   0.09966   0.09125   0.00000  Uiso   1.00
H313   H     0.32680   0.90598   0.80713   0.00000  Uiso   1.00
O314   O     0.61524   0.18303   0.65462   0.00000  Uiso   1.00
O315   O     0.57876   0.03244   0.15290   0.00000  Uiso   1.00
O316   O     0.32988   0.77833   0.78014   0.00000  Uiso   1.00
N317   N     0.61939   0.08924   0.71037   0.00000  Uiso   1.00
N318   N     0.59337   0.98193   0.06545   0.00000  Uiso   1.00
N319   N     0.12862   0.80085   0.79984   0.00000  Uiso   1.00
N320   N     0.74109   0.17041   0.71834   0.00000  Uiso   1.00
N321   N     0.71507   0.06311   0.07342   0.00000  Uiso   1.00
N322   N     0.25033   0.88203   0.80781   0.00000  Uiso   1.00
C323   C     0.26976   0.45020   0.85782   0.00000  Uiso   1.00
C324   C     0.25808   0.50835   0.81912   0.00000  Uiso   1.00
C325   C     0.18044   0.51203   0.78216   0.00000  Uiso   1.00
C326   C     0.18330   0.56947   0.75042   0.00000  Uiso   1.00
C327   C     0.15328   0.65189   0.68958   0.00000  Uiso   1.00
C328   C     0.25089   0.47878   0.91699   0.00000  Uiso   1.00
C329   C     0.16722   0.45760   0.96230   0.00000  Uiso   1.00
C330   C     0.16404   0.49014   0.01295   0.00000  Uiso   1.00
C331   C     0.12293   0.52663   0.10405   0.00000  Uiso   1.00
C332   C     0.39840   0.42888   0.84378   0.00000  Uiso   1.00
C333   C     0.43877   0.36573   0.82755   0.00000  Uiso   1.00
C334   C     0.55979   0.35626   0.81657   0.00000  Uiso   1.00
C335   C     0.74770   0.31526   0.79400   0.00000  Uiso   1.00
C336   C     0.41289   0.54566   0.86720   0.00000  Uiso   1.00
C337   C     0.33581   0.56020   0.82422   0.00000  Uiso   1.00
C338   C     0.33879   0.61765   0.79253   0.00000  Uiso   1.00
C339   C     0.26118   0.62141   0.75552   0.00000  Uiso   1.00
C340   C     0.32862   0.53063   0.92208   0.00000  Uiso   1.00
C341   C     0.32557   0.56322   0.97267   0.00000  Uiso   1.00
C342   C     0.24192   0.54209   0.01805   0.00000  Uiso   1.00
C343   C     0.47614   0.48073   0.84887   0.00000  Uiso   1.00
C344   C     0.59712   0.47135   0.83792   0.00000  Uiso   1.00
C345   C     0.63767   0.40820   0.82167   0.00000  Uiso   1.00
H346   H     0.20924   0.40983   0.85386   0.00000  Uiso   1.00
H347   H     0.12029   0.47189   0.77823   0.00000  Uiso   1.00
H348   H     0.10708   0.41746   0.95835   0.00000  Uiso   1.00
H349   H     0.37859   0.32562   0.82361   0.00000  Uiso   1.00
H350   H     0.05592   0.56358   0.69664   0.00000  Uiso   1.00
H351   H     0.02810   0.44880   0.07644   0.00000  Uiso   1.00
H352   H     0.60062   0.25512   0.79232   0.00000  Uiso   1.00
H353   H     0.47341   0.58603   0.87116   0.00000  Uiso   1.00
H354   H     0.39896   0.65777   0.79648   0.00000  Uiso   1.00
H355   H     0.38575   0.60334   0.97660   0.00000  Uiso   1.00
H356   H     0.65725   0.51149   0.84186   0.00000  Uiso   1.00
H357   H     0.28210   0.71444   0.71146   0.00000  Uiso   1.00
H358   H     0.25428   0.59966   0.09125   0.00000  Uiso   1.00
H359   H     0.82680   0.40598   0.80713   0.00000  Uiso   1.00
O360   O     0.11524   0.68303   0.65462   0.00000  Uiso   1.00
O361   O     0.07876   0.53244   0.15290   0.00000  Uiso   1.00
O362   O     0.82988   0.27833   0.78014   0.00000  Uiso   1.00
N363   N     0.11939   0.58924   0.71037   0.00000  Uiso   1.00
N364   N     0.09337   0.48193   0.06545   0.00000  Uiso   1.00
N365   N     0.62862   0.30085   0.79984   0.00000  Uiso   1.00
N366   N     0.24109   0.67041   0.71834   0.00000  Uiso   1.00
N367   N     0.21507   0.56311   0.07342   0.00000  Uiso   1.00
N368   N     0.75033   0.38203   0.80781   0.00000  Uiso   1.00
