data_job_03569
_audit_creation_date              2018-12-19
_audit_creation_method            'Materials Studio'
_symmetry_space_group_name_H-M    'P1'
_symmetry_Int_Tables_number       1
_symmetry_cell_setting            triclinic
loop_
_symmetry_equiv_pos_as_xyz
  x,y,z
_cell_length_a                    38.0752
_cell_length_b                    12.9765
_cell_length_c                    23.2669
_cell_angle_alpha                 90.0000
_cell_angle_beta                  90.0000
_cell_angle_gamma                 90.0000
loop_
_atom_site_label
_atom_site_type_symbol
_atom_site_fract_x
_atom_site_fract_y
_atom_site_fract_z
_atom_site_U_iso_or_equiv
_atom_site_adp_type
_atom_site_occupancy
C1     C     0.85911   0.38641   0.53782   0.00000  Uiso   1.00
C2     C     0.84113   0.35776   0.59416   0.00000  Uiso   1.00
C3     C     0.83624   0.42285   0.64080   0.00000  Uiso   1.00
C4     C     0.81919   0.38200   0.68837   0.00000  Uiso   1.00
C5     C     0.79306   0.35306   0.77573   0.00000  Uiso   1.00
C6     C     0.88884   0.30893   0.52992   0.00000  Uiso   1.00
C7     C     0.92407   0.33298   0.52255   0.00000  Uiso   1.00
C8     C     0.94718   0.25103   0.51604   0.00000  Uiso   1.00
C9     C     0.99512   0.14629   0.50363   0.00000  Uiso   1.00
C10    C     0.83257   0.36350   0.49044   0.00000  Uiso   1.00
C11    C     0.82050   0.43342   0.44985   0.00000  Uiso   1.00
C12    C     0.79624   0.39740   0.41008   0.00000  Uiso   1.00
C13    C     0.75682   0.37738   0.33636   0.00000  Uiso   1.00
C14    C     0.83751   0.19812   0.53935   0.00000  Uiso   1.00
C15    C     0.82939   0.25549   0.59499   0.00000  Uiso   1.00
C16    C     0.81234   0.21454   0.64250   0.00000  Uiso   1.00
C17    C     0.80743   0.27955   0.68920   0.00000  Uiso   1.00
C18    C     0.87710   0.20667   0.53075   0.00000  Uiso   1.00
C19    C     0.90016   0.12467   0.52424   0.00000  Uiso   1.00
C20    C     0.93542   0.14858   0.51687   0.00000  Uiso   1.00
C21    C     0.82083   0.26123   0.49126   0.00000  Uiso   1.00
C22    C     0.79659   0.22510   0.45155   0.00000  Uiso   1.00
C23    C     0.78448   0.29495   0.41091   0.00000  Uiso   1.00
H24    H     0.86825   0.46602   0.53717   0.00000  Uiso   1.00
H25    H     0.84533   0.50198   0.64015   0.00000  Uiso   1.00
H26    H     0.93314   0.41213   0.52190   0.00000  Uiso   1.00
H27    H     0.82959   0.51255   0.44922   0.00000  Uiso   1.00
H28    H     0.81475   0.49674   0.75469   0.00000  Uiso   1.00
H29    H     0.99991   0.30727   0.50535   0.00000  Uiso   1.00
H30    H     0.78154   0.51903   0.35207   0.00000  Uiso   1.00
H31    H     0.82837   0.11850   0.54000   0.00000  Uiso   1.00
H32    H     0.80326   0.13539   0.64313   0.00000  Uiso   1.00
H33    H     0.89107   0.04554   0.52489   0.00000  Uiso   1.00
H34    H     0.78751   0.14596   0.45220   0.00000  Uiso   1.00
H35    H     0.78061   0.19920   0.75711   0.00000  Uiso   1.00
H36    H     0.96576   0.00973   0.50776   0.00000  Uiso   1.00
H37    H     0.74739   0.22149   0.35450   0.00000  Uiso   1.00
O38    O     0.78189   0.36534   0.82369   0.00000  Uiso   1.00
O39    O     0.02480   0.11677   0.49656   0.00000  Uiso   1.00
O40    O     0.73831   0.39459   0.29548   0.00000  Uiso   1.00
N41    N     0.81016   0.42440   0.74110   0.00000  Uiso   1.00
N42    N     0.98327   0.24726   0.50799   0.00000  Uiso   1.00
N43    N     0.77912   0.44523   0.36468   0.00000  Uiso   1.00
N44    N     0.79178   0.26430   0.74240   0.00000  Uiso   1.00
N45    N     0.96489   0.08716   0.50929   0.00000  Uiso   1.00
N46    N     0.76075   0.28513   0.36599   0.00000  Uiso   1.00
C47    C     0.64089   0.11359   0.03782   0.00000  Uiso   1.00
C48    C     0.65887   0.14224   0.09416   0.00000  Uiso   1.00
C49    C     0.66376   0.07715   0.14080   0.00000  Uiso   1.00
C50    C     0.68081   0.11800   0.18837   0.00000  Uiso   1.00
C51    C     0.70694   0.14694   0.27573   0.00000  Uiso   1.00
C52    C     0.61116   0.19107   0.02992   0.00000  Uiso   1.00
C53    C     0.57593   0.16702   0.02255   0.00000  Uiso   1.00
C54    C     0.55282   0.24897   0.01604   0.00000  Uiso   1.00
C55    C     0.50488   0.35371   0.00363   0.00000  Uiso   1.00
C56    C     0.66743   0.13650   0.99044   0.00000  Uiso   1.00
C57    C     0.67950   0.06658   0.94985   0.00000  Uiso   1.00
C58    C     0.70376   0.10260   0.91008   0.00000  Uiso   1.00
C59    C     0.74318   0.12262   0.83636   0.00000  Uiso   1.00
C60    C     0.66249   0.30188   0.03935   0.00000  Uiso   1.00
C61    C     0.67061   0.24451   0.09499   0.00000  Uiso   1.00
C62    C     0.68766   0.28546   0.14250   0.00000  Uiso   1.00
C63    C     0.69257   0.22045   0.18920   0.00000  Uiso   1.00
C64    C     0.62290   0.29333   0.03075   0.00000  Uiso   1.00
C65    C     0.59984   0.37533   0.02424   0.00000  Uiso   1.00
C66    C     0.56458   0.35142   0.01687   0.00000  Uiso   1.00
C67    C     0.67917   0.23877   0.99126   0.00000  Uiso   1.00
C68    C     0.70341   0.27490   0.95155   0.00000  Uiso   1.00
C69    C     0.71552   0.20505   0.91091   0.00000  Uiso   1.00
H70    H     0.63175   0.03398   0.03717   0.00000  Uiso   1.00
H71    H     0.65467   0.99802   0.14015   0.00000  Uiso   1.00
H72    H     0.56686   0.08787   0.02190   0.00000  Uiso   1.00
H73    H     0.67041   0.98745   0.94922   0.00000  Uiso   1.00
H74    H     0.68525   0.00326   0.25469   0.00000  Uiso   1.00
H75    H     0.50009   0.19273   0.00535   0.00000  Uiso   1.00
H76    H     0.71846   0.98097   0.85207   0.00000  Uiso   1.00
H77    H     0.67163   0.38150   0.04000   0.00000  Uiso   1.00
H78    H     0.69674   0.36461   0.14313   0.00000  Uiso   1.00
H79    H     0.60893   0.45446   0.02489   0.00000  Uiso   1.00
H80    H     0.71249   0.35404   0.95220   0.00000  Uiso   1.00
H81    H     0.71939   0.30080   0.25711   0.00000  Uiso   1.00
H82    H     0.53424   0.49027   0.00776   0.00000  Uiso   1.00
H83    H     0.75261   0.27851   0.85450   0.00000  Uiso   1.00
O84    O     0.71811   0.13466   0.32369   0.00000  Uiso   1.00
O85    O     0.47520   0.38323   0.99656   0.00000  Uiso   1.00
O86    O     0.76169   0.10541   0.79548   0.00000  Uiso   1.00
N87    N     0.68984   0.07560   0.24110   0.00000  Uiso   1.00
N88    N     0.51673   0.25274   0.00799   0.00000  Uiso   1.00
N89    N     0.72088   0.05477   0.86468   0.00000  Uiso   1.00
N90    N     0.70822   0.23570   0.24240   0.00000  Uiso   1.00
N91    N     0.53511   0.41284   0.00929   0.00000  Uiso   1.00
N92    N     0.73925   0.21487   0.86599   0.00000  Uiso   1.00
C93    C     0.14089   0.38641   0.96218   0.00000  Uiso   1.00
C94    C     0.15887   0.35776   0.90584   0.00000  Uiso   1.00
C95    C     0.16376   0.42285   0.85920   0.00000  Uiso   1.00
C96    C     0.18081   0.38200   0.81163   0.00000  Uiso   1.00
C97    C     0.20694   0.35306   0.72427   0.00000  Uiso   1.00
C98    C     0.11116   0.30893   0.97008   0.00000  Uiso   1.00
C99    C     0.07593   0.33298   0.97745   0.00000  Uiso   1.00
C100   C     0.05282   0.25103   0.98396   0.00000  Uiso   1.00
C101   C     0.00488   0.14629   0.99637   0.00000  Uiso   1.00
C102   C     0.16743   0.36350   0.00956   0.00000  Uiso   1.00
C103   C     0.17950   0.43342   0.05015   0.00000  Uiso   1.00
C104   C     0.20376   0.39740   0.08992   0.00000  Uiso   1.00
C105   C     0.24318   0.37738   0.16364   0.00000  Uiso   1.00
C106   C     0.16249   0.19812   0.96065   0.00000  Uiso   1.00
C107   C     0.17061   0.25549   0.90501   0.00000  Uiso   1.00
C108   C     0.18766   0.21454   0.85750   0.00000  Uiso   1.00
C109   C     0.19257   0.27955   0.81080   0.00000  Uiso   1.00
C110   C     0.12290   0.20667   0.96925   0.00000  Uiso   1.00
C111   C     0.09984   0.12467   0.97576   0.00000  Uiso   1.00
C112   C     0.06458   0.14858   0.98313   0.00000  Uiso   1.00
C113   C     0.17917   0.26123   0.00874   0.00000  Uiso   1.00
C114   C     0.20341   0.22510   0.04845   0.00000  Uiso   1.00
C115   C     0.21552   0.29495   0.08909   0.00000  Uiso   1.00
H116   H     0.13175   0.46602   0.96283   0.00000  Uiso   1.00
H117   H     0.15467   0.50198   0.85985   0.00000  Uiso   1.00
H118   H     0.06686   0.41213   0.97810   0.00000  Uiso   1.00
H119   H     0.17041   0.51255   0.05078   0.00000  Uiso   1.00
H120   H     0.18525   0.49674   0.74531   0.00000  Uiso   1.00
H121   H     0.00009   0.30727   0.99465   0.00000  Uiso   1.00
H122   H     0.21846   0.51903   0.14793   0.00000  Uiso   1.00
H123   H     0.17163   0.11850   0.96000   0.00000  Uiso   1.00
H124   H     0.19674   0.13539   0.85687   0.00000  Uiso   1.00
H125   H     0.10893   0.04554   0.97511   0.00000  Uiso   1.00
H126   H     0.21249   0.14596   0.04780   0.00000  Uiso   1.00
H127   H     0.21939   0.19920   0.74289   0.00000  Uiso   1.00
H128   H     0.03424   0.00973   0.99224   0.00000  Uiso   1.00
H129   H     0.25261   0.22149   0.14550   0.00000  Uiso   1.00
O130   O     0.21811   0.36534   0.67631   0.00000  Uiso   1.00
O131   O     0.97520   0.11677   0.00344   0.00000  Uiso   1.00
O132   O     0.26169   0.39459   0.20452   0.00000  Uiso   1.00
N133   N     0.18984   0.42440   0.75890   0.00000  Uiso   1.00
N134   N     0.01673   0.24726   0.99201   0.00000  Uiso   1.00
N135   N     0.22088   0.44523   0.13532   0.00000  Uiso   1.00
N136   N     0.20822   0.26430   0.75760   0.00000  Uiso   1.00
N137   N     0.03511   0.08716   0.99071   0.00000  Uiso   1.00
N138   N     0.23925   0.28513   0.13401   0.00000  Uiso   1.00
C139   C     0.35911   0.11359   0.46218   0.00000  Uiso   1.00
C140   C     0.34113   0.14224   0.40584   0.00000  Uiso   1.00
C141   C     0.33624   0.07715   0.35920   0.00000  Uiso   1.00
C142   C     0.31919   0.11800   0.31163   0.00000  Uiso   1.00
C143   C     0.29306   0.14694   0.22427   0.00000  Uiso   1.00
C144   C     0.38884   0.19107   0.47008   0.00000  Uiso   1.00
C145   C     0.42407   0.16702   0.47745   0.00000  Uiso   1.00
C146   C     0.44718   0.24897   0.48396   0.00000  Uiso   1.00
C147   C     0.49512   0.35371   0.49637   0.00000  Uiso   1.00
C148   C     0.33257   0.13650   0.50956   0.00000  Uiso   1.00
C149   C     0.32050   0.06658   0.55015   0.00000  Uiso   1.00
C150   C     0.29624   0.10260   0.58992   0.00000  Uiso   1.00
C151   C     0.25682   0.12262   0.66364   0.00000  Uiso   1.00
C152   C     0.33751   0.30188   0.46065   0.00000  Uiso   1.00
C153   C     0.32939   0.24451   0.40501   0.00000  Uiso   1.00
C154   C     0.31234   0.28546   0.35750   0.00000  Uiso   1.00
C155   C     0.30743   0.22045   0.31080   0.00000  Uiso   1.00
C156   C     0.37710   0.29333   0.46925   0.00000  Uiso   1.00
C157   C     0.40016   0.37533   0.47576   0.00000  Uiso   1.00
C158   C     0.43542   0.35142   0.48313   0.00000  Uiso   1.00
C159   C     0.32083   0.23877   0.50874   0.00000  Uiso   1.00
C160   C     0.29659   0.27490   0.54845   0.00000  Uiso   1.00
C161   C     0.28448   0.20505   0.58909   0.00000  Uiso   1.00
H162   H     0.36825   0.03398   0.46283   0.00000  Uiso   1.00
H163   H     0.34533   0.99802   0.35985   0.00000  Uiso   1.00
H164   H     0.43314   0.08787   0.47810   0.00000  Uiso   1.00
H165   H     0.32959   0.98745   0.55078   0.00000  Uiso   1.00
H166   H     0.31475   0.00326   0.24531   0.00000  Uiso   1.00
H167   H     0.49991   0.19273   0.49465   0.00000  Uiso   1.00
H168   H     0.28154   0.98097   0.64793   0.00000  Uiso   1.00
H169   H     0.32837   0.38150   0.46000   0.00000  Uiso   1.00
H170   H     0.30326   0.36461   0.35687   0.00000  Uiso   1.00
H171   H     0.39107   0.45446   0.47511   0.00000  Uiso   1.00
H172   H     0.28751   0.35404   0.54780   0.00000  Uiso   1.00
H173   H     0.28061   0.30080   0.24289   0.00000  Uiso   1.00
H174   H     0.46576   0.49027   0.49224   0.00000  Uiso   1.00
H175   H     0.24739   0.27851   0.64550   0.00000  Uiso   1.00
O176   O     0.28189   0.13466   0.17631   0.00000  Uiso   1.00
O177   O     0.52480   0.38323   0.50344   0.00000  Uiso   1.00
O178   O     0.23831   0.10541   0.70452   0.00000  Uiso   1.00
N179   N     0.31016   0.07560   0.25890   0.00000  Uiso   1.00
N180   N     0.48327   0.25274   0.49201   0.00000  Uiso   1.00
N181   N     0.27912   0.05477   0.63532   0.00000  Uiso   1.00
N182   N     0.29178   0.23570   0.25760   0.00000  Uiso   1.00
N183   N     0.46489   0.41284   0.49071   0.00000  Uiso   1.00
N184   N     0.26075   0.21487   0.63401   0.00000  Uiso   1.00
C185   C     0.14089   0.61359   0.46218   0.00000  Uiso   1.00
C186   C     0.15887   0.64224   0.40584   0.00000  Uiso   1.00
C187   C     0.16376   0.57715   0.35920   0.00000  Uiso   1.00
C188   C     0.18081   0.61800   0.31163   0.00000  Uiso   1.00
C189   C     0.20694   0.64694   0.22427   0.00000  Uiso   1.00
C190   C     0.11116   0.69107   0.47008   0.00000  Uiso   1.00
C191   C     0.07593   0.66702   0.47745   0.00000  Uiso   1.00
C192   C     0.05282   0.74897   0.48396   0.00000  Uiso   1.00
C193   C     0.00488   0.85371   0.49637   0.00000  Uiso   1.00
C194   C     0.16743   0.63650   0.50956   0.00000  Uiso   1.00
C195   C     0.17950   0.56658   0.55015   0.00000  Uiso   1.00
C196   C     0.20376   0.60260   0.58992   0.00000  Uiso   1.00
C197   C     0.24318   0.62262   0.66364   0.00000  Uiso   1.00
C198   C     0.16249   0.80188   0.46065   0.00000  Uiso   1.00
C199   C     0.17061   0.74451   0.40501   0.00000  Uiso   1.00
C200   C     0.18766   0.78546   0.35750   0.00000  Uiso   1.00
C201   C     0.19257   0.72045   0.31080   0.00000  Uiso   1.00
C202   C     0.12290   0.79333   0.46925   0.00000  Uiso   1.00
C203   C     0.09984   0.87533   0.47576   0.00000  Uiso   1.00
C204   C     0.06458   0.85142   0.48313   0.00000  Uiso   1.00
C205   C     0.17917   0.73877   0.50874   0.00000  Uiso   1.00
C206   C     0.20341   0.77490   0.54845   0.00000  Uiso   1.00
C207   C     0.21552   0.70505   0.58909   0.00000  Uiso   1.00
H208   H     0.13175   0.53398   0.46283   0.00000  Uiso   1.00
H209   H     0.15467   0.49802   0.35985   0.00000  Uiso   1.00
H210   H     0.06686   0.58787   0.47810   0.00000  Uiso   1.00
H211   H     0.17041   0.48745   0.55078   0.00000  Uiso   1.00
H212   H     0.18525   0.50326   0.24531   0.00000  Uiso   1.00
H213   H     0.00009   0.69273   0.49465   0.00000  Uiso   1.00
H214   H     0.21846   0.48097   0.64793   0.00000  Uiso   1.00
H215   H     0.17163   0.88150   0.46000   0.00000  Uiso   1.00
H216   H     0.19674   0.86461   0.35687   0.00000  Uiso   1.00
H217   H     0.10893   0.95446   0.47511   0.00000  Uiso   1.00
H218   H     0.21249   0.85404   0.54780   0.00000  Uiso   1.00
H219   H     0.21939   0.80080   0.24289   0.00000  Uiso   1.00
H220   H     0.03424   0.99027   0.49224   0.00000  Uiso   1.00
H221   H     0.25261   0.77851   0.64550   0.00000  Uiso   1.00
O222   O     0.21811   0.63466   0.17631   0.00000  Uiso   1.00
O223   O     0.97520   0.88323   0.50344   0.00000  Uiso   1.00
O224   O     0.26169   0.60541   0.70452   0.00000  Uiso   1.00
N225   N     0.18984   0.57560   0.25890   0.00000  Uiso   1.00
N226   N     0.01673   0.75274   0.49201   0.00000  Uiso   1.00
N227   N     0.22088   0.55477   0.63532   0.00000  Uiso   1.00
N228   N     0.20822   0.73570   0.25760   0.00000  Uiso   1.00
N229   N     0.03511   0.91284   0.49071   0.00000  Uiso   1.00
N230   N     0.23925   0.71487   0.63401   0.00000  Uiso   1.00
C231   C     0.35911   0.88641   0.96218   0.00000  Uiso   1.00
C232   C     0.34113   0.85776   0.90584   0.00000  Uiso   1.00
C233   C     0.33624   0.92285   0.85920   0.00000  Uiso   1.00
C234   C     0.31919   0.88200   0.81163   0.00000  Uiso   1.00
C235   C     0.29306   0.85306   0.72427   0.00000  Uiso   1.00
C236   C     0.38884   0.80893   0.97008   0.00000  Uiso   1.00
C237   C     0.42407   0.83298   0.97745   0.00000  Uiso   1.00
C238   C     0.44718   0.75103   0.98396   0.00000  Uiso   1.00
C239   C     0.49512   0.64629   0.99637   0.00000  Uiso   1.00
C240   C     0.33257   0.86350   0.00956   0.00000  Uiso   1.00
C241   C     0.32050   0.93342   0.05015   0.00000  Uiso   1.00
C242   C     0.29624   0.89740   0.08992   0.00000  Uiso   1.00
C243   C     0.25682   0.87738   0.16364   0.00000  Uiso   1.00
C244   C     0.33751   0.69812   0.96065   0.00000  Uiso   1.00
C245   C     0.32939   0.75549   0.90501   0.00000  Uiso   1.00
C246   C     0.31234   0.71454   0.85750   0.00000  Uiso   1.00
C247   C     0.30743   0.77955   0.81080   0.00000  Uiso   1.00
C248   C     0.37710   0.70667   0.96925   0.00000  Uiso   1.00
C249   C     0.40016   0.62467   0.97576   0.00000  Uiso   1.00
C250   C     0.43542   0.64858   0.98313   0.00000  Uiso   1.00
C251   C     0.32083   0.76123   0.00874   0.00000  Uiso   1.00
C252   C     0.29659   0.72510   0.04845   0.00000  Uiso   1.00
C253   C     0.28448   0.79495   0.08909   0.00000  Uiso   1.00
H254   H     0.36825   0.96602   0.96283   0.00000  Uiso   1.00
H255   H     0.34533   0.00198   0.85985   0.00000  Uiso   1.00
H256   H     0.43314   0.91213   0.97810   0.00000  Uiso   1.00
H257   H     0.32959   0.01255   0.05078   0.00000  Uiso   1.00
H258   H     0.31475   0.99674   0.74531   0.00000  Uiso   1.00
H259   H     0.49991   0.80727   0.99465   0.00000  Uiso   1.00
H260   H     0.28154   0.01903   0.14793   0.00000  Uiso   1.00
H261   H     0.32837   0.61850   0.96000   0.00000  Uiso   1.00
H262   H     0.30326   0.63539   0.85687   0.00000  Uiso   1.00
H263   H     0.39107   0.54554   0.97511   0.00000  Uiso   1.00
H264   H     0.28751   0.64596   0.04780   0.00000  Uiso   1.00
H265   H     0.28061   0.69920   0.74289   0.00000  Uiso   1.00
H266   H     0.46576   0.50973   0.99224   0.00000  Uiso   1.00
H267   H     0.24739   0.72149   0.14550   0.00000  Uiso   1.00
O268   O     0.28189   0.86534   0.67631   0.00000  Uiso   1.00
O269   O     0.52480   0.61677   0.00344   0.00000  Uiso   1.00
O270   O     0.23831   0.89459   0.20452   0.00000  Uiso   1.00
N271   N     0.31016   0.92440   0.75890   0.00000  Uiso   1.00
N272   N     0.48327   0.74726   0.99201   0.00000  Uiso   1.00
N273   N     0.27912   0.94523   0.13532   0.00000  Uiso   1.00
N274   N     0.29178   0.76430   0.75760   0.00000  Uiso   1.00
N275   N     0.46489   0.58716   0.99071   0.00000  Uiso   1.00
N276   N     0.26075   0.78513   0.13401   0.00000  Uiso   1.00
C277   C     0.85911   0.61359   0.03782   0.00000  Uiso   1.00
C278   C     0.84113   0.64224   0.09416   0.00000  Uiso   1.00
C279   C     0.83624   0.57715   0.14080   0.00000  Uiso   1.00
C280   C     0.81919   0.61800   0.18837   0.00000  Uiso   1.00
C281   C     0.79306   0.64694   0.27573   0.00000  Uiso   1.00
C282   C     0.88884   0.69107   0.02992   0.00000  Uiso   1.00
C283   C     0.92407   0.66702   0.02255   0.00000  Uiso   1.00
C284   C     0.94718   0.74897   0.01604   0.00000  Uiso   1.00
C285   C     0.99512   0.85371   0.00363   0.00000  Uiso   1.00
C286   C     0.83257   0.63650   0.99044   0.00000  Uiso   1.00
C287   C     0.82050   0.56658   0.94985   0.00000  Uiso   1.00
C288   C     0.79624   0.60260   0.91008   0.00000  Uiso   1.00
C289   C     0.75682   0.62262   0.83636   0.00000  Uiso   1.00
C290   C     0.83751   0.80188   0.03935   0.00000  Uiso   1.00
C291   C     0.82939   0.74451   0.09499   0.00000  Uiso   1.00
C292   C     0.81234   0.78546   0.14250   0.00000  Uiso   1.00
C293   C     0.80743   0.72045   0.18920   0.00000  Uiso   1.00
C294   C     0.87710   0.79333   0.03075   0.00000  Uiso   1.00
C295   C     0.90016   0.87533   0.02424   0.00000  Uiso   1.00
C296   C     0.93542   0.85142   0.01687   0.00000  Uiso   1.00
C297   C     0.82083   0.73877   0.99126   0.00000  Uiso   1.00
C298   C     0.79659   0.77490   0.95155   0.00000  Uiso   1.00
C299   C     0.78448   0.70505   0.91091   0.00000  Uiso   1.00
H300   H     0.86825   0.53398   0.03717   0.00000  Uiso   1.00
H301   H     0.84533   0.49802   0.14015   0.00000  Uiso   1.00
H302   H     0.93314   0.58787   0.02190   0.00000  Uiso   1.00
H303   H     0.82959   0.48745   0.94922   0.00000  Uiso   1.00
H304   H     0.81475   0.50326   0.25469   0.00000  Uiso   1.00
H305   H     0.99991   0.69273   0.00535   0.00000  Uiso   1.00
H306   H     0.78154   0.48097   0.85207   0.00000  Uiso   1.00
H307   H     0.82837   0.88150   0.04000   0.00000  Uiso   1.00
H308   H     0.80326   0.86461   0.14313   0.00000  Uiso   1.00
H309   H     0.89107   0.95446   0.02489   0.00000  Uiso   1.00
H310   H     0.78751   0.85404   0.95220   0.00000  Uiso   1.00
H311   H     0.78061   0.80080   0.25711   0.00000  Uiso   1.00
H312   H     0.96576   0.99027   0.00776   0.00000  Uiso   1.00
H313   H     0.74739   0.77851   0.85450   0.00000  Uiso   1.00
O314   O     0.78189   0.63466   0.32369   0.00000  Uiso   1.00
O315   O     0.02480   0.88323   0.99656   0.00000  Uiso   1.00
O316   O     0.73831   0.60541   0.79548   0.00000  Uiso   1.00
N317   N     0.81016   0.57560   0.24110   0.00000  Uiso   1.00
N318   N     0.98327   0.75274   0.00799   0.00000  Uiso   1.00
N319   N     0.77912   0.55477   0.86468   0.00000  Uiso   1.00
N320   N     0.79178   0.73570   0.24240   0.00000  Uiso   1.00
N321   N     0.96489   0.91284   0.00929   0.00000  Uiso   1.00
N322   N     0.76075   0.71487   0.86599   0.00000  Uiso   1.00
C323   C     0.64089   0.88641   0.53782   0.00000  Uiso   1.00
C324   C     0.65887   0.85776   0.59416   0.00000  Uiso   1.00
C325   C     0.66376   0.92285   0.64080   0.00000  Uiso   1.00
C326   C     0.68081   0.88200   0.68837   0.00000  Uiso   1.00
C327   C     0.70694   0.85306   0.77573   0.00000  Uiso   1.00
C328   C     0.61116   0.80893   0.52992   0.00000  Uiso   1.00
C329   C     0.57593   0.83298   0.52255   0.00000  Uiso   1.00
C330   C     0.55282   0.75103   0.51604   0.00000  Uiso   1.00
C331   C     0.50488   0.64629   0.50363   0.00000  Uiso   1.00
C332   C     0.66743   0.86350   0.49044   0.00000  Uiso   1.00
C333   C     0.67950   0.93342   0.44985   0.00000  Uiso   1.00
C334   C     0.70376   0.89740   0.41008   0.00000  Uiso   1.00
C335   C     0.74318   0.87738   0.33636   0.00000  Uiso   1.00
C336   C     0.66249   0.69812   0.53935   0.00000  Uiso   1.00
C337   C     0.67061   0.75549   0.59499   0.00000  Uiso   1.00
C338   C     0.68766   0.71454   0.64250   0.00000  Uiso   1.00
C339   C     0.69257   0.77955   0.68920   0.00000  Uiso   1.00
C340   C     0.62290   0.70667   0.53075   0.00000  Uiso   1.00
C341   C     0.59984   0.62467   0.52424   0.00000  Uiso   1.00
C342   C     0.56458   0.64858   0.51687   0.00000  Uiso   1.00
C343   C     0.67917   0.76123   0.49126   0.00000  Uiso   1.00
C344   C     0.70341   0.72510   0.45155   0.00000  Uiso   1.00
C345   C     0.71552   0.79495   0.41091   0.00000  Uiso   1.00
H346   H     0.63175   0.96602   0.53717   0.00000  Uiso   1.00
H347   H     0.65467   0.00198   0.64015   0.00000  Uiso   1.00
H348   H     0.56686   0.91213   0.52190   0.00000  Uiso   1.00
H349   H     0.67041   0.01255   0.44922   0.00000  Uiso   1.00
H350   H     0.68525   0.99674   0.75469   0.00000  Uiso   1.00
H351   H     0.50009   0.80727   0.50535   0.00000  Uiso   1.00
H352   H     0.71846   0.01903   0.35207   0.00000  Uiso   1.00
H353   H     0.67163   0.61850   0.54000   0.00000  Uiso   1.00
H354   H     0.69674   0.63539   0.64313   0.00000  Uiso   1.00
H355   H     0.60893   0.54554   0.52489   0.00000  Uiso   1.00
H356   H     0.71249   0.64596   0.45220   0.00000  Uiso   1.00
H357   H     0.71939   0.69920   0.75711   0.00000  Uiso   1.00
H358   H     0.53424   0.50973   0.50776   0.00000  Uiso   1.00
H359   H     0.75261   0.72149   0.35450   0.00000  Uiso   1.00
O360   O     0.71811   0.86534   0.82369   0.00000  Uiso   1.00
O361   O     0.47520   0.61677   0.49656   0.00000  Uiso   1.00
O362   O     0.76169   0.89459   0.29548   0.00000  Uiso   1.00
N363   N     0.68984   0.92440   0.74110   0.00000  Uiso   1.00
N364   N     0.51673   0.74726   0.50799   0.00000  Uiso   1.00
N365   N     0.72088   0.94523   0.36468   0.00000  Uiso   1.00
N366   N     0.70822   0.76430   0.74240   0.00000  Uiso   1.00
N367   N     0.53511   0.58716   0.50929   0.00000  Uiso   1.00
N368   N     0.73925   0.78513   0.36599   0.00000  Uiso   1.00
