data_job_06484
_audit_creation_date              2018-12-19
_audit_creation_method            'Materials Studio'
_symmetry_space_group_name_H-M    'P1'
_symmetry_Int_Tables_number       1
_symmetry_cell_setting            triclinic
loop_
_symmetry_equiv_pos_as_xyz
  x,y,z
_cell_length_a                    20.7710
_cell_length_b                    22.0113
_cell_length_c                    22.8217
_cell_angle_alpha                 115.8322
_cell_angle_beta                  65.6718
_cell_angle_gamma                 116.8399
loop_
_atom_site_label
_atom_site_type_symbol
_atom_site_fract_x
_atom_site_fract_y
_atom_site_fract_z
_atom_site_U_iso_or_equiv
_atom_site_adp_type
_atom_site_occupancy
C1     C     0.83131   0.31374   0.07754   0.00000  Uiso   1.00
C2     C     0.86566   0.28964   0.00143   0.00000  Uiso   1.00
C3     C     0.82685   0.25510   0.95245   0.00000  Uiso   1.00
C4     C     0.86846   0.23748   0.88556   0.00000  Uiso   1.00
C5     C     0.90999   0.19754   0.76999   0.00000  Uiso   1.00
C6     C     0.85351   0.27845   0.10742   0.00000  Uiso   1.00
C7     C     0.80448   0.23450   0.14756   0.00000  Uiso   1.00
C8     C     0.83587   0.20746   0.16989   0.00000  Uiso   1.00
C9     C     0.85854   0.15018   0.21892   0.00000  Uiso   1.00
C10    C     0.87269   0.39378   0.10206   0.00000  Uiso   1.00
C11    C     0.83979   0.44680   0.13771   0.00000  Uiso   1.00
C12    C     0.88732   0.51686   0.15555   0.00000  Uiso   1.00
C13    C     0.93977   0.63865   0.19625   0.00000  Uiso   1.00
C14    C     0.97424   0.34387   0.04584   0.00000  Uiso   1.00
C15    C     0.94330   0.30601   0.98421   0.00000  Uiso   1.00
C16    C     0.98498   0.28843   0.91737   0.00000  Uiso   1.00
C17    C     0.94624   0.25387   0.86831   0.00000  Uiso   1.00
C18    C     0.93114   0.29481   0.09020   0.00000  Uiso   1.00
C19    C     0.96261   0.26783   0.11248   0.00000  Uiso   1.00
C20    C     0.91364   0.22385   0.15264   0.00000  Uiso   1.00
C21    C     0.95033   0.41014   0.08484   0.00000  Uiso   1.00
C22    C     0.99792   0.48013   0.10263   0.00000  Uiso   1.00
C23    C     0.96510   0.53326   0.13830   0.00000  Uiso   1.00
H24    H     0.77087   0.30100   0.09095   0.00000  Uiso   1.00
H25    H     0.76677   0.24244   0.96580   0.00000  Uiso   1.00
H26    H     0.74440   0.22185   0.16088   0.00000  Uiso   1.00
H27    H     0.77971   0.43412   0.15102   0.00000  Uiso   1.00
H28    H     0.79645   0.18471   0.81945   0.00000  Uiso   1.00
H29    H     0.74930   0.14132   0.23081   0.00000  Uiso   1.00
H30    H     0.82375   0.58893   0.21004   0.00000  Uiso   1.00
H31    H     0.03468   0.35661   0.03244   0.00000  Uiso   1.00
H32    H     0.04506   0.30110   0.90407   0.00000  Uiso   1.00
H33    H     0.02269   0.28051   0.09915   0.00000  Uiso   1.00
H34    H     0.05800   0.49278   0.08930   0.00000  Uiso   1.00
H35    H     0.02233   0.23232   0.76934   0.00000  Uiso   1.00
H36    H     0.97517   0.18892   0.18071   0.00000  Uiso   1.00
H37    H     0.04962   0.63653   0.15993   0.00000  Uiso   1.00
O38    O     0.91145   0.17097   0.71101   0.00000  Uiso   1.00
O39    O     0.84959   0.11406   0.25071   0.00000  Uiso   1.00
O40    O     0.94726   0.70130   0.22345   0.00000  Uiso   1.00
N41    N     0.84819   0.20355   0.82527   0.00000  Uiso   1.00
N42    N     0.80410   0.16297   0.20986   0.00000  Uiso   1.00
N43    N     0.87370   0.58144   0.19046   0.00000  Uiso   1.00
N44    N     0.96973   0.22916   0.79831   0.00000  Uiso   1.00
N45    N     0.92564   0.18858   0.18290   0.00000  Uiso   1.00
N46    N     0.99524   0.60706   0.16350   0.00000  Uiso   1.00
C47    C     0.82207   0.70234   0.12208   0.00000  Uiso   1.00
C48    C     0.85127   0.68845   0.04580   0.00000  Uiso   1.00
C49    C     0.89977   0.65020   0.00194   0.00000  Uiso   1.00
C50    C     0.91987   0.64349   0.93393   0.00000  Uiso   1.00
C51    C     0.96940   0.61731   0.81902   0.00000  Uiso   1.00
C52    C     0.84345   0.78338   0.15350   0.00000  Uiso   1.00
C53    C     0.88536   0.82495   0.20020   0.00000  Uiso   1.00
C54    C     0.89886   0.89815   0.22284   0.00000  Uiso   1.00
C55    C     0.93620   0.01935   0.27518   0.00000  Uiso   1.00
C56    C     0.73688   0.67365   0.13761   0.00000  Uiso   1.00
C57    C     0.68918   0.62297   0.17097   0.00000  Uiso   1.00
C58    C     0.61295   0.60381   0.18025   0.00000  Uiso   1.00
C59    C     0.48483   0.55463   0.20792   0.00000  Uiso   1.00
C60    C     0.77153   0.75844   0.07928   0.00000  Uiso   1.00
C61    C     0.82381   0.71892   0.02255   0.00000  Uiso   1.00
C62    C     0.84384   0.71226   0.95458   0.00000  Uiso   1.00
C63    C     0.89236   0.67401   0.91063   0.00000  Uiso   1.00
C64    C     0.81599   0.81385   0.13025   0.00000  Uiso   1.00
C65    C     0.82943   0.88701   0.15284   0.00000  Uiso   1.00
C66    C     0.87136   0.92868   0.19955   0.00000  Uiso   1.00
C67    C     0.70942   0.70412   0.11436   0.00000  Uiso   1.00
C68    C     0.63325   0.68503   0.12360   0.00000  Uiso   1.00
C69    C     0.58545   0.63433   0.15696   0.00000  Uiso   1.00
H70    H     0.84345   0.67863   0.14018   0.00000  Uiso   1.00
H71    H     0.92101   0.62664   0.01996   0.00000  Uiso   1.00
H72    H     0.90659   0.80135   0.21818   0.00000  Uiso   1.00
H73    H     0.71044   0.59941   0.18895   0.00000  Uiso   1.00
H74    H     0.99491   0.58246   0.87641   0.00000  Uiso   1.00
H75    H     0.96448   0.95085   0.29440   0.00000  Uiso   1.00
H76    H     0.55087   0.52501   0.23277   0.00000  Uiso   1.00
H77    H     0.75015   0.78216   0.06118   0.00000  Uiso   1.00
H78    H     0.82259   0.73584   0.93661   0.00000  Uiso   1.00
H79    H     0.80817   0.91056   0.13484   0.00000  Uiso   1.00
H80    H     0.61203   0.70862   0.10561   0.00000  Uiso   1.00
H81    H     0.91503   0.67109   0.80876   0.00000  Uiso   1.00
H82    H     0.88461   0.03949   0.22676   0.00000  Uiso   1.00
H83    H     0.47099   0.61365   0.16512   0.00000  Uiso   1.00
O84    O     0.00432   0.59446   0.76207   0.00000  Uiso   1.00
O85    O     0.96440   0.07778   0.31047   0.00000  Uiso   1.00
O86    O     0.42175   0.51909   0.22960   0.00000  Uiso   1.00
N87    N     0.96615   0.60966   0.87758   0.00000  Uiso   1.00
N88    N     0.93772   0.95409   0.26837   0.00000  Uiso   1.00
N89    N     0.55103   0.55598   0.21076   0.00000  Uiso   1.00
N90    N     0.92317   0.65736   0.84118   0.00000  Uiso   1.00
N91    N     0.89474   0.00179   0.23197   0.00000  Uiso   1.00
N92    N     0.50804   0.60368   0.17436   0.00000  Uiso   1.00
C93    C     0.47287   0.31785   0.11987   0.00000  Uiso   1.00
C94    C     0.51481   0.29080   0.04628   0.00000  Uiso   1.00
C95    C     0.56864   0.33325   0.00602   0.00000  Uiso   1.00
C96    C     0.60046   0.29826   0.94001   0.00000  Uiso   1.00
C97    C     0.66879   0.26763   0.82951   0.00000  Uiso   1.00
C98    C     0.38980   0.28210   0.12282   0.00000  Uiso   1.00
C99    C     0.33852   0.31725   0.14691   0.00000  Uiso   1.00
C100   C     0.26510   0.27493   0.14533   0.00000  Uiso   1.00
C101   C     0.13935   0.23080   0.15369   0.00000  Uiso   1.00
C102   C     0.48713   0.28632   0.15925   0.00000  Uiso   1.00
C103   C     0.51766   0.32500   0.21399   0.00000  Uiso   1.00
C104   C     0.52617   0.28622   0.24310   0.00000  Uiso   1.00
C105   C     0.55152   0.24864   0.30802   0.00000  Uiso   1.00
C106   C     0.43367   0.18021   0.07424   0.00000  Uiso   1.00
C107   C     0.49351   0.21604   0.02150   0.00000  Uiso   1.00
C108   C     0.52526   0.18097   0.95554   0.00000  Uiso   1.00
C109   C     0.57913   0.22337   0.91518   0.00000  Uiso   1.00
C110   C     0.36851   0.20735   0.09803   0.00000  Uiso   1.00
C111   C     0.29515   0.16497   0.09642   0.00000  Uiso   1.00
C112   C     0.24377   0.20004   0.12050   0.00000  Uiso   1.00
C113   C     0.46583   0.21156   0.13446   0.00000  Uiso   1.00
C114   C     0.47429   0.17272   0.16350   0.00000  Uiso   1.00
C115   C     0.50483   0.21133   0.21827   0.00000  Uiso   1.00
H116   H     0.48944   0.37605   0.13917   0.00000  Uiso   1.00
H117   H     0.58510   0.39111   0.02522   0.00000  Uiso   1.00
H118   H     0.35501   0.37510   0.16609   0.00000  Uiso   1.00
H119   H     0.53413   0.38285   0.23316   0.00000  Uiso   1.00
H120   H     0.68174   0.37483   0.88795   0.00000  Uiso   1.00
H121   H     0.19659   0.34108   0.18500   0.00000  Uiso   1.00
H122   H     0.57429   0.35742   0.32643   0.00000  Uiso   1.00
H123   H     0.41709   0.12200   0.05495   0.00000  Uiso   1.00
H124   H     0.50877   0.12312   0.93637   0.00000  Uiso   1.00
H125   H     0.27869   0.10712   0.07724   0.00000  Uiso   1.00
H126   H     0.45780   0.11486   0.14431   0.00000  Uiso   1.00
H127   H     0.61979   0.15732   0.81583   0.00000  Uiso   1.00
H128   H     0.13463   0.12357   0.11289   0.00000  Uiso   1.00
H129   H     0.51234   0.13991   0.25431   0.00000  Uiso   1.00
O130   O     0.71236   0.27139   0.77540   0.00000  Uiso   1.00
O131   O     0.07586   0.22712   0.16514   0.00000  Uiso   1.00
O132   O     0.57140   0.24855   0.35068   0.00000  Uiso   1.00
N133   N     0.65458   0.32349   0.88725   0.00000  Uiso   1.00
N134   N     0.20100   0.29194   0.16497   0.00000  Uiso   1.00
N135   N     0.55410   0.30721   0.29720   0.00000  Uiso   1.00
N136   N     0.62125   0.20645   0.84845   0.00000  Uiso   1.00
N137   N     0.16767   0.17490   0.12617   0.00000  Uiso   1.00
N138   N     0.52077   0.19017   0.25840   0.00000  Uiso   1.00
C139   C     0.96498   0.84336   0.57696   0.00000  Uiso   1.00
C140   C     0.99167   0.81622   0.50010   0.00000  Uiso   1.00
C141   C     0.03262   0.76971   0.46324   0.00000  Uiso   1.00
C142   C     0.05160   0.75129   0.39334   0.00000  Uiso   1.00
C143   C     0.09623   0.70500   0.27884   0.00000  Uiso   1.00
C144   C     0.88026   0.82332   0.59430   0.00000  Uiso   1.00
C145   C     0.82755   0.78279   0.63664   0.00000  Uiso   1.00
C146   C     0.75275   0.77036   0.64604   0.00000  Uiso   1.00
C147   C     0.62443   0.73514   0.67782   0.00000  Uiso   1.00
C148   C     0.99620   0.92480   0.59632   0.00000  Uiso   1.00
C149   C     0.04097   0.96959   0.64038   0.00000  Uiso   1.00
C150   C     0.06377   0.04260   0.65148   0.00000  Uiso   1.00
C151   C     0.11546   0.16492   0.68640   0.00000  Uiso   1.00
C152   C     0.92586   0.89337   0.51836   0.00000  Uiso   1.00
C153   C     0.97041   0.84339   0.46828   0.00000  Uiso   1.00
C154   C     0.98934   0.82504   0.39840   0.00000  Uiso   1.00
C155   C     0.03032   0.77851   0.36145   0.00000  Uiso   1.00
C156   C     0.85901   0.85049   0.56247   0.00000  Uiso   1.00
C157   C     0.78427   0.83813   0.57181   0.00000  Uiso   1.00
C158   C     0.73146   0.79758   0.61415   0.00000  Uiso   1.00
C159   C     0.97496   0.95197   0.56449   0.00000  Uiso   1.00
C160   C     0.99768   0.02492   0.57553   0.00000  Uiso   1.00
C161   C     0.04248   0.06981   0.61960   0.00000  Uiso   1.00
H162   H     0.98152   0.82221   0.60175   0.00000  Uiso   1.00
H163   H     0.04905   0.74869   0.48790   0.00000  Uiso   1.00
H164   H     0.84401   0.76178   0.66127   0.00000  Uiso   1.00
H165   H     0.05740   0.94855   0.66500   0.00000  Uiso   1.00
H166   H     0.11452   0.67914   0.34763   0.00000  Uiso   1.00
H167   H     0.68220   0.70676   0.71323   0.00000  Uiso   1.00
H168   H     0.13216   0.10060   0.72109   0.00000  Uiso   1.00
H169   H     0.90931   0.91452   0.49358   0.00000  Uiso   1.00
H170   H     0.97288   0.84608   0.37379   0.00000  Uiso   1.00
H171   H     0.76784   0.85916   0.54717   0.00000  Uiso   1.00
H172   H     0.98123   0.04593   0.55089   0.00000  Uiso   1.00
H173   H     0.05270   0.75818   0.25502   0.00000  Uiso   1.00
H174   H     0.62037   0.78580   0.62062   0.00000  Uiso   1.00
H175   H     0.07033   0.17963   0.62848   0.00000  Uiso   1.00
O176   O     0.12671   0.67195   0.22448   0.00000  Uiso   1.00
O177   O     0.55952   0.70819   0.70414   0.00000  Uiso   1.00
O178   O     0.14986   0.22489   0.71445   0.00000  Uiso   1.00
N179   N     0.09126   0.70715   0.34228   0.00000  Uiso   1.00
N180   N     0.68706   0.73296   0.68408   0.00000  Uiso   1.00
N181   N     0.10772   0.10116   0.69144   0.00000  Uiso   1.00
N182   N     0.05800   0.74968   0.29244   0.00000  Uiso   1.00
N183   N     0.65379   0.77549   0.63424   0.00000  Uiso   1.00
N184   N     0.07445   0.14369   0.64161   0.00000  Uiso   1.00
C185   C     0.43808   0.23376   0.65005   0.00000  Uiso   1.00
C186   C     0.45060   0.19928   0.57382   0.00000  Uiso   1.00
C187   C     0.39595   0.16665   0.53944   0.00000  Uiso   1.00
C188   C     0.41870   0.13832   0.46969   0.00000  Uiso   1.00
C189   C     0.42677   0.08419   0.35649   0.00000  Uiso   1.00
C190   C     0.49166   0.31064   0.66067   0.00000  Uiso   1.00
C191   C     0.47153   0.37164   0.69932   0.00000  Uiso   1.00
C192   C     0.52886   0.43706   0.70268   0.00000  Uiso   1.00
C193   C     0.60068   0.55581   0.72437   0.00000  Uiso   1.00
C194   C     0.46628   0.19664   0.67267   0.00000  Uiso   1.00
C195   C     0.42483   0.16180   0.72143   0.00000  Uiso   1.00
C196   C     0.46080   0.13125   0.73491   0.00000  Uiso   1.00
C197   C     0.49322   0.07300   0.77522   0.00000  Uiso   1.00
C198   C     0.57566   0.24148   0.58729   0.00000  Uiso   1.00
C199   C     0.52533   0.20348   0.53973   0.00000  Uiso   1.00
C200   C     0.54817   0.17520   0.47001   0.00000  Uiso   1.00
C201   C     0.49357   0.14252   0.43554   0.00000  Uiso   1.00
C202   C     0.56638   0.31484   0.62658   0.00000  Uiso   1.00
C203   C     0.62375   0.38019   0.62989   0.00000  Uiso   1.00
C204   C     0.60372   0.44126   0.66853   0.00000  Uiso   1.00
C205   C     0.54101   0.20084   0.63858   0.00000  Uiso   1.00
C206   C     0.57705   0.17035   0.65199   0.00000  Uiso   1.00
C207   C     0.53566   0.13546   0.70076   0.00000  Uiso   1.00
H208   H     0.37991   0.23049   0.67659   0.00000  Uiso   1.00
H209   H     0.33813   0.16342   0.56584   0.00000  Uiso   1.00
H210   H     0.41370   0.36837   0.72570   0.00000  Uiso   1.00
H211   H     0.36701   0.15856   0.74780   0.00000  Uiso   1.00
H212   H     0.32477   0.09092   0.42802   0.00000  Uiso   1.00
H213   H     0.48412   0.52308   0.76511   0.00000  Uiso   1.00
H214   H     0.38566   0.08066   0.81171   0.00000  Uiso   1.00
H215   H     0.63385   0.24475   0.56075   0.00000  Uiso   1.00
H216   H     0.60600   0.17845   0.44364   0.00000  Uiso   1.00
H217   H     0.68157   0.38341   0.60350   0.00000  Uiso   1.00
H218   H     0.63488   0.17360   0.62560   0.00000  Uiso   1.00
H219   H     0.54218   0.10313   0.32883   0.00000  Uiso   1.00
H220   H     0.70153   0.53529   0.66593   0.00000  Uiso   1.00
H221   H     0.60307   0.09287   0.71253   0.00000  Uiso   1.00
O222   O     0.41058   0.05318   0.30347   0.00000  Uiso   1.00
O223   O     0.61964   0.62015   0.74574   0.00000  Uiso   1.00
O224   O     0.49046   0.03971   0.80687   0.00000  Uiso   1.00
N225   N     0.37976   0.10288   0.42075   0.00000  Uiso   1.00
N226   N     0.52874   0.50693   0.73590   0.00000  Uiso   1.00
N227   N     0.43669   0.09332   0.77948   0.00000  Uiso   1.00
N228   N     0.49675   0.10945   0.36738   0.00000  Uiso   1.00
N229   N     0.64573   0.51350   0.68253   0.00000  Uiso   1.00
N230   N     0.55368   0.09989   0.72611   0.00000  Uiso   1.00
C231   C     0.33323   0.74173   0.58268   0.00000  Uiso   1.00
C232   C     0.35071   0.72399   0.50646   0.00000  Uiso   1.00
C233   C     0.40287   0.76957   0.46869   0.00000  Uiso   1.00
C234   C     0.41057   0.74330   0.39960   0.00000  Uiso   1.00
C235   C     0.44428   0.72630   0.28584   0.00000  Uiso   1.00
C236   C     0.34547   0.68427   0.59316   0.00000  Uiso   1.00
C237   C     0.39322   0.69646   0.62830   0.00000  Uiso   1.00
C238   C     0.39650   0.63674   0.63219   0.00000  Uiso   1.00
C239   C     0.42202   0.55808   0.65308   0.00000  Uiso   1.00
C240   C     0.24933   0.72940   0.61034   0.00000  Uiso   1.00
C241   C     0.21623   0.77951   0.65993   0.00000  Uiso   1.00
C242   C     0.13856   0.75778   0.67829   0.00000  Uiso   1.00
C243   C     0.01481   0.74919   0.72585   0.00000  Uiso   1.00
C244   C     0.25415   0.61402   0.52713   0.00000  Uiso   1.00
C245   C     0.30776   0.65463   0.47629   0.00000  Uiso   1.00
C246   C     0.31538   0.62828   0.40723   0.00000  Uiso   1.00
C247   C     0.36754   0.67381   0.36937   0.00000  Uiso   1.00
C248   C     0.30252   0.61491   0.56299   0.00000  Uiso   1.00
C249   C     0.30572   0.55516   0.56684   0.00000  Uiso   1.00
C250   C     0.35347   0.56725   0.60197   0.00000  Uiso   1.00
C251   C     0.20637   0.66003   0.58016   0.00000  Uiso   1.00
C252   C     0.12874   0.63822   0.59846   0.00000  Uiso   1.00
C253   C     0.09553   0.68829   0.64807   0.00000  Uiso   1.00
H254   H     0.36667   0.79573   0.60617   0.00000  Uiso   1.00
H255   H     0.43611   0.82325   0.49206   0.00000  Uiso   1.00
H256   H     0.42644   0.75014   0.65164   0.00000  Uiso   1.00
H257   H     0.24949   0.83319   0.68326   0.00000  Uiso   1.00
H258   H     0.49417   0.82315   0.35224   0.00000  Uiso   1.00
H259   H     0.47377   0.66901   0.68875   0.00000  Uiso   1.00
H260   H     0.10062   0.84413   0.75543   0.00000  Uiso   1.00
H261   H     0.22071   0.56001   0.50364   0.00000  Uiso   1.00
H262   H     0.28213   0.57459   0.38390   0.00000  Uiso   1.00
H263   H     0.27247   0.50149   0.54349   0.00000  Uiso   1.00
H264   H     0.09551   0.58454   0.57511   0.00000  Uiso   1.00
H265   H     0.36920   0.62134   0.26446   0.00000  Uiso   1.00
H266   H     0.34880   0.46720   0.60097   0.00000  Uiso   1.00
H267   H     0.97565   0.64231   0.66765   0.00000  Uiso   1.00
O268   O     0.47474   0.73608   0.23143   0.00000  Uiso   1.00
O269   O     0.44798   0.53386   0.67293   0.00000  Uiso   1.00
O270   O     0.95841   0.76361   0.76041   0.00000  Uiso   1.00
N271   N     0.45631   0.77366   0.34802   0.00000  Uiso   1.00
N272   N     0.43726   0.62955   0.66263   0.00000  Uiso   1.00
N273   N     0.08839   0.79326   0.72498   0.00000  Uiso   1.00
N274   N     0.38907   0.66506   0.30078   0.00000  Uiso   1.00
N275   N     0.37001   0.52095   0.61539   0.00000  Uiso   1.00
N276   N     0.02115   0.68466   0.67774   0.00000  Uiso   1.00
C277   C     0.22156   0.84267   0.02252   0.00000  Uiso   1.00
C278   C     0.20462   0.86934   0.09938   0.00000  Uiso   1.00
C279   C     0.25615   0.91790   0.13637   0.00000  Uiso   1.00
C280   C     0.22956   0.93547   0.20625   0.00000  Uiso   1.00
C281   C     0.21472   0.98148   0.32077   0.00000  Uiso   1.00
C282   C     0.16881   0.85955   0.00569   0.00000  Uiso   1.00
C283   C     0.19024   0.89987   0.96390   0.00000  Uiso   1.00
C284   C     0.13349   0.90919   0.95491   0.00000  Uiso   1.00
C285   C     0.06306   0.93996   0.92393   0.00000  Uiso   1.00
C286   C     0.19609   0.76132   0.00247   0.00000  Uiso   1.00
C287   C     0.24044   0.71904   0.95796   0.00000  Uiso   1.00
C288   C     0.20665   0.64565   0.94625   0.00000  Uiso   1.00
C289   C     0.17856   0.52389   0.91027   0.00000  Uiso   1.00
C290   C     0.08270   0.78753   0.08084   0.00000  Uiso   1.00
C291   C     0.12919   0.83940   0.13105   0.00000  Uiso   1.00
C292   C     0.10251   0.85690   0.20089   0.00000  Uiso   1.00
C293   C     0.15400   0.90547   0.23798   0.00000  Uiso   1.00
C294   C     0.09339   0.82961   0.03736   0.00000  Uiso   1.00
C295   C     0.03660   0.83887   0.02843   0.00000  Uiso   1.00
C296   C     0.05793   0.87919   0.98664   0.00000  Uiso   1.00
C297   C     0.12066   0.73137   0.03415   0.00000  Uiso   1.00
C298   C     0.08680   0.65804   0.02249   0.00000  Uiso   1.00
C299   C     0.13109   0.61565   0.97798   0.00000  Uiso   1.00
H300   H     0.28028   0.86598   0.99786   0.00000  Uiso   1.00
H301   H     0.31452   0.94107   0.11184   0.00000  Uiso   1.00
H302   H     0.24861   0.92303   0.93939   0.00000  Uiso   1.00
H303   H     0.29880   0.74223   0.93346   0.00000  Uiso   1.00
H304   H     0.31921   0.01113   0.25217   0.00000  Uiso   1.00
H305   H     0.18023   0.97308   0.88854   0.00000  Uiso   1.00
H306   H     0.28608   0.59182   0.87603   0.00000  Uiso   1.00
H307   H     0.02397   0.76421   0.10550   0.00000  Uiso   1.00
H308   H     0.04414   0.83371   0.22539   0.00000  Uiso   1.00
H309   H     0.97823   0.81568   0.05294   0.00000  Uiso   1.00
H310   H     0.02843   0.63488   0.04701   0.00000  Uiso   1.00
H311   H     0.09976   0.92400   0.34434   0.00000  Uiso   1.00
H312   H     0.96078   0.88595   0.98070   0.00000  Uiso   1.00
H313   H     0.06663   0.50469   0.96820   0.00000  Uiso   1.00
O314   O     0.22737   0.01514   0.37518   0.00000  Uiso   1.00
O315   O     0.04504   0.96521   0.89810   0.00000  Uiso   1.00
O316   O     0.18391   0.46501   0.88169   0.00000  Uiso   1.00
N317   N     0.26479   0.98107   0.25741   0.00000  Uiso   1.00
N318   N     0.13486   0.94551   0.91745   0.00000  Uiso   1.00
N319   N     0.23381   0.58906   0.90573   0.00000  Uiso   1.00
N320   N     0.14671   0.93419   0.30700   0.00000  Uiso   1.00
N321   N     0.01678   0.89863   0.96704   0.00000  Uiso   1.00
N322   N     0.11573   0.54218   0.95533   0.00000  Uiso   1.00
C323   C     0.34916   0.48877   0.95783   0.00000  Uiso   1.00
C324   C     0.31891   0.50503   0.03433   0.00000  Uiso   1.00
C325   C     0.27636   0.54947   0.07679   0.00000  Uiso   1.00
C326   C     0.25408   0.55738   0.14529   0.00000  Uiso   1.00
C327   C     0.20409   0.58797   0.26025   0.00000  Uiso   1.00
C328   C     0.31963   0.40758   0.92825   0.00000  Uiso   1.00
C329   C     0.27770   0.37010   0.88152   0.00000  Uiso   1.00
C330   C     0.25604   0.29598   0.86071   0.00000  Uiso   1.00
C331   C     0.20722   0.17529   0.81095   0.00000  Uiso   1.00
C332   C     0.43368   0.50916   0.94253   0.00000  Uiso   1.00
C333   C     0.48765   0.55706   0.90779   0.00000  Uiso   1.00
C334   C     0.56202   0.56844   0.89899   0.00000  Uiso   1.00
C335   C     0.69027   0.60545   0.87140   0.00000  Uiso   1.00
C336   C     0.38526   0.42378   0.00396   0.00000  Uiso   1.00
C337   C     0.33851   0.46973   0.05938   0.00000  Uiso   1.00
C338   C     0.31629   0.47757   0.12783   0.00000  Uiso   1.00
C339   C     0.27373   0.52202   0.17039   0.00000  Uiso   1.00
C340   C     0.33923   0.37229   0.95330   0.00000  Uiso   1.00
C341   C     0.31763   0.29820   0.93256   0.00000  Uiso   1.00
C342   C     0.27568   0.26062   0.88581   0.00000  Uiso   1.00
C343   C     0.45329   0.47386   0.96759   0.00000  Uiso   1.00
C344   C     0.52758   0.48516   0.95883   0.00000  Uiso   1.00
C345   C     0.58166   0.53308   0.92409   0.00000  Uiso   1.00
H346   H     0.33390   0.51625   0.93832   0.00000  Uiso   1.00
H347   H     0.26120   0.57677   0.05738   0.00000  Uiso   1.00
H348   H     0.26255   0.39743   0.86213   0.00000  Uiso   1.00
H349   H     0.47246   0.58437   0.88841   0.00000  Uiso   1.00
H350   H     0.18922   0.62829   0.20043   0.00000  Uiso   1.00
H351   H     0.19208   0.25015   0.78872   0.00000  Uiso   1.00
H352   H     0.63473   0.64433   0.84412   0.00000  Uiso   1.00
H353   H     0.40052   0.39630   0.02347   0.00000  Uiso   1.00
H354   H     0.33147   0.45025   0.14721   0.00000  Uiso   1.00
H355   H     0.33282   0.27091   0.95196   0.00000  Uiso   1.00
H356   H     0.54273   0.45784   0.97823   0.00000  Uiso   1.00
H357   H     0.24625   0.52560   0.27333   0.00000  Uiso   1.00
H358   H     0.24912   0.14745   0.86162   0.00000  Uiso   1.00
H359   H     0.69176   0.54163   0.91702   0.00000  Uiso   1.00
O360   O     0.17109   0.61458   0.31674   0.00000  Uiso   1.00
O361   O     0.17486   0.11847   0.77658   0.00000  Uiso   1.00
O362   O     0.75560   0.63562   0.84927   0.00000  Uiso   1.00
N363   N     0.21213   0.59673   0.20061   0.00000  Uiso   1.00
N364   N     0.21480   0.24318   0.81569   0.00000  Uiso   1.00
N365   N     0.62863   0.61170   0.86747   0.00000  Uiso   1.00
N366   N     0.24282   0.54147   0.23984   0.00000  Uiso   1.00
N367   N     0.24549   0.18793   0.85492   0.00000  Uiso   1.00
N368   N     0.65933   0.55644   0.90670   0.00000  Uiso   1.00
C369   C     0.66167   0.89618   0.96424   0.00000  Uiso   1.00
C370   C     0.61454   0.90919   0.03754   0.00000  Uiso   1.00
C371   C     0.58425   0.86215   0.07473   0.00000  Uiso   1.00
C372   C     0.54284   0.88398   0.14104   0.00000  Uiso   1.00
C373   C     0.47132   0.89408   0.25061   0.00000  Uiso   1.00
C374   C     0.73509   0.95873   0.96415   0.00000  Uiso   1.00
C375   C     0.80616   0.95334   0.93961   0.00000  Uiso   1.00
C376   C     0.86623   0.01688   0.94412   0.00000  Uiso   1.00
C377   C     0.98187   0.10390   0.93970   0.00000  Uiso   1.00
C378   C     0.62188   0.90451   0.92640   0.00000  Uiso   1.00
C379   C     0.59778   0.85354   0.87011   0.00000  Uiso   1.00
C380   C     0.56254   0.87143   0.84283   0.00000  Uiso   1.00
C381   C     0.50241   0.87425   0.77979   0.00000  Uiso   1.00
C382   C     0.64197   0.01859   0.01585   0.00000  Uiso   1.00
C383   C     0.60384   0.97568   0.06558   0.00000  Uiso   1.00
C384   C     0.56245   0.99759   0.13184   0.00000  Uiso   1.00
C385   C     0.53211   0.95059   0.16912   0.00000  Uiso   1.00
C386   C     0.72439   0.02522   0.99218   0.00000  Uiso   1.00
C387   C     0.78437   0.08878   0.99672   0.00000  Uiso   1.00
C388   C     0.85551   0.08349   0.97221   0.00000  Uiso   1.00
C389   C     0.61118   0.97100   0.95443   0.00000  Uiso   1.00
C390   C     0.57598   0.98897   0.92722   0.00000  Uiso   1.00
C391   C     0.55182   0.93804   0.87091   0.00000  Uiso   1.00
H392   H     0.67000   0.84442   0.94241   0.00000  Uiso   1.00
H393   H     0.59255   0.81070   0.05302   0.00000  Uiso   1.00
H394   H     0.81443   0.90188   0.91791   0.00000  Uiso   1.00
H395   H     0.60607   0.80209   0.84843   0.00000  Uiso   1.00
H396   H     0.50199   0.80265   0.18802   0.00000  Uiso   1.00
H397   H     0.96983   0.99491   0.90313   0.00000  Uiso   1.00
H398   H     0.53046   0.78448   0.75660   0.00000  Uiso   1.00
H399   H     0.63364   0.07036   0.03768   0.00000  Uiso   1.00
H400   H     0.55418   0.04904   0.15352   0.00000  Uiso   1.00
H401   H     0.77607   0.14022   0.01842   0.00000  Uiso   1.00
H402   H     0.56771   0.04043   0.94893   0.00000  Uiso   1.00
H403   H     0.47085   0.99610   0.26960   0.00000  Uiso   1.00
H404   H     0.93869   0.18836   0.98470   0.00000  Uiso   1.00
H405   H     0.49933   0.97793   0.83817   0.00000  Uiso   1.00
O406   O     0.43483   0.88129   0.30330   0.00000  Uiso   1.00
O407   O     0.04862   0.13352   0.92952   0.00000  Uiso   1.00
O408   O     0.47218   0.85744   0.73728   0.00000  Uiso   1.00
N409   N     0.50555   0.85110   0.19132   0.00000  Uiso   1.00
N410   N     0.94295   0.03085   0.92497   0.00000  Uiso   1.00
N411   N     0.53220   0.83412   0.78797   0.00000  Uiso   1.00
N412   N     0.48879   0.95519   0.23522   0.00000  Uiso   1.00
N413   N     0.92620   0.13495   0.96886   0.00000  Uiso   1.00
N414   N     0.51545   0.93821   0.83186   0.00000  Uiso   1.00
C415   C     0.16101   0.35409   0.48869   0.00000  Uiso   1.00
C416   C     0.14772   0.38330   0.56524   0.00000  Uiso   1.00
C417   C     0.10230   0.42453   0.60976   0.00000  Uiso   1.00
C418   C     0.09754   0.44601   0.67792   0.00000  Uiso   1.00
C419   C     0.07095   0.49430   0.79331   0.00000  Uiso   1.00
C420   C     0.24554   0.38157   0.45905   0.00000  Uiso   1.00
C421   C     0.28237   0.42134   0.41428   0.00000  Uiso   1.00
C422   C     0.35996   0.44135   0.39304   0.00000  Uiso   1.00
C423   C     0.48525   0.48691   0.34354   0.00000  Uiso   1.00
C424   C     0.13933   0.27329   0.47048   0.00000  Uiso   1.00
C425   C     0.08686   0.22202   0.43531   0.00000  Uiso   1.00
C426   C     0.07504   0.15087   0.42369   0.00000  Uiso   1.00
C427   C     0.03541   0.02832   0.39194   0.00000  Uiso   1.00
C428   C     0.23332   0.31890   0.53057   0.00000  Uiso   1.00
C429   C     0.18700   0.36418   0.58798   0.00000  Uiso   1.00
C430   C     0.18230   0.38560   0.65609   0.00000  Uiso   1.00
C431   C     0.13688   0.42685   0.70071   0.00000  Uiso   1.00
C432   C     0.28482   0.36245   0.48179   0.00000  Uiso   1.00
C433   C     0.36237   0.38240   0.46061   0.00000  Uiso   1.00
C434   C     0.39931   0.42220   0.41583   0.00000  Uiso   1.00
C435   C     0.17860   0.25418   0.49323   0.00000  Uiso   1.00
C436   C     0.16686   0.18309   0.48165   0.00000  Uiso   1.00
C437   C     0.11439   0.13172   0.44648   0.00000  Uiso   1.00
H438   H     0.13044   0.36897   0.47098   0.00000  Uiso   1.00
H439   H     0.07192   0.43932   0.59213   0.00000  Uiso   1.00
H440   H     0.25196   0.43612   0.39668   0.00000  Uiso   1.00
H441   H     0.05648   0.23683   0.41772   0.00000  Uiso   1.00
H442   H     0.02438   0.50890   0.73649   0.00000  Uiso   1.00
H443   H     0.40402   0.50213   0.32435   0.00000  Uiso   1.00
H444   H     0.99181   0.08190   0.36870   0.00000  Uiso   1.00
H445   H     0.26390   0.30401   0.54827   0.00000  Uiso   1.00
H446   H     0.21270   0.37080   0.67368   0.00000  Uiso   1.00
H447   H     0.39275   0.36760   0.47822   0.00000  Uiso   1.00
H448   H     0.19727   0.16832   0.49926   0.00000  Uiso   1.00
H449   H     0.13865   0.45329   0.80267   0.00000  Uiso   1.00
H450   H     0.51828   0.44652   0.39053   0.00000  Uiso   1.00
H451   H     0.10607   0.02629   0.43489   0.00000  Uiso   1.00
O452   O     0.04545   0.52622   0.85068   0.00000  Uiso   1.00
O453   O     0.54351   0.51733   0.30995   0.00000  Uiso   1.00
O454   O     0.00270   0.96600   0.36815   0.00000  Uiso   1.00
N455   N     0.05829   0.48664   0.73486   0.00000  Uiso   1.00
N456   N     0.41323   0.48032   0.34954   0.00000  Uiso   1.00
N457   N     0.02786   0.08744   0.39099   0.00000  Uiso   1.00
N458   N     0.11977   0.45671   0.77047   0.00000  Uiso   1.00
N459   N     0.47471   0.45039   0.38515   0.00000  Uiso   1.00
N460   N     0.08934   0.05751   0.42660   0.00000  Uiso   1.00
C461   C     0.76658   0.95024   0.44217   0.00000  Uiso   1.00
C462   C     0.73735   0.97123   0.51898   0.00000  Uiso   1.00
C463   C     0.78023   0.01768   0.56436   0.00000  Uiso   1.00
C464   C     0.74298   0.02994   0.63262   0.00000  Uiso   1.00
C465   C     0.70936   0.06752   0.74853   0.00000  Uiso   1.00
C466   C     0.74330   0.86882   0.41735   0.00000  Uiso   1.00
C467   C     0.79119   0.82917   0.37726   0.00000  Uiso   1.00
C468   C     0.75894   0.75521   0.35997   0.00000  Uiso   1.00
C469   C     0.73455   0.63380   0.31805   0.00000  Uiso   1.00
C470   C     0.72150   0.96898   0.41798   0.00000  Uiso   1.00
C471   C     0.75106   0.01354   0.37840   0.00000  Uiso   1.00
C472   C     0.70046   0.02390   0.36161   0.00000  Uiso   1.00
C473   C     0.64223   0.05802   0.32067   0.00000  Uiso   1.00
C474   C     0.62417   0.88940   0.48272   0.00000  Uiso   1.00
C475   C     0.65999   0.93818   0.54100   0.00000  Uiso   1.00
C476   C     0.62266   0.95036   0.60922   0.00000  Uiso   1.00
C477   C     0.66548   0.99683   0.65469   0.00000  Uiso   1.00
C478   C     0.66595   0.83577   0.43937   0.00000  Uiso   1.00
C479   C     0.63362   0.76185   0.42213   0.00000  Uiso   1.00
C480   C     0.68144   0.72210   0.38203   0.00000  Uiso   1.00
C481   C     0.64415   0.93594   0.44000   0.00000  Uiso   1.00
C482   C     0.59349   0.94623   0.42327   0.00000  Uiso   1.00
C483   C     0.62296   0.99079   0.38368   0.00000  Uiso   1.00
H484   H     0.82681   0.97597   0.42503   0.00000  Uiso   1.00
H485   H     0.84009   0.04324   0.54729   0.00000  Uiso   1.00
H486   H     0.85104   0.85476   0.36022   0.00000  Uiso   1.00
H487   H     0.81092   0.03911   0.36137   0.00000  Uiso   1.00
H488   H     0.82072   0.10324   0.69256   0.00000  Uiso   1.00
H489   H     0.84381   0.70580   0.29810   0.00000  Uiso   1.00
H490   H     0.75920   0.09454   0.30050   0.00000  Uiso   1.00
H491   H     0.56394   0.86366   0.49987   0.00000  Uiso   1.00
H492   H     0.56280   0.92478   0.62625   0.00000  Uiso   1.00
H493   H     0.57376   0.73629   0.43918   0.00000  Uiso   1.00
H494   H     0.53363   0.92064   0.44032   0.00000  Uiso   1.00
H495   H     0.59566   0.00708   0.75664   0.00000  Uiso   1.00
H496   H     0.61875   0.60965   0.36218   0.00000  Uiso   1.00
H497   H     0.53414   0.99838   0.36458   0.00000  Uiso   1.00
O498   O     0.71218   0.09737   0.80639   0.00000  Uiso   1.00
O499   O     0.74248   0.57596   0.28886   0.00000  Uiso   1.00
O500   O     0.63148   0.08597   0.29201   0.00000  Uiso   1.00
N501   N     0.76790   0.07223   0.69030   0.00000  Uiso   1.00
N502   N     0.78949   0.70065   0.32151   0.00000  Uiso   1.00
N503   N     0.71039   0.06407   0.32374   0.00000  Uiso   1.00
N504   N     0.64680   0.02049   0.72478   0.00000  Uiso   1.00
N505   N     0.66839   0.64892   0.35599   0.00000  Uiso   1.00
N506   N     0.58929   0.01234   0.35822   0.00000  Uiso   1.00
C507   C     0.83201   0.38082   0.50799   0.00000  Uiso   1.00
C508   C     0.82206   0.41368   0.58407   0.00000  Uiso   1.00
C509   C     0.79356   0.37604   0.62977   0.00000  Uiso   1.00
C510   C     0.78895   0.41593   0.69725   0.00000  Uiso   1.00
C511   C     0.76995   0.45555   0.81220   0.00000  Uiso   1.00
C512   C     0.78860   0.40862   0.49112   0.00000  Uiso   1.00
C513   C     0.73197   0.36673   0.45865   0.00000  Uiso   1.00
C514   C     0.69920   0.40237   0.44787   0.00000  Uiso   1.00
C515   C     0.62830   0.43415   0.41845   0.00000  Uiso   1.00
C516   C     0.91448   0.41459   0.47523   0.00000  Uiso   1.00
C517   C     0.96369   0.37772   0.42938   0.00000  Uiso   1.00
C518   C     0.03689   0.41839   0.40521   0.00000  Uiso   1.00
C519   C     0.16144   0.45943   0.35112   0.00000  Uiso   1.00
C520   C     0.87450   0.51860   0.54657   0.00000  Uiso   1.00
C521   C     0.84514   0.48851   0.60502   0.00000  Uiso   1.00
C522   C     0.84058   0.52847   0.67245   0.00000  Uiso   1.00
C523   C     0.81207   0.49090   0.71824   0.00000  Uiso   1.00
C524   C     0.81168   0.48346   0.51207   0.00000  Uiso   1.00
C525   C     0.77899   0.51917   0.50133   0.00000  Uiso   1.00
C526   C     0.72232   0.47734   0.46886   0.00000  Uiso   1.00
C527   C     0.93756   0.48943   0.49618   0.00000  Uiso   1.00
C528   C     0.01070   0.53016   0.47207   0.00000  Uiso   1.00
C529   C     0.06002   0.49336   0.42620   0.00000  Uiso   1.00
H530   H     0.81403   0.32256   0.49168   0.00000  Uiso   1.00
H531   H     0.77569   0.31812   0.61354   0.00000  Uiso   1.00
H532   H     0.71412   0.30882   0.44243   0.00000  Uiso   1.00
H533   H     0.94580   0.31981   0.41318   0.00000  Uiso   1.00
H534   H     0.74334   0.34620   0.75788   0.00000  Uiso   1.00
H535   H     0.61353   0.32659   0.39708   0.00000  Uiso   1.00
H536   H     0.10208   0.34976   0.33539   0.00000  Uiso   1.00
H537   H     0.89248   0.57687   0.56288   0.00000  Uiso   1.00
H538   H     0.85844   0.58638   0.68865   0.00000  Uiso   1.00
H539   H     0.79687   0.57708   0.51754   0.00000  Uiso   1.00
H540   H     0.02855   0.58807   0.48829   0.00000  Uiso   1.00
H541   H     0.81050   0.56393   0.81885   0.00000  Uiso   1.00
H542   H     0.68069   0.54432   0.45804   0.00000  Uiso   1.00
H543   H     0.16924   0.56749   0.39635   0.00000  Uiso   1.00
O544   O     0.75309   0.45673   0.86982   0.00000  Uiso   1.00
O545   O     0.58280   0.43101   0.39645   0.00000  Uiso   1.00
O546   O     0.22376   0.46140   0.31551   0.00000  Uiso   1.00
N547   N     0.76383   0.39614   0.75497   0.00000  Uiso   1.00
N548   N     0.64246   0.37780   0.41765   0.00000  Uiso   1.00
N549   N     0.09920   0.39946   0.35996   0.00000  Uiso   1.00
N550   N     0.79997   0.51330   0.78777   0.00000  Uiso   1.00
N551   N     0.67860   0.49496   0.45046   0.00000  Uiso   1.00
N552   N     0.13534   0.51662   0.39276   0.00000  Uiso   1.00
