data_job_06610
_audit_creation_date              2018-12-19
_audit_creation_method            'Materials Studio'
_symmetry_space_group_name_H-M    'P1'
_symmetry_Int_Tables_number       1
_symmetry_cell_setting            triclinic
loop_
_symmetry_equiv_pos_as_xyz
  x,y,z
_cell_length_a                    15.7542
_cell_length_b                    21.6891
_cell_length_c                    24.7662
_cell_angle_alpha                 110.5330
_cell_angle_beta                  86.2546
_cell_angle_gamma                 90.0350
loop_
_atom_site_label
_atom_site_type_symbol
_atom_site_fract_x
_atom_site_fract_y
_atom_site_fract_z
_atom_site_U_iso_or_equiv
_atom_site_adp_type
_atom_site_occupancy
C1     C     0.74799   0.08195   0.60202   0.00000  Uiso   1.00
C2     C     0.74261   0.00768   0.57174   0.00000  Uiso   1.00
C3     C     0.75525   0.97402   0.51267   0.00000  Uiso   1.00
C4     C     0.74747   0.90609   0.49348   0.00000  Uiso   1.00
C5     C     0.74206   0.79579   0.44060   0.00000  Uiso   1.00
C6     C     0.66271   0.10451   0.63628   0.00000  Uiso   1.00
C7     C     0.60818   0.15227   0.63147   0.00000  Uiso   1.00
C8     C     0.53315   0.16586   0.66662   0.00000  Uiso   1.00
C9     C     0.40372   0.20592   0.71397   0.00000  Uiso   1.00
C10    C     0.81380   0.09202   0.64666   0.00000  Uiso   1.00
C11    C     0.88630   0.12930   0.65060   0.00000  Uiso   1.00
C12    C     0.93848   0.13239   0.69450   0.00000  Uiso   1.00
C13    C     0.04364   0.15306   0.75798   0.00000  Uiso   1.00
C14    C     0.71171   0.02117   0.67299   0.00000  Uiso   1.00
C15    C     0.72289   0.97466   0.61029   0.00000  Uiso   1.00
C16    C     0.71510   0.90677   0.59119   0.00000  Uiso   1.00
C17    C     0.72773   0.87302   0.53210   0.00000  Uiso   1.00
C18    C     0.64300   0.07149   0.67483   0.00000  Uiso   1.00
C19    C     0.56803   0.08502   0.71000   0.00000  Uiso   1.00
C20    C     0.51341   0.13279   0.70524   0.00000  Uiso   1.00
C21    C     0.79409   0.05900   0.68521   0.00000  Uiso   1.00
C22    C     0.84616   0.06204   0.72912   0.00000  Uiso   1.00
C23    C     0.91873   0.09931   0.73312   0.00000  Uiso   1.00
H24    H     0.76333   0.10766   0.57201   0.00000  Uiso   1.00
H25    H     0.77049   0.99959   0.48285   0.00000  Uiso   1.00
H26    H     0.62345   0.17781   0.60164   0.00000  Uiso   1.00
H27    H     0.90153   0.15484   0.62076   0.00000  Uiso   1.00
H28    H     0.76970   0.86521   0.40100   0.00000  Uiso   1.00
H29    H     0.45968   0.24103   0.65150   0.00000  Uiso   1.00
H30    H     0.04607   0.19259   0.69182   0.00000  Uiso   1.00
H31    H     0.69636   0.99547   0.70300   0.00000  Uiso   1.00
H32    H     0.69985   0.88123   0.62103   0.00000  Uiso   1.00
H33    H     0.55281   0.05946   0.73983   0.00000  Uiso   1.00
H34    H     0.83089   0.03649   0.75895   0.00000  Uiso   1.00
H35    H     0.71237   0.76915   0.51315   0.00000  Uiso   1.00
H36    H     0.40234   0.14498   0.76365   0.00000  Uiso   1.00
H37    H     0.98873   0.09653   0.80397   0.00000  Uiso   1.00
O38    O     0.74451   0.74406   0.40079   0.00000  Uiso   1.00
O39    O     0.33777   0.23713   0.72944   0.00000  Uiso   1.00
O40    O     0.10710   0.17357   0.78234   0.00000  Uiso   1.00
N41    N     0.75575   0.85828   0.43865   0.00000  Uiso   1.00
N42    N     0.46588   0.20964   0.67284   0.00000  Uiso   1.00
N43    N     0.01410   0.16437   0.71055   0.00000  Uiso   1.00
N44    N     0.72490   0.80659   0.49900   0.00000  Uiso   1.00
N45    N     0.43503   0.15795   0.73319   0.00000  Uiso   1.00
N46    N     0.98324   0.11268   0.77090   0.00000  Uiso   1.00
C47    C     0.16205   0.28344   0.36978   0.00000  Uiso   1.00
C48    C     0.16451   0.35551   0.37478   0.00000  Uiso   1.00
C49    C     0.17261   0.40885   0.42531   0.00000  Uiso   1.00
C50    C     0.17353   0.47089   0.42084   0.00000  Uiso   1.00
C51    C     0.17836   0.58154   0.43668   0.00000  Uiso   1.00
C52    C     0.07930   0.25711   0.34249   0.00000  Uiso   1.00
C53    C     0.01578   0.22771   0.36588   0.00000  Uiso   1.00
C54    C     0.94499   0.20691   0.33422   0.00000  Uiso   1.00
C55    C     0.81757   0.16475   0.29993   0.00000  Uiso   1.00
C56    C     0.23357   0.24819   0.32504   0.00000  Uiso   1.00
C57    C     0.29974   0.21127   0.33374   0.00000  Uiso   1.00
C58    C     0.35881   0.18295   0.28739   0.00000  Uiso   1.00
C59    C     0.47091   0.12694   0.22600   0.00000  Uiso   1.00
C60    C     0.14927   0.29877   0.27197   0.00000  Uiso   1.00
C61    C     0.15756   0.36384   0.32165   0.00000  Uiso   1.00
C62    C     0.15847   0.42582   0.31710   0.00000  Uiso   1.00
C63    C     0.16658   0.47924   0.36762   0.00000  Uiso   1.00
C64    C     0.07236   0.26544   0.28937   0.00000  Uiso   1.00
C65    C     0.00164   0.24468   0.25767   0.00000  Uiso   1.00
C66    C     0.93803   0.21526   0.28100   0.00000  Uiso   1.00
C67    C     0.22663   0.25652   0.27192   0.00000  Uiso   1.00
C68    C     0.28560   0.22824   0.22554   0.00000  Uiso   1.00
C69    C     0.35186   0.19129   0.23417   0.00000  Uiso   1.00
H70    H     0.16745   0.27695   0.41114   0.00000  Uiso   1.00
H71    H     0.17798   0.40238   0.46642   0.00000  Uiso   1.00
H72    H     0.02118   0.22127   0.40699   0.00000  Uiso   1.00
H73    H     0.30509   0.20484   0.37486   0.00000  Uiso   1.00
H74    H     0.18656   0.54513   0.50428   0.00000  Uiso   1.00
H75    H     0.85595   0.16321   0.37897   0.00000  Uiso   1.00
H76    H     0.45464   0.12856   0.31121   0.00000  Uiso   1.00
H77    H     0.14386   0.30526   0.23061   0.00000  Uiso   1.00
H78    H     0.15309   0.43225   0.27598   0.00000  Uiso   1.00
H79    H     0.99629   0.25113   0.21656   0.00000  Uiso   1.00
H80    H     0.28021   0.23470   0.18443   0.00000  Uiso   1.00
H81    H     0.16636   0.56937   0.34972   0.00000  Uiso   1.00
H82    H     0.83575   0.18745   0.22441   0.00000  Uiso   1.00
H83    H     0.43444   0.15280   0.15665   0.00000  Uiso   1.00
O84    O     0.18293   0.64028   0.46010   0.00000  Uiso   1.00
O85    O     0.74920   0.13921   0.29570   0.00000  Uiso   1.00
O86    O     0.53466   0.09375   0.20681   0.00000  Uiso   1.00
N87    N     0.18055   0.53340   0.46167   0.00000  Uiso   1.00
N88    N     0.87145   0.17634   0.34452   0.00000  Uiso   1.00
N89    N     0.43116   0.14393   0.28117   0.00000  Uiso   1.00
N90    N     0.16968   0.54645   0.37850   0.00000  Uiso   1.00
N91    N     0.86058   0.18939   0.26135   0.00000  Uiso   1.00
N92    N     0.42029   0.15698   0.19800   0.00000  Uiso   1.00
C93    C     0.10546   0.64533   0.90875   0.00000  Uiso   1.00
C94    C     0.10370   0.67555   0.97447   0.00000  Uiso   1.00
C95    C     0.08326   0.64300   0.01268   0.00000  Uiso   1.00
C96    C     0.08532   0.67931   0.07120   0.00000  Uiso   1.00
C97    C     0.07924   0.71613   0.17028   0.00000  Uiso   1.00
C98    C     0.04546   0.68804   0.89004   0.00000  Uiso   1.00
C99    C     0.97607   0.66598   0.85726   0.00000  Uiso   1.00
C100   C     0.92911   0.71281   0.84471   0.00000  Uiso   1.00
C101   C     0.83266   0.76901   0.81267   0.00000  Uiso   1.00
C102   C     0.19461   0.65626   0.88641   0.00000  Uiso   1.00
C103   C     0.25062   0.60748   0.85055   0.00000  Uiso   1.00
C104   C     0.32923   0.62756   0.83492   0.00000  Uiso   1.00
C105   C     0.46436   0.63442   0.79724   0.00000  Uiso   1.00
C106   C     0.14545   0.76770   0.94475   0.00000  Uiso   1.00
C107   C     0.12542   0.74201   0.99403   0.00000  Uiso   1.00
C108   C     0.12751   0.77838   0.05251   0.00000  Uiso   1.00
C109   C     0.10708   0.74589   0.09079   0.00000  Uiso   1.00
C110   C     0.06718   0.75450   0.90960   0.00000  Uiso   1.00
C111   C     0.02032   0.80137   0.89709   0.00000  Uiso   1.00
C112   C     0.95088   0.77940   0.86430   0.00000  Uiso   1.00
C113   C     0.21634   0.72272   0.90596   0.00000  Uiso   1.00
C114   C     0.29487   0.74288   0.89039   0.00000  Uiso   1.00
C115   C     0.35099   0.69414   0.85451   0.00000  Uiso   1.00
H116   H     0.08854   0.59358   0.89352   0.00000  Uiso   1.00
H117   H     0.06644   0.59156   0.99752   0.00000  Uiso   1.00
H118   H     0.95928   0.61454   0.84212   0.00000  Uiso   1.00
H119   H     0.23379   0.55605   0.83542   0.00000  Uiso   1.00
H120   H     0.05150   0.61863   0.12145   0.00000  Uiso   1.00
H121   H     0.82555   0.66709   0.79377   0.00000  Uiso   1.00
H122   H     0.40441   0.54376   0.77963   0.00000  Uiso   1.00
H123   H     0.16236   0.81945   0.95998   0.00000  Uiso   1.00
H124   H     0.14432   0.82982   0.06763   0.00000  Uiso   1.00
H125   H     0.03715   0.85280   0.91223   0.00000  Uiso   1.00
H126   H     0.31166   0.79432   0.90553   0.00000  Uiso   1.00
H127   H     0.11470   0.81202   0.17836   0.00000  Uiso   1.00
H128   H     0.88876   0.86048   0.85066   0.00000  Uiso   1.00
H129   H     0.46761   0.73714   0.83653   0.00000  Uiso   1.00
O130   O     0.06987   0.71808   0.21952   0.00000  Uiso   1.00
O131   O     0.77345   0.78165   0.78960   0.00000  Uiso   1.00
O132   O     0.53289   0.61984   0.77106   0.00000  Uiso   1.00
N133   N     0.06886   0.66272   0.12007   0.00000  Uiso   1.00
N134   N     0.85761   0.70803   0.81371   0.00000  Uiso   1.00
N135   N     0.39878   0.59272   0.80049   0.00000  Uiso   1.00
N136   N     0.10288   0.76678   0.15069   0.00000  Uiso   1.00
N137   N     0.89162   0.81209   0.84433   0.00000  Uiso   1.00
N138   N     0.43280   0.69678   0.83110   0.00000  Uiso   1.00
C139   C     0.67262   0.49892   0.36779   0.00000  Uiso   1.00
C140   C     0.66731   0.43240   0.37576   0.00000  Uiso   1.00
C141   C     0.66660   0.42234   0.42812   0.00000  Uiso   1.00
C142   C     0.66141   0.35773   0.42627   0.00000  Uiso   1.00
C143   C     0.65378   0.26244   0.44662   0.00000  Uiso   1.00
C144   C     0.59519   0.50416   0.33564   0.00000  Uiso   1.00
C145   C     0.53385   0.55444   0.35426   0.00000  Uiso   1.00
C146   C     0.46795   0.55025   0.31864   0.00000  Uiso   1.00
C147   C     0.34839   0.56639   0.27667   0.00000  Uiso   1.00
C148   C     0.74991   0.49385   0.32591   0.00000  Uiso   1.00
C149   C     0.81864   0.53547   0.33635   0.00000  Uiso   1.00
C150   C     0.88300   0.52260   0.29253   0.00000  Uiso   1.00
C151   C     0.00365   0.52273   0.23546   0.00000  Uiso   1.00
C152   C     0.66468   0.40208   0.27140   0.00000  Uiso   1.00
C153   C     0.66299   0.37980   0.32341   0.00000  Uiso   1.00
C154   C     0.65781   0.31519   0.32148   0.00000  Uiso   1.00
C155   C     0.65709   0.30503   0.37383   0.00000  Uiso   1.00
C156   C     0.59087   0.45156   0.28329   0.00000  Uiso   1.00
C157   C     0.52506   0.44729   0.24762   0.00000  Uiso   1.00
C158   C     0.46363   0.49755   0.26619   0.00000  Uiso   1.00
C159   C     0.74559   0.44124   0.27356   0.00000  Uiso   1.00
C160   C     0.80985   0.42832   0.22971   0.00000  Uiso   1.00
C161   C     0.87867   0.46991   0.24008   0.00000  Uiso   1.00
H162   H     0.67598   0.53988   0.40855   0.00000  Uiso   1.00
H163   H     0.66993   0.46306   0.46863   0.00000  Uiso   1.00
H164   H     0.53721   0.59514   0.39478   0.00000  Uiso   1.00
H165   H     0.82196   0.57617   0.37687   0.00000  Uiso   1.00
H166   H     0.66130   0.35470   0.51215   0.00000  Uiso   1.00
H167   H     0.38146   0.63322   0.35643   0.00000  Uiso   1.00
H168   H     0.98191   0.59321   0.31866   0.00000  Uiso   1.00
H169   H     0.66131   0.36112   0.23064   0.00000  Uiso   1.00
H170   H     0.65447   0.27449   0.28096   0.00000  Uiso   1.00
H171   H     0.52174   0.40658   0.20711   0.00000  Uiso   1.00
H172   H     0.80649   0.38760   0.18920   0.00000  Uiso   1.00
H173   H     0.64874   0.20165   0.35983   0.00000  Uiso   1.00
H174   H     0.36890   0.48017   0.20410   0.00000  Uiso   1.00
H175   H     0.96935   0.44016   0.16634   0.00000  Uiso   1.00
O176   O     0.65075   0.22441   0.47231   0.00000  Uiso   1.00
O177   O     0.28362   0.58983   0.26799   0.00000  Uiso   1.00
O178   O     0.07140   0.53733   0.21845   0.00000  Uiso   1.00
N179   N     0.65930   0.33056   0.46940   0.00000  Uiso   1.00
N180   N     0.39766   0.59096   0.32381   0.00000  Uiso   1.00
N181   N     0.95902   0.55356   0.28850   0.00000  Uiso   1.00
N182   N     0.65254   0.24821   0.38743   0.00000  Uiso   1.00
N183   N     0.39090   0.50860   0.24184   0.00000  Uiso   1.00
N184   N     0.95226   0.47121   0.20653   0.00000  Uiso   1.00
C185   C     0.15982   0.93311   0.60445   0.00000  Uiso   1.00
C186   C     0.16089   0.99987   0.59677   0.00000  Uiso   1.00
C187   C     0.12096   0.01549   0.55476   0.00000  Uiso   1.00
C188   C     0.12951   0.07928   0.55497   0.00000  Uiso   1.00
C189   C     0.12402   0.17588   0.53686   0.00000  Uiso   1.00
C190   C     0.12486   0.94620   0.66644   0.00000  Uiso   1.00
C191   C     0.05463   0.91668   0.68302   0.00000  Uiso   1.00
C192   C     0.03285   0.93529   0.74188   0.00000  Uiso   1.00
C193   C     0.97145   0.94853   0.83194   0.00000  Uiso   1.00
C194   C     0.25276   0.91188   0.60158   0.00000  Uiso   1.00
C195   C     0.29008   0.85351   0.56362   0.00000  Uiso   1.00
C196   C     0.37598   0.84322   0.56788   0.00000  Uiso   1.00
C197   C     0.51318   0.80318   0.55723   0.00000  Uiso   1.00
C198   C     0.24600   0.01863   0.67951   0.00000  Uiso   1.00
C199   C     0.20770   0.04632   0.63754   0.00000  Uiso   1.00
C200   C     0.21631   0.11010   0.63781   0.00000  Uiso   1.00
C201   C     0.17641   0.12582   0.59581   0.00000  Uiso   1.00
C202   C     0.17166   0.99264   0.70722   0.00000  Uiso   1.00
C203   C     0.14998   0.01130   0.76607   0.00000  Uiso   1.00
C204   C     0.07974   0.98183   0.78272   0.00000  Uiso   1.00
C205   C     0.29957   0.95833   0.64235   0.00000  Uiso   1.00
C206   C     0.38543   0.94813   0.64667   0.00000  Uiso   1.00
C207   C     0.42288   0.88976   0.60873   0.00000  Uiso   1.00
H208   H     0.12337   0.89695   0.57271   0.00000  Uiso   1.00
H209   H     0.08474   0.97953   0.52322   0.00000  Uiso   1.00
H210   H     0.01843   0.88073   0.65145   0.00000  Uiso   1.00
H211   H     0.25384   0.81758   0.53208   0.00000  Uiso   1.00
H212   H     0.06252   0.09158   0.48634   0.00000  Uiso   1.00
H213   H     0.92272   0.88324   0.75674   0.00000  Uiso   1.00
H214   H     0.41913   0.75006   0.50501   0.00000  Uiso   1.00
H215   H     0.28244   0.05479   0.71126   0.00000  Uiso   1.00
H216   H     0.25254   0.14604   0.66937   0.00000  Uiso   1.00
H217   H     0.18623   0.04724   0.79761   0.00000  Uiso   1.00
H218   H     0.42164   0.98408   0.67823   0.00000  Uiso   1.00
H219   H     0.19871   0.22672   0.60497   0.00000  Uiso   1.00
H220   H     0.05891   0.01839   0.87536   0.00000  Uiso   1.00
H221   H     0.55532   0.88521   0.62363   0.00000  Uiso   1.00
O222   O     0.10805   0.21633   0.51561   0.00000  Uiso   1.00
O223   O     0.92464   0.94300   0.87035   0.00000  Uiso   1.00
O224   O     0.57592   0.76827   0.54009   0.00000  Uiso   1.00
N225   N     0.09869   0.11086   0.52000   0.00000  Uiso   1.00
N226   N     0.96797   0.91609   0.77280   0.00000  Uiso   1.00
N227   N     0.43207   0.79156   0.53747   0.00000  Uiso   1.00
N228   N     0.17198   0.18358   0.58383   0.00000  Uiso   1.00
N229   N     0.04126   0.98881   0.83663   0.00000  Uiso   1.00
N230   N     0.50536   0.86428   0.60130   0.00000  Uiso   1.00
C231   C     0.64826   0.70116   0.05859   0.00000  Uiso   1.00
C232   C     0.64283   0.65641   0.99581   0.00000  Uiso   1.00
C233   C     0.65229   0.58830   0.97477   0.00000  Uiso   1.00
C234   C     0.64508   0.55634   0.91597   0.00000  Uiso   1.00
C235   C     0.63906   0.48153   0.82403   0.00000  Uiso   1.00
C236   C     0.56459   0.74067   0.07592   0.00000  Uiso   1.00
C237   C     0.50827   0.74342   0.12225   0.00000  Uiso   1.00
C238   C     0.43521   0.78240   0.13088   0.00000  Uiso   1.00
C239   C     0.30775   0.83845   0.16335   0.00000  Uiso   1.00
C240   C     0.71704   0.75050   0.05811   0.00000  Uiso   1.00
C241   C     0.78890   0.76152   0.08947   0.00000  Uiso   1.00
C242   C     0.84417   0.80878   0.08312   0.00000  Uiso   1.00
C243   C     0.95341   0.88009   0.08793   0.00000  Uiso   1.00
C244   C     0.61864   0.76551   0.99157   0.00000  Uiso   1.00
C245   C     0.62674   0.69136   0.95941   0.00000  Uiso   1.00
C246   C     0.61952   0.65950   0.90062   0.00000  Uiso   1.00
C247   C     0.62896   0.59135   0.87950   0.00000  Uiso   1.00
C248   C     0.54850   0.77562   0.03952   0.00000  Uiso   1.00
C249   C     0.47550   0.81461   0.04810   0.00000  Uiso   1.00
C250   C     0.41909   0.81741   0.09442   0.00000  Uiso   1.00
C251   C     0.70096   0.78545   0.02171   0.00000  Uiso   1.00
C252   C     0.75613   0.83271   0.01532   0.00000  Uiso   1.00
C253   C     0.82805   0.84380   0.04666   0.00000  Uiso   1.00
H254   H     0.66078   0.67395   0.08693   0.00000  Uiso   1.00
H255   H     0.66473   0.56127   0.00296   0.00000  Uiso   1.00
H256   H     0.52075   0.71637   0.15041   0.00000  Uiso   1.00
H257   H     0.80133   0.73446   0.11763   0.00000  Uiso   1.00
H258   H     0.66199   0.45176   0.89381   0.00000  Uiso   1.00
H259   H     0.35840   0.77881   0.20473   0.00000  Uiso   1.00
H260   H     0.95006   0.81696   0.13562   0.00000  Uiso   1.00
H261   H     0.60611   0.79272   0.96323   0.00000  Uiso   1.00
H262   H     0.60707   0.68656   0.87246   0.00000  Uiso   1.00
H263   H     0.46308   0.84165   0.01992   0.00000  Uiso   1.00
H264   H     0.74366   0.85975   0.98714   0.00000  Uiso   1.00
H265   H     0.61518   0.55344   0.78790   0.00000  Uiso   1.00
H266   H     0.31159   0.88050   0.09882   0.00000  Uiso   1.00
H267   H     0.90325   0.91865   0.02971   0.00000  Uiso   1.00
O268   O     0.64017   0.43062   0.78338   0.00000  Uiso   1.00
O269   O     0.24188   0.85970   0.19131   0.00000  Uiso   1.00
O270   O     0.01812   0.90975   0.10063   0.00000  Uiso   1.00
N271   N     0.65086   0.49026   0.88134   0.00000  Uiso   1.00
N272   N     0.36701   0.79602   0.17203   0.00000  Uiso   1.00
N273   N     0.92015   0.83171   0.10742   0.00000  Uiso   1.00
N274   N     0.62567   0.54497   0.82435   0.00000  Uiso   1.00
N275   N     0.34183   0.85074   0.11504   0.00000  Uiso   1.00
N276   N     0.89496   0.88642   0.05043   0.00000  Uiso   1.00
C277   C     0.42628   0.85493   0.41841   0.00000  Uiso   1.00
C278   C     0.40801   0.92869   0.43632   0.00000  Uiso   1.00
C279   C     0.41442   0.97491   0.49123   0.00000  Uiso   1.00
C280   C     0.39497   0.03998   0.49882   0.00000  Uiso   1.00
C281   C     0.37044   0.15176   0.53356   0.00000  Uiso   1.00
C282   C     0.49378   0.83781   0.36808   0.00000  Uiso   1.00
C283   C     0.57230   0.80761   0.36561   0.00000  Uiso   1.00
C284   C     0.62505   0.79616   0.31576   0.00000  Uiso   1.00
C285   C     0.73365   0.76681   0.24454   0.00000  Uiso   1.00
C286   C     0.34558   0.82115   0.39318   0.00000  Uiso   1.00
C287   C     0.29950   0.77692   0.41181   0.00000  Uiso   1.00
C288   C     0.22748   0.75143   0.38308   0.00000  Uiso   1.00
C289   C     0.10598   0.69621   0.35084   0.00000  Uiso   1.00
C290   C     0.38034   0.88830   0.33426   0.00000  Uiso   1.00
C291   C     0.38306   0.94682   0.39060   0.00000  Uiso   1.00
C292   C     0.36359   0.01183   0.39812   0.00000  Uiso   1.00
C293   C     0.36997   0.05814   0.45303   0.00000  Uiso   1.00
C294   C     0.46883   0.85594   0.32237   0.00000  Uiso   1.00
C295   C     0.52147   0.84453   0.27250   0.00000  Uiso   1.00
C296   C     0.60005   0.81432   0.26996   0.00000  Uiso   1.00
C297   C     0.32062   0.83928   0.34747   0.00000  Uiso   1.00
C298   C     0.24867   0.81385   0.31870   0.00000  Uiso   1.00
C299   C     0.20249   0.76959   0.33729   0.00000  Uiso   1.00
H300   H     0.44572   0.84081   0.45400   0.00000  Uiso   1.00
H301   H     0.43374   0.96086   0.52659   0.00000  Uiso   1.00
H302   H     0.59159   0.79358   0.40099   0.00000  Uiso   1.00
H303   H     0.31883   0.76290   0.44718   0.00000  Uiso   1.00
H304   H     0.40950   0.10196   0.58690   0.00000  Uiso   1.00
H305   H     0.74231   0.74921   0.32206   0.00000  Uiso   1.00
H306   H     0.16715   0.68452   0.41947   0.00000  Uiso   1.00
H307   H     0.36091   0.90241   0.29867   0.00000  Uiso   1.00
H308   H     0.34428   0.02585   0.36274   0.00000  Uiso   1.00
H309   H     0.50213   0.85856   0.23714   0.00000  Uiso   1.00
H310   H     0.22938   0.82789   0.28333   0.00000  Uiso   1.00
H311   H     0.33689   0.15470   0.45392   0.00000  Uiso   1.00
H312   H     0.66971   0.80195   0.18907   0.00000  Uiso   1.00
H313   H     0.09455   0.73726   0.28648   0.00000  Uiso   1.00
O314   O     0.36381   0.20842   0.56535   0.00000  Uiso   1.00
O315   O     0.80045   0.74561   0.21789   0.00000  Uiso   1.00
O316   O     0.04585   0.66075   0.34569   0.00000  Uiso   1.00
N317   N     0.39467   0.09743   0.54681   0.00000  Uiso   1.00
N318   N     0.70584   0.76764   0.29921   0.00000  Uiso   1.00
N319   N     0.16813   0.70715   0.39027   0.00000  Uiso   1.00
N320   N     0.35560   0.12581   0.47526   0.00000  Uiso   1.00
N321   N     0.66678   0.79602   0.22765   0.00000  Uiso   1.00
N322   N     0.12906   0.73553   0.31871   0.00000  Uiso   1.00
C323   C     0.87109   0.55370   0.54054   0.00000  Uiso   1.00
C324   C     0.87107   0.48394   0.54188   0.00000  Uiso   1.00
C325   C     0.87394   0.42632   0.49394   0.00000  Uiso   1.00
C326   C     0.87341   0.36740   0.50426   0.00000  Uiso   1.00
C327   C     0.87393   0.25927   0.49778   0.00000  Uiso   1.00
C328   C     0.94647   0.58728   0.57381   0.00000  Uiso   1.00
C329   C     0.01272   0.61655   0.55271   0.00000  Uiso   1.00
C330   C     0.07565   0.64462   0.58992   0.00000  Uiso   1.00
C331   C     0.19319   0.69695   0.63302   0.00000  Uiso   1.00
C332   C     0.79158   0.58839   0.57693   0.00000  Uiso   1.00
C333   C     0.72760   0.61862   0.55847   0.00000  Uiso   1.00
C334   C     0.66013   0.64764   0.59831   0.00000  Uiso   1.00
C335   C     0.53718   0.70170   0.64626   0.00000  Uiso   1.00
C336   C     0.86503   0.55152   0.64414   0.00000  Uiso   1.00
C337   C     0.86779   0.48276   0.59815   0.00000  Uiso   1.00
C338   C     0.86724   0.42391   0.60856   0.00000  Uiso   1.00
C339   C     0.87011   0.36621   0.56063   0.00000  Uiso   1.00
C340   C     0.94318   0.58609   0.63008   0.00000  Uiso   1.00
C341   C     0.00603   0.61413   0.66733   0.00000  Uiso   1.00
C342   C     0.07236   0.64343   0.64629   0.00000  Uiso   1.00
C343   C     0.78829   0.58721   0.63321   0.00000  Uiso   1.00
C344   C     0.72091   0.61620   0.67309   0.00000  Uiso   1.00
C345   C     0.65684   0.64646   0.65468   0.00000  Uiso   1.00
H346   H     0.87365   0.55463   0.49674   0.00000  Uiso   1.00
H347   H     0.87649   0.42726   0.45040   0.00000  Uiso   1.00
H348   H     0.01524   0.61746   0.50917   0.00000  Uiso   1.00
H349   H     0.73017   0.61952   0.51492   0.00000  Uiso   1.00
H350   H     0.87822   0.28553   0.42383   0.00000  Uiso   1.00
H351   H     0.17078   0.68659   0.54776   0.00000  Uiso   1.00
H352   H     0.56964   0.69095   0.55989   0.00000  Uiso   1.00
H353   H     0.86248   0.55060   0.68796   0.00000  Uiso   1.00
H354   H     0.86470   0.42301   0.65211   0.00000  Uiso   1.00
H355   H     0.00346   0.61321   0.71088   0.00000  Uiso   1.00
H356   H     0.71838   0.61527   0.71663   0.00000  Uiso   1.00
H357   H     0.86866   0.28208   0.58755   0.00000  Uiso   1.00
H358   H     0.16121   0.68315   0.71148   0.00000  Uiso   1.00
H359   H     0.56008   0.68750   0.72360   0.00000  Uiso   1.00
O360   O     0.87514   0.19995   0.47866   0.00000  Uiso   1.00
O361   O     0.25895   0.72613   0.64125   0.00000  Uiso   1.00
O362   O     0.47027   0.73184   0.65716   0.00000  Uiso   1.00
N363   N     0.87565   0.30223   0.46728   0.00000  Uiso   1.00
N364   N     0.14918   0.67719   0.58314   0.00000  Uiso   1.00
N365   N     0.58718   0.68128   0.59449   0.00000  Uiso   1.00
N366   N     0.87050   0.30037   0.55538   0.00000  Uiso   1.00
N367   N     0.14403   0.67533   0.67124   0.00000  Uiso   1.00
N368   N     0.58203   0.67942   0.68258   0.00000  Uiso   1.00
C369   C     0.89191   0.45327   0.03436   0.00000  Uiso   1.00
C370   C     0.89227   0.45221   0.97245   0.00000  Uiso   1.00
C371   C     0.86619   0.50372   0.95597   0.00000  Uiso   1.00
C372   C     0.87146   0.49301   0.89719   0.00000  Uiso   1.00
C373   C     0.86746   0.50051   0.80727   0.00000  Uiso   1.00
C374   C     0.98293   0.43655   0.04283   0.00000  Uiso   1.00
C375   C     0.03308   0.47490   0.08555   0.00000  Uiso   1.00
C376   C     0.11466   0.45099   0.08601   0.00000  Uiso   1.00
C377   C     0.25139   0.43416   0.10540   0.00000  Uiso   1.00
C378   C     0.83871   0.39524   0.03631   0.00000  Uiso   1.00
C379   C     0.76761   0.39884   0.07355   0.00000  Uiso   1.00
C380   C     0.72778   0.34015   0.06854   0.00000  Uiso   1.00
C381   C     0.64058   0.25918   0.07779   0.00000  Uiso   1.00
C382   C     0.94762   0.34262   0.95924   0.00000  Uiso   1.00
C383   C     0.92253   0.39211   0.93165   0.00000  Uiso   1.00
C384   C     0.92784   0.38131   0.87287   0.00000  Uiso   1.00
C385   C     0.90177   0.43280   0.85631   0.00000  Uiso   1.00
C386   C     0.01319   0.37645   0.00204   0.00000  Uiso   1.00
C387   C     0.09472   0.35248   0.00244   0.00000  Uiso   1.00
C388   C     0.14498   0.39078   0.04514   0.00000  Uiso   1.00
C389   C     0.86897   0.33514   0.99551   0.00000  Uiso   1.00
C390   C     0.82925   0.27643   0.99044   0.00000  Uiso   1.00
C391   C     0.75809   0.27995   0.02766   0.00000  Uiso   1.00
H392   H     0.86835   0.50006   0.06612   0.00000  Uiso   1.00
H393   H     0.84279   0.55023   0.98756   0.00000  Uiso   1.00
H394   H     0.00964   0.52140   0.11712   0.00000  Uiso   1.00
H395   H     0.74421   0.44536   0.10512   0.00000  Uiso   1.00
H396   H     0.82782   0.57935   0.88247   0.00000  Uiso   1.00
H397   H     0.17962   0.51856   0.15566   0.00000  Uiso   1.00
H398   H     0.61991   0.35821   0.13036   0.00000  Uiso   1.00
H399   H     0.97118   0.29583   0.92748   0.00000  Uiso   1.00
H400   H     0.95126   0.33479   0.84131   0.00000  Uiso   1.00
H401   H     0.11811   0.30597   0.97086   0.00000  Uiso   1.00
H402   H     0.85268   0.22993   0.95887   0.00000  Uiso   1.00
H403   H     0.91586   0.40450   0.76377   0.00000  Uiso   1.00
H404   H     0.26767   0.34370   0.03696   0.00000  Uiso   1.00
H405   H     0.70796   0.18336   0.01166   0.00000  Uiso   1.00
O406   O     0.85690   0.52125   0.76894   0.00000  Uiso   1.00
O407   O     0.31845   0.44148   0.12736   0.00000  Uiso   1.00
O408   O     0.58412   0.23112   0.09416   0.00000  Uiso   1.00
N409   N     0.85126   0.53285   0.86636   0.00000  Uiso   1.00
N410   N     0.18018   0.47601   0.12177   0.00000  Uiso   1.00
N411   N     0.65691   0.32611   0.09813   0.00000  Uiso   1.00
N412   N     0.89863   0.43876   0.80249   0.00000  Uiso   1.00
N413   N     0.22755   0.38193   0.05789   0.00000  Uiso   1.00
N414   N     0.70428   0.23202   0.03425   0.00000  Uiso   1.00
C415   C     0.35957   0.39142   0.54873   0.00000  Uiso   1.00
C416   C     0.36768   0.45950   0.54415   0.00000  Uiso   1.00
C417   C     0.37043   0.47308   0.49332   0.00000  Uiso   1.00
C418   C     0.37803   0.53858   0.49827   0.00000  Uiso   1.00
C419   C     0.38995   0.63669   0.48296   0.00000  Uiso   1.00
C420   C     0.43569   0.38244   0.58049   0.00000  Uiso   1.00
C421   C     0.49562   0.33121   0.56022   0.00000  Uiso   1.00
C422   C     0.56046   0.33184   0.59576   0.00000  Uiso   1.00
C423   C     0.67793   0.31026   0.63689   0.00000  Uiso   1.00
C424   C     0.28125   0.39549   0.58952   0.00000  Uiso   1.00
C425   C     0.21134   0.35523   0.57684   0.00000  Uiso   1.00
C426   C     0.14616   0.36684   0.61999   0.00000  Uiso   1.00
C427   C     0.02384   0.36554   0.67513   0.00000  Uiso   1.00
C428   C     0.36816   0.48362   0.64791   0.00000  Uiso   1.00
C429   C     0.37235   0.50958   0.59802   0.00000  Uiso   1.00
C430   C     0.37994   0.57509   0.60305   0.00000  Uiso   1.00
C431   C     0.38270   0.58876   0.55224   0.00000  Uiso   1.00
C432   C     0.44036   0.43252   0.63436   0.00000  Uiso   1.00
C433   C     0.50512   0.43322   0.66994   0.00000  Uiso   1.00
C434   C     0.56514   0.38201   0.64973   0.00000  Uiso   1.00
C435   C     0.28592   0.44558   0.64339   0.00000  Uiso   1.00
C436   C     0.22084   0.45725   0.68657   0.00000  Uiso   1.00
C437   C     0.15084   0.41701   0.67396   0.00000  Uiso   1.00
H438   H     0.35595   0.35242   0.50680   0.00000  Uiso   1.00
H439   H     0.36683   0.43430   0.45165   0.00000  Uiso   1.00
H440   H     0.49199   0.29245   0.51854   0.00000  Uiso   1.00
H441   H     0.20775   0.31648   0.53516   0.00000  Uiso   1.00
H442   H     0.38099   0.54717   0.41425   0.00000  Uiso   1.00
H443   H     0.64487   0.24806   0.55530   0.00000  Uiso   1.00
H444   H     0.04550   0.29871   0.59035   0.00000  Uiso   1.00
H445   H     0.37180   0.52261   0.68985   0.00000  Uiso   1.00
H446   H     0.38355   0.61384   0.64474   0.00000  Uiso   1.00
H447   H     0.50871   0.47198   0.71162   0.00000  Uiso   1.00
H448   H     0.22447   0.49601   0.72824   0.00000  Uiso   1.00
H449   H     0.39456   0.69288   0.57097   0.00000  Uiso   1.00
H450   H     0.65845   0.39377   0.71202   0.00000  Uiso   1.00
H451   H     0.05907   0.44443   0.74707   0.00000  Uiso   1.00
O452   O     0.39525   0.67696   0.45964   0.00000  Uiso   1.00
O453   O     0.74145   0.28453   0.64469   0.00000  Uiso   1.00
O454   O     0.95508   0.35099   0.69067   0.00000  Uiso   1.00
N455   N     0.38255   0.56894   0.45733   0.00000  Uiso   1.00
N456   N     0.62928   0.28930   0.58920   0.00000  Uiso   1.00
N457   N     0.06892   0.33665   0.62197   0.00000  Uiso   1.00
N458   N     0.38985   0.64735   0.54166   0.00000  Uiso   1.00
N459   N     0.63658   0.36770   0.67352   0.00000  Uiso   1.00
N460   N     0.07623   0.41505   0.70630   0.00000  Uiso   1.00
C461   C     0.92402   0.02088   0.39611   0.00000  Uiso   1.00
C462   C     0.93332   0.95554   0.40564   0.00000  Uiso   1.00
C463   C     0.95561   0.94794   0.45628   0.00000  Uiso   1.00
C464   C     0.96075   0.88406   0.45632   0.00000  Uiso   1.00
C465   C     0.97777   0.79085   0.47855   0.00000  Uiso   1.00
C466   C     0.98375   0.01565   0.34361   0.00000  Uiso   1.00
C467   C     0.04843   0.05861   0.34210   0.00000  Uiso   1.00
C468   C     0.09601   0.04533   0.28991   0.00000  Uiso   1.00
C469   C     0.19127   0.04548   0.21584   0.00000  Uiso   1.00
C470   C     0.83407   0.02296   0.37739   0.00000  Uiso   1.00
C471   C     0.77290   0.07206   0.40427   0.00000  Uiso   1.00
C472   C     0.69447   0.06494   0.38052   0.00000  Uiso   1.00
C473   C     0.55733   0.07643   0.35889   0.00000  Uiso   1.00
C474   C     0.89349   0.92093   0.30612   0.00000  Uiso   1.00
C475   C     0.91675   0.90125   0.35676   0.00000  Uiso   1.00
C476   C     0.92185   0.83735   0.35672   0.00000  Uiso   1.00
C477   C     0.94414   0.82967   0.40735   0.00000  Uiso   1.00
C478   C     0.96717   0.96136   0.29474   0.00000  Uiso   1.00
C479   C     0.01466   0.94802   0.24254   0.00000  Uiso   1.00
C480   C     0.07940   0.99094   0.24095   0.00000  Uiso   1.00
C481   C     0.81749   0.96867   0.32852   0.00000  Uiso   1.00
C482   C     0.73914   0.96147   0.30471   0.00000  Uiso   1.00
C483   C     0.67786   0.01055   0.33155   0.00000  Uiso   1.00
H484   H     0.93693   0.06315   0.43416   0.00000  Uiso   1.00
H485   H     0.96845   0.98997   0.49410   0.00000  Uiso   1.00
H486   H     0.06124   0.10062   0.37993   0.00000  Uiso   1.00
H487   H     0.78576   0.11407   0.44210   0.00000  Uiso   1.00
H488   H     0.99611   0.88489   0.53899   0.00000  Uiso   1.00
H489   H     0.19175   0.11822   0.29826   0.00000  Uiso   1.00
H490   H     0.61084   0.14658   0.42934   0.00000  Uiso   1.00
H491   H     0.88059   0.87866   0.26806   0.00000  Uiso   1.00
H492   H     0.90901   0.79535   0.31889   0.00000  Uiso   1.00
H493   H     0.00181   0.90600   0.20472   0.00000  Uiso   1.00
H494   H     0.72633   0.91945   0.26689   0.00000  Uiso   1.00
H495   H     0.94788   0.72693   0.39678   0.00000  Uiso   1.00
H496   H     0.14352   0.96026   0.15605   0.00000  Uiso   1.00
H497   H     0.56261   0.98861   0.28714   0.00000  Uiso   1.00
O498   O     0.99174   0.75444   0.50431   0.00000  Uiso   1.00
O499   O     0.24840   0.06056   0.18848   0.00000  Uiso   1.00
O500   O     0.48627   0.09776   0.36046   0.00000  Uiso   1.00
N501   N     0.98084   0.85915   0.49855   0.00000  Uiso   1.00
N502   N     0.16377   0.07729   0.27348   0.00000  Uiso   1.00
N503   N     0.62067   0.10381   0.39603   0.00000  Uiso   1.00
N504   N     0.95489   0.77415   0.42203   0.00000  Uiso   1.00
N505   N     0.13781   0.99229   0.19696   0.00000  Uiso   1.00
N506   N     0.59472   0.01881   0.31951   0.00000  Uiso   1.00
C507   C     0.39987   0.35042   0.86870   0.00000  Uiso   1.00
C508   C     0.38913   0.41669   0.91795   0.00000  Uiso   1.00
C509   C     0.35506   0.47391   0.91418   0.00000  Uiso   1.00
C510   C     0.35072   0.52942   0.96410   0.00000  Uiso   1.00
C511   C     0.32970   0.63259   0.03268   0.00000  Uiso   1.00
C512   C     0.49403   0.33139   0.86347   0.00000  Uiso   1.00
C513   C     0.54816   0.31689   0.81390   0.00000  Uiso   1.00
C514   C     0.63212   0.30058   0.81797   0.00000  Uiso   1.00
C515   C     0.77394   0.27127   0.80196   0.00000  Uiso   1.00
C516   C     0.35270   0.30101   0.89004   0.00000  Uiso   1.00
C517   C     0.28802   0.26094   0.86280   0.00000  Uiso   1.00
C518   C     0.25301   0.21905   0.88923   0.00000  Uiso   1.00
C519   C     0.17541   0.14256   0.91447   0.00000  Uiso   1.00
C520   C     0.45273   0.34724   0.96407   0.00000  Uiso   1.00
C521   C     0.41784   0.41496   0.96974   0.00000  Uiso   1.00
C522   C     0.41354   0.47039   0.01969   0.00000  Uiso   1.00
C523   C     0.37948   0.52769   0.01599   0.00000  Uiso   1.00
C524   C     0.52274   0.32966   0.91527   0.00000  Uiso   1.00
C525   C     0.60664   0.31337   0.91941   0.00000  Uiso   1.00
C526   C     0.66088   0.29885   0.86985   0.00000  Uiso   1.00
C527   C     0.38141   0.29927   0.94184   0.00000  Uiso   1.00
C528   C     0.34650   0.25743   0.96831   0.00000  Uiso   1.00
C529   C     0.28178   0.21731   0.94112   0.00000  Uiso   1.00
H530   H     0.37753   0.35177   0.82838   0.00000  Uiso   1.00
H531   H     0.33286   0.47523   0.87408   0.00000  Uiso   1.00
H532   H     0.52592   0.31823   0.77382   0.00000  Uiso   1.00
H533   H     0.26582   0.26230   0.82272   0.00000  Uiso   1.00
H534   H     0.29602   0.61137   0.94760   0.00000  Uiso   1.00
H535   H     0.70309   0.28028   0.73618   0.00000  Uiso   1.00
H536   H     0.15463   0.16234   0.83929   0.00000  Uiso   1.00
H537   H     0.47509   0.34589   0.00439   0.00000  Uiso   1.00
H538   H     0.43577   0.46904   0.05976   0.00000  Uiso   1.00
H539   H     0.62883   0.31203   0.95950   0.00000  Uiso   1.00
H540   H     0.36874   0.25610   0.00839   0.00000  Uiso   1.00
H541   H     0.37955   0.60634   0.09830   0.00000  Uiso   1.00
H542   H     0.78663   0.27525   0.88688   0.00000  Uiso   1.00
H543   H     0.23816   0.15731   0.98999   0.00000  Uiso   1.00
O544   O     0.31019   0.68997   0.05619   0.00000  Uiso   1.00
O545   O     0.84424   0.25559   0.77882   0.00000  Uiso   1.00
O546   O     0.12467   0.10086   0.91409   0.00000  Uiso   1.00
N547   N     0.32106   0.59328   0.97547   0.00000  Uiso   1.00
N548   N     0.70165   0.28375   0.77781   0.00000  Uiso   1.00
N549   N     0.18890   0.17347   0.87420   0.00000  Uiso   1.00
N550   N     0.36601   0.59057   0.05656   0.00000  Uiso   1.00
N551   N     0.74660   0.28104   0.85890   0.00000  Uiso   1.00
N552   N     0.23385   0.17076   0.95529   0.00000  Uiso   1.00
