data_job_02447
_audit_creation_date              2018-12-19
_audit_creation_method            'Materials Studio'
_symmetry_space_group_name_H-M    'P1'
_symmetry_Int_Tables_number       1
_symmetry_cell_setting            triclinic
loop_
_symmetry_equiv_pos_as_xyz
  x,y,z
_cell_length_a                    23.3304
_cell_length_b                    22.4036
_cell_length_c                    11.7598
_cell_angle_alpha                 90.0000
_cell_angle_beta                  90.0000
_cell_angle_gamma                 90.0000
loop_
_atom_site_label
_atom_site_type_symbol
_atom_site_fract_x
_atom_site_fract_y
_atom_site_fract_z
_atom_site_U_iso_or_equiv
_atom_site_adp_type
_atom_site_occupancy
C1     C     0.07892   0.85094   0.98036   0.00000  Uiso   1.00
C2     C     0.09293   0.90828   0.91627   0.00000  Uiso   1.00
C3     C     0.05655   0.93800   0.84203   0.00000  Uiso   1.00
C4     C     0.07738   0.98974   0.79186   0.00000  Uiso   1.00
C5     C     0.09074   0.07554   0.68875   0.00000  Uiso   1.00
C6     C     0.12559   0.80637   0.94824   0.00000  Uiso   1.00
C7     C     0.11666   0.75039   0.90089   0.00000  Uiso   1.00
C8     C     0.16498   0.71633   0.87765   0.00000  Uiso   1.00
C9     C     0.22904   0.64388   0.82425   0.00000  Uiso   1.00
C10    C     0.08792   0.86492   0.10600   0.00000  Uiso   1.00
C11    C     0.04734   0.85816   0.19132   0.00000  Uiso   1.00
C12    C     0.06395   0.87339   0.30092   0.00000  Uiso   1.00
C13    C     0.06954   0.89186   0.49246   0.00000  Uiso   1.00
C14    C     0.18060   0.88998   0.02331   0.00000  Uiso   1.00
C15    C     0.14816   0.92949   0.93959   0.00000  Uiso   1.00
C16    C     0.16905   0.98120   0.88953   0.00000  Uiso   1.00
C17    C     0.13270   0.01098   0.81523   0.00000  Uiso   1.00
C18    C     0.18081   0.82757   0.97156   0.00000  Uiso   1.00
C19    C     0.22916   0.79358   0.94840   0.00000  Uiso   1.00
C20    C     0.22031   0.73757   0.90102   0.00000  Uiso   1.00
C21    C     0.14315   0.88613   0.12933   0.00000  Uiso   1.00
C22    C     0.15984   0.90136   0.23882   0.00000  Uiso   1.00
C23    C     0.11928   0.89463   0.32428   0.00000  Uiso   1.00
H24    H     0.03592   0.83443   0.96220   0.00000  Uiso   1.00
H25    H     0.01381   0.92157   0.82399   0.00000  Uiso   1.00
H26    H     0.07392   0.73399   0.88286   0.00000  Uiso   1.00
H27    H     0.00460   0.84175   0.17323   0.00000  Uiso   1.00
H28    H     0.01366   0.02753   0.68101   0.00000  Uiso   1.00
H29    H     0.14039   0.63199   0.80517   0.00000  Uiso   1.00
H30    H     0.99423   0.85923   0.41749   0.00000  Uiso   1.00
H31    H     0.22360   0.90649   0.04146   0.00000  Uiso   1.00
H32    H     0.21179   0.99759   0.90760   0.00000  Uiso   1.00
H33    H     0.27189   0.81001   0.96646   0.00000  Uiso   1.00
H34    H     0.20258   0.91777   0.25684   0.00000  Uiso   1.00
H35    H     0.17435   0.08923   0.74886   0.00000  Uiso   1.00
H36    H     0.30108   0.69368   0.87303   0.00000  Uiso   1.00
H37    H     0.15492   0.92093   0.48534   0.00000  Uiso   1.00
O38    O     0.08286   0.11700   0.62542   0.00000  Uiso   1.00
O39    O     0.24912   0.59806   0.78834   0.00000  Uiso   1.00
O40    O     0.05736   0.89620   0.59167   0.00000  Uiso   1.00
N41    N     0.05310   0.02955   0.71537   0.00000  Uiso   1.00
N42    N     0.17158   0.65975   0.83143   0.00000  Uiso   1.00
N43    N     0.03494   0.87218   0.40390   0.00000  Uiso   1.00
N44    N     0.13956   0.06275   0.75188   0.00000  Uiso   1.00
N45    N     0.25805   0.69295   0.86795   0.00000  Uiso   1.00
N46    N     0.12140   0.90539   0.44042   0.00000  Uiso   1.00
C47    C     0.42108   0.14906   0.98036   0.00000  Uiso   1.00
C48    C     0.40707   0.09172   0.91627   0.00000  Uiso   1.00
C49    C     0.44345   0.06200   0.84203   0.00000  Uiso   1.00
C50    C     0.42262   0.01026   0.79186   0.00000  Uiso   1.00
C51    C     0.40926   0.92446   0.68875   0.00000  Uiso   1.00
C52    C     0.37441   0.19363   0.94824   0.00000  Uiso   1.00
C53    C     0.38334   0.24961   0.90089   0.00000  Uiso   1.00
C54    C     0.33502   0.28367   0.87765   0.00000  Uiso   1.00
C55    C     0.27096   0.35612   0.82425   0.00000  Uiso   1.00
C56    C     0.41208   0.13508   0.10600   0.00000  Uiso   1.00
C57    C     0.45266   0.14184   0.19132   0.00000  Uiso   1.00
C58    C     0.43605   0.12661   0.30092   0.00000  Uiso   1.00
C59    C     0.43046   0.10814   0.49246   0.00000  Uiso   1.00
C60    C     0.31940   0.11002   0.02331   0.00000  Uiso   1.00
C61    C     0.35184   0.07051   0.93959   0.00000  Uiso   1.00
C62    C     0.33095   0.01880   0.88953   0.00000  Uiso   1.00
C63    C     0.36730   0.98902   0.81523   0.00000  Uiso   1.00
C64    C     0.31919   0.17243   0.97156   0.00000  Uiso   1.00
C65    C     0.27084   0.20642   0.94840   0.00000  Uiso   1.00
C66    C     0.27969   0.26243   0.90102   0.00000  Uiso   1.00
C67    C     0.35685   0.11387   0.12933   0.00000  Uiso   1.00
C68    C     0.34016   0.09864   0.23882   0.00000  Uiso   1.00
C69    C     0.38072   0.10537   0.32428   0.00000  Uiso   1.00
H70    H     0.46408   0.16557   0.96220   0.00000  Uiso   1.00
H71    H     0.48619   0.07843   0.82399   0.00000  Uiso   1.00
H72    H     0.42608   0.26601   0.88286   0.00000  Uiso   1.00
H73    H     0.49540   0.15825   0.17323   0.00000  Uiso   1.00
H74    H     0.48634   0.97247   0.68101   0.00000  Uiso   1.00
H75    H     0.35961   0.36801   0.80517   0.00000  Uiso   1.00
H76    H     0.50577   0.14077   0.41749   0.00000  Uiso   1.00
H77    H     0.27640   0.09351   0.04146   0.00000  Uiso   1.00
H78    H     0.28821   0.00241   0.90760   0.00000  Uiso   1.00
H79    H     0.22811   0.18999   0.96646   0.00000  Uiso   1.00
H80    H     0.29742   0.08223   0.25684   0.00000  Uiso   1.00
H81    H     0.32565   0.91077   0.74886   0.00000  Uiso   1.00
H82    H     0.19892   0.30632   0.87303   0.00000  Uiso   1.00
H83    H     0.34508   0.07907   0.48534   0.00000  Uiso   1.00
O84    O     0.41714   0.88300   0.62542   0.00000  Uiso   1.00
O85    O     0.25088   0.40194   0.78834   0.00000  Uiso   1.00
O86    O     0.44264   0.10380   0.59167   0.00000  Uiso   1.00
N87    N     0.44690   0.97045   0.71537   0.00000  Uiso   1.00
N88    N     0.32842   0.34025   0.83143   0.00000  Uiso   1.00
N89    N     0.46506   0.12782   0.40390   0.00000  Uiso   1.00
N90    N     0.36044   0.93725   0.75188   0.00000  Uiso   1.00
N91    N     0.24195   0.30705   0.86795   0.00000  Uiso   1.00
N92    N     0.37860   0.09461   0.44042   0.00000  Uiso   1.00
C93    C     0.42108   0.35094   0.51964   0.00000  Uiso   1.00
C94    C     0.40707   0.40828   0.58373   0.00000  Uiso   1.00
C95    C     0.44345   0.43800   0.65797   0.00000  Uiso   1.00
C96    C     0.42262   0.48974   0.70814   0.00000  Uiso   1.00
C97    C     0.40926   0.57554   0.81125   0.00000  Uiso   1.00
C98    C     0.37441   0.30637   0.55176   0.00000  Uiso   1.00
C99    C     0.38334   0.25039   0.59911   0.00000  Uiso   1.00
C100   C     0.33502   0.21633   0.62235   0.00000  Uiso   1.00
C101   C     0.27096   0.14388   0.67575   0.00000  Uiso   1.00
C102   C     0.41208   0.36492   0.39400   0.00000  Uiso   1.00
C103   C     0.45266   0.35816   0.30868   0.00000  Uiso   1.00
C104   C     0.43605   0.37339   0.19908   0.00000  Uiso   1.00
C105   C     0.43046   0.39186   0.00754   0.00000  Uiso   1.00
C106   C     0.31940   0.38998   0.47669   0.00000  Uiso   1.00
C107   C     0.35184   0.42949   0.56041   0.00000  Uiso   1.00
C108   C     0.33095   0.48120   0.61047   0.00000  Uiso   1.00
C109   C     0.36730   0.51098   0.68477   0.00000  Uiso   1.00
C110   C     0.31919   0.32757   0.52844   0.00000  Uiso   1.00
C111   C     0.27084   0.29358   0.55160   0.00000  Uiso   1.00
C112   C     0.27969   0.23757   0.59898   0.00000  Uiso   1.00
C113   C     0.35685   0.38613   0.37067   0.00000  Uiso   1.00
C114   C     0.34016   0.40136   0.26118   0.00000  Uiso   1.00
C115   C     0.38072   0.39463   0.17572   0.00000  Uiso   1.00
H116   H     0.46408   0.33443   0.53780   0.00000  Uiso   1.00
H117   H     0.48619   0.42157   0.67601   0.00000  Uiso   1.00
H118   H     0.42608   0.23399   0.61714   0.00000  Uiso   1.00
H119   H     0.49540   0.34175   0.32677   0.00000  Uiso   1.00
H120   H     0.48634   0.52753   0.81899   0.00000  Uiso   1.00
H121   H     0.35961   0.13199   0.69483   0.00000  Uiso   1.00
H122   H     0.50577   0.35923   0.08251   0.00000  Uiso   1.00
H123   H     0.27640   0.40649   0.45854   0.00000  Uiso   1.00
H124   H     0.28821   0.49759   0.59240   0.00000  Uiso   1.00
H125   H     0.22811   0.31001   0.53354   0.00000  Uiso   1.00
H126   H     0.29742   0.41777   0.24316   0.00000  Uiso   1.00
H127   H     0.32565   0.58923   0.75114   0.00000  Uiso   1.00
H128   H     0.19892   0.19368   0.62697   0.00000  Uiso   1.00
H129   H     0.34508   0.42093   0.01466   0.00000  Uiso   1.00
O130   O     0.41714   0.61700   0.87458   0.00000  Uiso   1.00
O131   O     0.25088   0.09806   0.71166   0.00000  Uiso   1.00
O132   O     0.44264   0.39620   0.90833   0.00000  Uiso   1.00
N133   N     0.44690   0.52955   0.78463   0.00000  Uiso   1.00
N134   N     0.32842   0.15975   0.66857   0.00000  Uiso   1.00
N135   N     0.46506   0.37218   0.09610   0.00000  Uiso   1.00
N136   N     0.36044   0.56275   0.74812   0.00000  Uiso   1.00
N137   N     0.24195   0.19295   0.63205   0.00000  Uiso   1.00
N138   N     0.37860   0.40539   0.05958   0.00000  Uiso   1.00
C139   C     0.07892   0.64906   0.51964   0.00000  Uiso   1.00
C140   C     0.09293   0.59172   0.58373   0.00000  Uiso   1.00
C141   C     0.05655   0.56200   0.65797   0.00000  Uiso   1.00
C142   C     0.07738   0.51026   0.70814   0.00000  Uiso   1.00
C143   C     0.09074   0.42446   0.81125   0.00000  Uiso   1.00
C144   C     0.12559   0.69363   0.55176   0.00000  Uiso   1.00
C145   C     0.11666   0.74961   0.59911   0.00000  Uiso   1.00
C146   C     0.16498   0.78367   0.62235   0.00000  Uiso   1.00
C147   C     0.22904   0.85612   0.67575   0.00000  Uiso   1.00
C148   C     0.08792   0.63508   0.39400   0.00000  Uiso   1.00
C149   C     0.04734   0.64184   0.30868   0.00000  Uiso   1.00
C150   C     0.06395   0.62661   0.19908   0.00000  Uiso   1.00
C151   C     0.06954   0.60814   0.00754   0.00000  Uiso   1.00
C152   C     0.18060   0.61002   0.47669   0.00000  Uiso   1.00
C153   C     0.14816   0.57051   0.56041   0.00000  Uiso   1.00
C154   C     0.16905   0.51880   0.61047   0.00000  Uiso   1.00
C155   C     0.13270   0.48902   0.68477   0.00000  Uiso   1.00
C156   C     0.18081   0.67243   0.52844   0.00000  Uiso   1.00
C157   C     0.22916   0.70642   0.55160   0.00000  Uiso   1.00
C158   C     0.22031   0.76243   0.59898   0.00000  Uiso   1.00
C159   C     0.14315   0.61387   0.37067   0.00000  Uiso   1.00
C160   C     0.15984   0.59864   0.26118   0.00000  Uiso   1.00
C161   C     0.11928   0.60537   0.17572   0.00000  Uiso   1.00
H162   H     0.03592   0.66557   0.53780   0.00000  Uiso   1.00
H163   H     0.01381   0.57843   0.67601   0.00000  Uiso   1.00
H164   H     0.07392   0.76601   0.61714   0.00000  Uiso   1.00
H165   H     0.00460   0.65825   0.32677   0.00000  Uiso   1.00
H166   H     0.01366   0.47247   0.81899   0.00000  Uiso   1.00
H167   H     0.14039   0.86801   0.69483   0.00000  Uiso   1.00
H168   H     0.99423   0.64077   0.08251   0.00000  Uiso   1.00
H169   H     0.22360   0.59351   0.45854   0.00000  Uiso   1.00
H170   H     0.21179   0.50241   0.59240   0.00000  Uiso   1.00
H171   H     0.27189   0.68999   0.53354   0.00000  Uiso   1.00
H172   H     0.20258   0.58223   0.24316   0.00000  Uiso   1.00
H173   H     0.17435   0.41077   0.75114   0.00000  Uiso   1.00
H174   H     0.30108   0.80632   0.62697   0.00000  Uiso   1.00
H175   H     0.15492   0.57907   0.01466   0.00000  Uiso   1.00
O176   O     0.08286   0.38300   0.87458   0.00000  Uiso   1.00
O177   O     0.24912   0.90194   0.71166   0.00000  Uiso   1.00
O178   O     0.05736   0.60380   0.90833   0.00000  Uiso   1.00
N179   N     0.05310   0.47045   0.78463   0.00000  Uiso   1.00
N180   N     0.17158   0.84025   0.66857   0.00000  Uiso   1.00
N181   N     0.03494   0.62782   0.09610   0.00000  Uiso   1.00
N182   N     0.13956   0.43725   0.74812   0.00000  Uiso   1.00
N183   N     0.25805   0.80705   0.63205   0.00000  Uiso   1.00
N184   N     0.12140   0.59461   0.05958   0.00000  Uiso   1.00
C185   C     0.92108   0.14906   0.01964   0.00000  Uiso   1.00
C186   C     0.90707   0.09172   0.08373   0.00000  Uiso   1.00
C187   C     0.94345   0.06200   0.15797   0.00000  Uiso   1.00
C188   C     0.92262   0.01026   0.20814   0.00000  Uiso   1.00
C189   C     0.90926   0.92446   0.31125   0.00000  Uiso   1.00
C190   C     0.87441   0.19363   0.05176   0.00000  Uiso   1.00
C191   C     0.88334   0.24961   0.09911   0.00000  Uiso   1.00
C192   C     0.83502   0.28367   0.12235   0.00000  Uiso   1.00
C193   C     0.77096   0.35612   0.17575   0.00000  Uiso   1.00
C194   C     0.91208   0.13508   0.89400   0.00000  Uiso   1.00
C195   C     0.95266   0.14184   0.80868   0.00000  Uiso   1.00
C196   C     0.93605   0.12661   0.69908   0.00000  Uiso   1.00
C197   C     0.93046   0.10814   0.50754   0.00000  Uiso   1.00
C198   C     0.81940   0.11002   0.97669   0.00000  Uiso   1.00
C199   C     0.85184   0.07051   0.06041   0.00000  Uiso   1.00
C200   C     0.83095   0.01880   0.11047   0.00000  Uiso   1.00
C201   C     0.86730   0.98902   0.18477   0.00000  Uiso   1.00
C202   C     0.81919   0.17243   0.02844   0.00000  Uiso   1.00
C203   C     0.77084   0.20642   0.05160   0.00000  Uiso   1.00
C204   C     0.77969   0.26243   0.09898   0.00000  Uiso   1.00
C205   C     0.85685   0.11387   0.87067   0.00000  Uiso   1.00
C206   C     0.84016   0.09864   0.76118   0.00000  Uiso   1.00
C207   C     0.88072   0.10537   0.67572   0.00000  Uiso   1.00
H208   H     0.96408   0.16557   0.03780   0.00000  Uiso   1.00
H209   H     0.98619   0.07843   0.17601   0.00000  Uiso   1.00
H210   H     0.92608   0.26601   0.11714   0.00000  Uiso   1.00
H211   H     0.99540   0.15825   0.82677   0.00000  Uiso   1.00
H212   H     0.98634   0.97247   0.31899   0.00000  Uiso   1.00
H213   H     0.85961   0.36801   0.19483   0.00000  Uiso   1.00
H214   H     0.00577   0.14077   0.58251   0.00000  Uiso   1.00
H215   H     0.77640   0.09351   0.95854   0.00000  Uiso   1.00
H216   H     0.78821   0.00241   0.09240   0.00000  Uiso   1.00
H217   H     0.72811   0.18999   0.03354   0.00000  Uiso   1.00
H218   H     0.79742   0.08223   0.74316   0.00000  Uiso   1.00
H219   H     0.82565   0.91077   0.25114   0.00000  Uiso   1.00
H220   H     0.69892   0.30632   0.12697   0.00000  Uiso   1.00
H221   H     0.84508   0.07907   0.51466   0.00000  Uiso   1.00
O222   O     0.91714   0.88300   0.37458   0.00000  Uiso   1.00
O223   O     0.75088   0.40194   0.21166   0.00000  Uiso   1.00
O224   O     0.94264   0.10380   0.40833   0.00000  Uiso   1.00
N225   N     0.94690   0.97045   0.28463   0.00000  Uiso   1.00
N226   N     0.82842   0.34025   0.16857   0.00000  Uiso   1.00
N227   N     0.96506   0.12782   0.59610   0.00000  Uiso   1.00
N228   N     0.86044   0.93725   0.24812   0.00000  Uiso   1.00
N229   N     0.74195   0.30705   0.13205   0.00000  Uiso   1.00
N230   N     0.87860   0.09461   0.55958   0.00000  Uiso   1.00
C231   C     0.57892   0.85094   0.01964   0.00000  Uiso   1.00
C232   C     0.59293   0.90828   0.08373   0.00000  Uiso   1.00
C233   C     0.55655   0.93800   0.15797   0.00000  Uiso   1.00
C234   C     0.57738   0.98974   0.20814   0.00000  Uiso   1.00
C235   C     0.59074   0.07554   0.31125   0.00000  Uiso   1.00
C236   C     0.62559   0.80637   0.05176   0.00000  Uiso   1.00
C237   C     0.61666   0.75039   0.09911   0.00000  Uiso   1.00
C238   C     0.66498   0.71633   0.12235   0.00000  Uiso   1.00
C239   C     0.72904   0.64388   0.17575   0.00000  Uiso   1.00
C240   C     0.58792   0.86492   0.89400   0.00000  Uiso   1.00
C241   C     0.54734   0.85816   0.80868   0.00000  Uiso   1.00
C242   C     0.56395   0.87339   0.69908   0.00000  Uiso   1.00
C243   C     0.56954   0.89186   0.50754   0.00000  Uiso   1.00
C244   C     0.68060   0.88998   0.97669   0.00000  Uiso   1.00
C245   C     0.64816   0.92949   0.06041   0.00000  Uiso   1.00
C246   C     0.66905   0.98120   0.11047   0.00000  Uiso   1.00
C247   C     0.63270   0.01098   0.18477   0.00000  Uiso   1.00
C248   C     0.68081   0.82757   0.02844   0.00000  Uiso   1.00
C249   C     0.72916   0.79358   0.05160   0.00000  Uiso   1.00
C250   C     0.72031   0.73757   0.09898   0.00000  Uiso   1.00
C251   C     0.64315   0.88613   0.87067   0.00000  Uiso   1.00
C252   C     0.65984   0.90136   0.76118   0.00000  Uiso   1.00
C253   C     0.61928   0.89463   0.67572   0.00000  Uiso   1.00
H254   H     0.53592   0.83443   0.03780   0.00000  Uiso   1.00
H255   H     0.51381   0.92157   0.17601   0.00000  Uiso   1.00
H256   H     0.57392   0.73399   0.11714   0.00000  Uiso   1.00
H257   H     0.50460   0.84175   0.82677   0.00000  Uiso   1.00
H258   H     0.51366   0.02753   0.31899   0.00000  Uiso   1.00
H259   H     0.64039   0.63199   0.19483   0.00000  Uiso   1.00
H260   H     0.49423   0.85923   0.58251   0.00000  Uiso   1.00
H261   H     0.72360   0.90649   0.95854   0.00000  Uiso   1.00
H262   H     0.71179   0.99759   0.09240   0.00000  Uiso   1.00
H263   H     0.77189   0.81001   0.03354   0.00000  Uiso   1.00
H264   H     0.70258   0.91777   0.74316   0.00000  Uiso   1.00
H265   H     0.67435   0.08923   0.25114   0.00000  Uiso   1.00
H266   H     0.80108   0.69368   0.12697   0.00000  Uiso   1.00
H267   H     0.65492   0.92093   0.51466   0.00000  Uiso   1.00
O268   O     0.58286   0.11700   0.37458   0.00000  Uiso   1.00
O269   O     0.74912   0.59806   0.21166   0.00000  Uiso   1.00
O270   O     0.55736   0.89620   0.40833   0.00000  Uiso   1.00
N271   N     0.55310   0.02955   0.28463   0.00000  Uiso   1.00
N272   N     0.67158   0.65975   0.16857   0.00000  Uiso   1.00
N273   N     0.53494   0.87218   0.59610   0.00000  Uiso   1.00
N274   N     0.63956   0.06275   0.24812   0.00000  Uiso   1.00
N275   N     0.75805   0.69295   0.13205   0.00000  Uiso   1.00
N276   N     0.62140   0.90539   0.55958   0.00000  Uiso   1.00
C277   C     0.57892   0.64906   0.48036   0.00000  Uiso   1.00
C278   C     0.59293   0.59172   0.41627   0.00000  Uiso   1.00
C279   C     0.55655   0.56200   0.34203   0.00000  Uiso   1.00
C280   C     0.57738   0.51026   0.29186   0.00000  Uiso   1.00
C281   C     0.59074   0.42446   0.18875   0.00000  Uiso   1.00
C282   C     0.62559   0.69363   0.44824   0.00000  Uiso   1.00
C283   C     0.61666   0.74961   0.40089   0.00000  Uiso   1.00
C284   C     0.66498   0.78367   0.37765   0.00000  Uiso   1.00
C285   C     0.72904   0.85612   0.32425   0.00000  Uiso   1.00
C286   C     0.58792   0.63508   0.60600   0.00000  Uiso   1.00
C287   C     0.54734   0.64184   0.69132   0.00000  Uiso   1.00
C288   C     0.56395   0.62661   0.80092   0.00000  Uiso   1.00
C289   C     0.56954   0.60814   0.99246   0.00000  Uiso   1.00
C290   C     0.68060   0.61002   0.52331   0.00000  Uiso   1.00
C291   C     0.64816   0.57051   0.43959   0.00000  Uiso   1.00
C292   C     0.66905   0.51880   0.38953   0.00000  Uiso   1.00
C293   C     0.63270   0.48902   0.31523   0.00000  Uiso   1.00
C294   C     0.68081   0.67243   0.47156   0.00000  Uiso   1.00
C295   C     0.72916   0.70642   0.44840   0.00000  Uiso   1.00
C296   C     0.72031   0.76243   0.40102   0.00000  Uiso   1.00
C297   C     0.64315   0.61387   0.62933   0.00000  Uiso   1.00
C298   C     0.65984   0.59864   0.73882   0.00000  Uiso   1.00
C299   C     0.61928   0.60537   0.82428   0.00000  Uiso   1.00
H300   H     0.53592   0.66557   0.46220   0.00000  Uiso   1.00
H301   H     0.51381   0.57843   0.32399   0.00000  Uiso   1.00
H302   H     0.57392   0.76601   0.38286   0.00000  Uiso   1.00
H303   H     0.50460   0.65825   0.67323   0.00000  Uiso   1.00
H304   H     0.51366   0.47247   0.18101   0.00000  Uiso   1.00
H305   H     0.64039   0.86801   0.30517   0.00000  Uiso   1.00
H306   H     0.49423   0.64077   0.91749   0.00000  Uiso   1.00
H307   H     0.72360   0.59351   0.54146   0.00000  Uiso   1.00
H308   H     0.71179   0.50241   0.40760   0.00000  Uiso   1.00
H309   H     0.77189   0.68999   0.46646   0.00000  Uiso   1.00
H310   H     0.70258   0.58223   0.75684   0.00000  Uiso   1.00
H311   H     0.67435   0.41077   0.24886   0.00000  Uiso   1.00
H312   H     0.80108   0.80632   0.37303   0.00000  Uiso   1.00
H313   H     0.65492   0.57907   0.98534   0.00000  Uiso   1.00
O314   O     0.58286   0.38300   0.12542   0.00000  Uiso   1.00
O315   O     0.74912   0.90194   0.28834   0.00000  Uiso   1.00
O316   O     0.55736   0.60380   0.09167   0.00000  Uiso   1.00
N317   N     0.55310   0.47045   0.21537   0.00000  Uiso   1.00
N318   N     0.67158   0.84025   0.33143   0.00000  Uiso   1.00
N319   N     0.53494   0.62782   0.90390   0.00000  Uiso   1.00
N320   N     0.63956   0.43725   0.25188   0.00000  Uiso   1.00
N321   N     0.75805   0.80705   0.36795   0.00000  Uiso   1.00
N322   N     0.62140   0.59461   0.94042   0.00000  Uiso   1.00
C323   C     0.92108   0.35094   0.48036   0.00000  Uiso   1.00
C324   C     0.90707   0.40828   0.41627   0.00000  Uiso   1.00
C325   C     0.94345   0.43800   0.34203   0.00000  Uiso   1.00
C326   C     0.92262   0.48974   0.29186   0.00000  Uiso   1.00
C327   C     0.90926   0.57554   0.18875   0.00000  Uiso   1.00
C328   C     0.87441   0.30637   0.44824   0.00000  Uiso   1.00
C329   C     0.88334   0.25039   0.40089   0.00000  Uiso   1.00
C330   C     0.83502   0.21633   0.37765   0.00000  Uiso   1.00
C331   C     0.77096   0.14388   0.32425   0.00000  Uiso   1.00
C332   C     0.91208   0.36492   0.60600   0.00000  Uiso   1.00
C333   C     0.95266   0.35816   0.69132   0.00000  Uiso   1.00
C334   C     0.93605   0.37339   0.80092   0.00000  Uiso   1.00
C335   C     0.93046   0.39186   0.99246   0.00000  Uiso   1.00
C336   C     0.81940   0.38998   0.52331   0.00000  Uiso   1.00
C337   C     0.85184   0.42949   0.43959   0.00000  Uiso   1.00
C338   C     0.83095   0.48120   0.38953   0.00000  Uiso   1.00
C339   C     0.86730   0.51098   0.31523   0.00000  Uiso   1.00
C340   C     0.81919   0.32757   0.47156   0.00000  Uiso   1.00
C341   C     0.77084   0.29358   0.44840   0.00000  Uiso   1.00
C342   C     0.77969   0.23757   0.40102   0.00000  Uiso   1.00
C343   C     0.85685   0.38613   0.62933   0.00000  Uiso   1.00
C344   C     0.84016   0.40136   0.73882   0.00000  Uiso   1.00
C345   C     0.88072   0.39463   0.82428   0.00000  Uiso   1.00
H346   H     0.96408   0.33443   0.46220   0.00000  Uiso   1.00
H347   H     0.98619   0.42157   0.32399   0.00000  Uiso   1.00
H348   H     0.92608   0.23399   0.38286   0.00000  Uiso   1.00
H349   H     0.99540   0.34175   0.67323   0.00000  Uiso   1.00
H350   H     0.98634   0.52753   0.18101   0.00000  Uiso   1.00
H351   H     0.85961   0.13199   0.30517   0.00000  Uiso   1.00
H352   H     0.00577   0.35923   0.91749   0.00000  Uiso   1.00
H353   H     0.77640   0.40649   0.54146   0.00000  Uiso   1.00
H354   H     0.78821   0.49759   0.40760   0.00000  Uiso   1.00
H355   H     0.72811   0.31001   0.46646   0.00000  Uiso   1.00
H356   H     0.79742   0.41777   0.75684   0.00000  Uiso   1.00
H357   H     0.82565   0.58923   0.24886   0.00000  Uiso   1.00
H358   H     0.69892   0.19368   0.37303   0.00000  Uiso   1.00
H359   H     0.84508   0.42093   0.98534   0.00000  Uiso   1.00
O360   O     0.91714   0.61700   0.12542   0.00000  Uiso   1.00
O361   O     0.75088   0.09806   0.28834   0.00000  Uiso   1.00
O362   O     0.94264   0.39620   0.09167   0.00000  Uiso   1.00
N363   N     0.94690   0.52955   0.21537   0.00000  Uiso   1.00
N364   N     0.82842   0.15975   0.33143   0.00000  Uiso   1.00
N365   N     0.96506   0.37218   0.90390   0.00000  Uiso   1.00
N366   N     0.86044   0.56275   0.25188   0.00000  Uiso   1.00
N367   N     0.74195   0.19295   0.36795   0.00000  Uiso   1.00
N368   N     0.87860   0.40539   0.94042   0.00000  Uiso   1.00
