data_job_01178
_audit_creation_date              2018-12-19
_audit_creation_method            'Materials Studio'
_symmetry_space_group_name_H-M    'P1'
_symmetry_Int_Tables_number       1
_symmetry_cell_setting            triclinic
loop_
_symmetry_equiv_pos_as_xyz
  x,y,z
_cell_length_a                    12.4580
_cell_length_b                    14.0871
_cell_length_c                    13.4000
_cell_angle_alpha                 90.0000
_cell_angle_beta                  98.0451
_cell_angle_gamma                 90.0000
loop_
_atom_site_label
_atom_site_type_symbol
_atom_site_fract_x
_atom_site_fract_y
_atom_site_fract_z
_atom_site_U_iso_or_equiv
_atom_site_adp_type
_atom_site_occupancy
C1     C     0.77660   0.28969   0.41117   0.00000  Uiso   1.00
C2     C     0.67280   0.23236   0.41139   0.00000  Uiso   1.00
C3     C     0.60017   0.20832   0.32700   0.00000  Uiso   1.00
C4     C     0.51003   0.15554   0.34304   0.00000  Uiso   1.00
C5     C     0.35139   0.07078   0.32863   0.00000  Uiso   1.00
C6     C     0.76768   0.37391   0.48103   0.00000  Uiso   1.00
C7     C     0.77485   0.46887   0.45519   0.00000  Uiso   1.00
C8     C     0.76460   0.53525   0.52986   0.00000  Uiso   1.00
C9     C     0.75334   0.67024   0.62360   0.00000  Uiso   1.00
C10    C     0.86811   0.22788   0.46346   0.00000  Uiso   1.00
C11    C     0.95973   0.20007   0.42286   0.00000  Uiso   1.00
C12    C     0.03404   0.14352   0.48275   0.00000  Uiso   1.00
C13    C     0.17871   0.05177   0.54919   0.00000  Uiso   1.00
C14    C     0.74567   0.23872   0.58974   0.00000  Uiso   1.00
C15    C     0.65600   0.20468   0.50838   0.00000  Uiso   1.00
C16    C     0.56595   0.15192   0.52456   0.00000  Uiso   1.00
C17    C     0.49320   0.12780   0.44020   0.00000  Uiso   1.00
C18    C     0.75088   0.34623   0.57802   0.00000  Uiso   1.00
C19    C     0.74063   0.41248   0.65275   0.00000  Uiso   1.00
C20    C     0.74777   0.50752   0.62703   0.00000  Uiso   1.00
C21    C     0.85131   0.20019   0.56045   0.00000  Uiso   1.00
C22    C     0.92550   0.14368   0.62042   0.00000  Uiso   1.00
C23    C     0.01721   0.11578   0.57991   0.00000  Uiso   1.00
H24    H     0.78968   0.31125   0.33566   0.00000  Uiso   1.00
H25    H     0.61320   0.22976   0.25195   0.00000  Uiso   1.00
H26    H     0.78786   0.49028   0.38013   0.00000  Uiso   1.00
H27    H     0.97270   0.22151   0.34780   0.00000  Uiso   1.00
H28    H     0.41011   0.12724   0.20192   0.00000  Uiso   1.00
H29    H     0.77843   0.67655   0.47220   0.00000  Uiso   1.00
H30    H     0.16821   0.10981   0.40402   0.00000  Uiso   1.00
H31    H     0.73259   0.21717   0.66525   0.00000  Uiso   1.00
H32    H     0.55297   0.13051   0.59962   0.00000  Uiso   1.00
H33    H     0.72763   0.39103   0.72780   0.00000  Uiso   1.00
H34    H     0.91247   0.12226   0.69547   0.00000  Uiso   1.00
H35    H     0.36122   0.04669   0.48410   0.00000  Uiso   1.00
H36    H     0.72955   0.59600   0.75438   0.00000  Uiso   1.00
H37    H     0.11932   0.02925   0.68621   0.00000  Uiso   1.00
O38    O     0.26851   0.03168   0.29390   0.00000  Uiso   1.00
O39    O     0.75176   0.75235   0.64850   0.00000  Uiso   1.00
O40    O     0.26313   0.00880   0.55905   0.00000  Uiso   1.00
N41    N     0.42326   0.12016   0.27734   0.00000  Uiso   1.00
N42    N     0.76760   0.63373   0.53003   0.00000  Uiso   1.00
N43    N     0.13203   0.10389   0.46630   0.00000  Uiso   1.00
N44    N     0.39696   0.07681   0.42918   0.00000  Uiso   1.00
N45    N     0.74130   0.59038   0.68187   0.00000  Uiso   1.00
N46    N     0.10572   0.06055   0.61814   0.00000  Uiso   1.00
C47    C     0.22340   0.78969   0.08883   0.00000  Uiso   1.00
C48    C     0.32720   0.73236   0.08861   0.00000  Uiso   1.00
C49    C     0.39983   0.70832   0.17300   0.00000  Uiso   1.00
C50    C     0.48997   0.65554   0.15696   0.00000  Uiso   1.00
C51    C     0.64861   0.57078   0.17137   0.00000  Uiso   1.00
C52    C     0.23232   0.87391   0.01897   0.00000  Uiso   1.00
C53    C     0.22515   0.96887   0.04481   0.00000  Uiso   1.00
C54    C     0.23540   0.03525   0.97014   0.00000  Uiso   1.00
C55    C     0.24666   0.17024   0.87640   0.00000  Uiso   1.00
C56    C     0.13189   0.72788   0.03654   0.00000  Uiso   1.00
C57    C     0.04027   0.70007   0.07714   0.00000  Uiso   1.00
C58    C     0.96596   0.64352   0.01725   0.00000  Uiso   1.00
C59    C     0.82129   0.55177   0.95081   0.00000  Uiso   1.00
C60    C     0.25433   0.73872   0.91026   0.00000  Uiso   1.00
C61    C     0.34400   0.70468   0.99162   0.00000  Uiso   1.00
C62    C     0.43405   0.65192   0.97544   0.00000  Uiso   1.00
C63    C     0.50680   0.62780   0.05980   0.00000  Uiso   1.00
C64    C     0.24912   0.84623   0.92198   0.00000  Uiso   1.00
C65    C     0.25937   0.91248   0.84725   0.00000  Uiso   1.00
C66    C     0.25223   0.00752   0.87297   0.00000  Uiso   1.00
C67    C     0.14869   0.70019   0.93955   0.00000  Uiso   1.00
C68    C     0.07450   0.64368   0.87958   0.00000  Uiso   1.00
C69    C     0.98279   0.61578   0.92009   0.00000  Uiso   1.00
H70    H     0.21032   0.81125   0.16434   0.00000  Uiso   1.00
H71    H     0.38680   0.72976   0.24805   0.00000  Uiso   1.00
H72    H     0.21214   0.99028   0.11987   0.00000  Uiso   1.00
H73    H     0.02730   0.72151   0.15220   0.00000  Uiso   1.00
H74    H     0.58989   0.62724   0.29808   0.00000  Uiso   1.00
H75    H     0.22157   0.17655   0.02780   0.00000  Uiso   1.00
H76    H     0.83179   0.60981   0.09598   0.00000  Uiso   1.00
H77    H     0.26741   0.71717   0.83475   0.00000  Uiso   1.00
H78    H     0.44703   0.63051   0.90038   0.00000  Uiso   1.00
H79    H     0.27237   0.89103   0.77220   0.00000  Uiso   1.00
H80    H     0.08753   0.62226   0.80453   0.00000  Uiso   1.00
H81    H     0.63878   0.54669   0.01590   0.00000  Uiso   1.00
H82    H     0.27045   0.09600   0.74562   0.00000  Uiso   1.00
H83    H     0.88068   0.52925   0.81379   0.00000  Uiso   1.00
O84    O     0.73149   0.53168   0.20610   0.00000  Uiso   1.00
O85    O     0.24824   0.25235   0.85150   0.00000  Uiso   1.00
O86    O     0.73687   0.50880   0.94095   0.00000  Uiso   1.00
N87    N     0.57674   0.62016   0.22266   0.00000  Uiso   1.00
N88    N     0.23240   0.13373   0.96997   0.00000  Uiso   1.00
N89    N     0.86797   0.60389   0.03370   0.00000  Uiso   1.00
N90    N     0.60304   0.57681   0.07082   0.00000  Uiso   1.00
N91    N     0.25870   0.09038   0.81813   0.00000  Uiso   1.00
N92    N     0.89428   0.56055   0.88186   0.00000  Uiso   1.00
C93    C     0.22340   0.71031   0.58883   0.00000  Uiso   1.00
C94    C     0.32720   0.76764   0.58861   0.00000  Uiso   1.00
C95    C     0.39983   0.79168   0.67300   0.00000  Uiso   1.00
C96    C     0.48997   0.84446   0.65696   0.00000  Uiso   1.00
C97    C     0.64861   0.92922   0.67137   0.00000  Uiso   1.00
C98    C     0.23232   0.62609   0.51897   0.00000  Uiso   1.00
C99    C     0.22515   0.53113   0.54481   0.00000  Uiso   1.00
C100   C     0.23540   0.46475   0.47014   0.00000  Uiso   1.00
C101   C     0.24666   0.32976   0.37640   0.00000  Uiso   1.00
C102   C     0.13189   0.77212   0.53654   0.00000  Uiso   1.00
C103   C     0.04027   0.79993   0.57714   0.00000  Uiso   1.00
C104   C     0.96596   0.85648   0.51725   0.00000  Uiso   1.00
C105   C     0.82129   0.94823   0.45081   0.00000  Uiso   1.00
C106   C     0.25433   0.76128   0.41026   0.00000  Uiso   1.00
C107   C     0.34400   0.79532   0.49162   0.00000  Uiso   1.00
C108   C     0.43405   0.84808   0.47544   0.00000  Uiso   1.00
C109   C     0.50680   0.87220   0.55980   0.00000  Uiso   1.00
C110   C     0.24912   0.65377   0.42198   0.00000  Uiso   1.00
C111   C     0.25937   0.58752   0.34725   0.00000  Uiso   1.00
C112   C     0.25223   0.49248   0.37297   0.00000  Uiso   1.00
C113   C     0.14869   0.79981   0.43955   0.00000  Uiso   1.00
C114   C     0.07450   0.85632   0.37958   0.00000  Uiso   1.00
C115   C     0.98279   0.88422   0.42009   0.00000  Uiso   1.00
H116   H     0.21032   0.68875   0.66434   0.00000  Uiso   1.00
H117   H     0.38680   0.77024   0.74805   0.00000  Uiso   1.00
H118   H     0.21214   0.50972   0.61987   0.00000  Uiso   1.00
H119   H     0.02730   0.77849   0.65220   0.00000  Uiso   1.00
H120   H     0.58989   0.87276   0.79808   0.00000  Uiso   1.00
H121   H     0.22157   0.32345   0.52780   0.00000  Uiso   1.00
H122   H     0.83179   0.89019   0.59598   0.00000  Uiso   1.00
H123   H     0.26741   0.78283   0.33475   0.00000  Uiso   1.00
H124   H     0.44703   0.86949   0.40038   0.00000  Uiso   1.00
H125   H     0.27237   0.60897   0.27220   0.00000  Uiso   1.00
H126   H     0.08753   0.87774   0.30453   0.00000  Uiso   1.00
H127   H     0.63878   0.95331   0.51590   0.00000  Uiso   1.00
H128   H     0.27045   0.40400   0.24562   0.00000  Uiso   1.00
H129   H     0.88068   0.97075   0.31379   0.00000  Uiso   1.00
O130   O     0.73149   0.96832   0.70610   0.00000  Uiso   1.00
O131   O     0.24824   0.24765   0.35150   0.00000  Uiso   1.00
O132   O     0.73687   0.99120   0.44095   0.00000  Uiso   1.00
N133   N     0.57674   0.87984   0.72266   0.00000  Uiso   1.00
N134   N     0.23240   0.36627   0.46997   0.00000  Uiso   1.00
N135   N     0.86797   0.89611   0.53370   0.00000  Uiso   1.00
N136   N     0.60304   0.92319   0.57082   0.00000  Uiso   1.00
N137   N     0.25870   0.40962   0.31813   0.00000  Uiso   1.00
N138   N     0.89428   0.93945   0.38186   0.00000  Uiso   1.00
C139   C     0.77660   0.21031   0.91117   0.00000  Uiso   1.00
C140   C     0.67280   0.26764   0.91139   0.00000  Uiso   1.00
C141   C     0.60017   0.29168   0.82700   0.00000  Uiso   1.00
C142   C     0.51003   0.34446   0.84304   0.00000  Uiso   1.00
C143   C     0.35139   0.42922   0.82863   0.00000  Uiso   1.00
C144   C     0.76768   0.12609   0.98103   0.00000  Uiso   1.00
C145   C     0.77485   0.03113   0.95519   0.00000  Uiso   1.00
C146   C     0.76460   0.96475   0.02986   0.00000  Uiso   1.00
C147   C     0.75334   0.82976   0.12360   0.00000  Uiso   1.00
C148   C     0.86811   0.27212   0.96346   0.00000  Uiso   1.00
C149   C     0.95973   0.29993   0.92286   0.00000  Uiso   1.00
C150   C     0.03404   0.35648   0.98275   0.00000  Uiso   1.00
C151   C     0.17871   0.44823   0.04919   0.00000  Uiso   1.00
C152   C     0.74567   0.26128   0.08974   0.00000  Uiso   1.00
C153   C     0.65600   0.29532   0.00838   0.00000  Uiso   1.00
C154   C     0.56595   0.34808   0.02456   0.00000  Uiso   1.00
C155   C     0.49320   0.37220   0.94020   0.00000  Uiso   1.00
C156   C     0.75088   0.15377   0.07802   0.00000  Uiso   1.00
C157   C     0.74063   0.08752   0.15275   0.00000  Uiso   1.00
C158   C     0.74777   0.99248   0.12703   0.00000  Uiso   1.00
C159   C     0.85131   0.29981   0.06045   0.00000  Uiso   1.00
C160   C     0.92550   0.35632   0.12042   0.00000  Uiso   1.00
C161   C     0.01721   0.38422   0.07991   0.00000  Uiso   1.00
H162   H     0.78968   0.18875   0.83566   0.00000  Uiso   1.00
H163   H     0.61320   0.27024   0.75195   0.00000  Uiso   1.00
H164   H     0.78786   0.00972   0.88013   0.00000  Uiso   1.00
H165   H     0.97270   0.27849   0.84780   0.00000  Uiso   1.00
H166   H     0.41011   0.37276   0.70192   0.00000  Uiso   1.00
H167   H     0.77843   0.82345   0.97220   0.00000  Uiso   1.00
H168   H     0.16821   0.39019   0.90402   0.00000  Uiso   1.00
H169   H     0.73259   0.28283   0.16525   0.00000  Uiso   1.00
H170   H     0.55297   0.36949   0.09962   0.00000  Uiso   1.00
H171   H     0.72763   0.10897   0.22780   0.00000  Uiso   1.00
H172   H     0.91247   0.37774   0.19547   0.00000  Uiso   1.00
H173   H     0.36122   0.45331   0.98410   0.00000  Uiso   1.00
H174   H     0.72955   0.90400   0.25438   0.00000  Uiso   1.00
H175   H     0.11932   0.47075   0.18621   0.00000  Uiso   1.00
O176   O     0.26851   0.46832   0.79390   0.00000  Uiso   1.00
O177   O     0.75176   0.74765   0.14850   0.00000  Uiso   1.00
O178   O     0.26313   0.49120   0.05905   0.00000  Uiso   1.00
N179   N     0.42326   0.37984   0.77734   0.00000  Uiso   1.00
N180   N     0.76760   0.86627   0.03003   0.00000  Uiso   1.00
N181   N     0.13203   0.39611   0.96630   0.00000  Uiso   1.00
N182   N     0.39696   0.42319   0.92918   0.00000  Uiso   1.00
N183   N     0.74130   0.90962   0.18187   0.00000  Uiso   1.00
N184   N     0.10572   0.43945   0.11814   0.00000  Uiso   1.00
