data_job_04610
_audit_creation_date              2018-12-19
_audit_creation_method            'Materials Studio'
_symmetry_space_group_name_H-M    'P1'
_symmetry_Int_Tables_number       1
_symmetry_cell_setting            triclinic
loop_
_symmetry_equiv_pos_as_xyz
  x,y,z
_cell_length_a                    12.3532
_cell_length_b                    8.2054
_cell_length_c                    26.3160
_cell_angle_alpha                 90.0000
_cell_angle_beta                  114.0270
_cell_angle_gamma                 90.0000
loop_
_atom_site_label
_atom_site_type_symbol
_atom_site_fract_x
_atom_site_fract_y
_atom_site_fract_z
_atom_site_U_iso_or_equiv
_atom_site_adp_type
_atom_site_occupancy
C1     C     0.34777   0.15321   0.85413   0.00000  Uiso   1.00
C2     C     0.28816   0.06147   0.88617   0.00000  Uiso   1.00
C3     C     0.28343   0.11203   0.93555   0.00000  Uiso   1.00
C4     C     0.22476   0.01084   0.95832   0.00000  Uiso   1.00
C5     C     0.14016   0.89063   0.01200   0.00000  Uiso   1.00
C6     C     0.43716   0.03506   0.84815   0.00000  Uiso   1.00
C7     C     0.55771   0.06343   0.86556   0.00000  Uiso   1.00
C8     C     0.62445   0.94001   0.85632   0.00000  Uiso   1.00
C9     C     0.77116   0.77885   0.85094   0.00000  Uiso   1.00
C10    C     0.25235   0.17833   0.79562   0.00000  Uiso   1.00
C11    C     0.21753   0.32716   0.76884   0.00000  Uiso   1.00
C12    C     0.12869   0.32436   0.71536   0.00000  Uiso   1.00
C13    C     0.98847   0.38565   0.62840   0.00000  Uiso   1.00
C14    C     0.25196   0.88359   0.80676   0.00000  Uiso   1.00
C15    C     0.23612   0.91502   0.86044   0.00000  Uiso   1.00
C16    C     0.17743   0.81373   0.88314   0.00000  Uiso   1.00
C17    C     0.17261   0.86414   0.93255   0.00000  Uiso   1.00
C18    C     0.38512   0.88862   0.82243   0.00000  Uiso   1.00
C19    C     0.45170   0.76513   0.81315   0.00000  Uiso   1.00
C20    C     0.57232   0.79330   0.83054   0.00000  Uiso   1.00
C21    C     0.20030   0.03188   0.76988   0.00000  Uiso   1.00
C22    C     0.11152   0.02886   0.71643   0.00000  Uiso   1.00
C23    C     0.07656   0.17765   0.68958   0.00000  Uiso   1.00
H24    H     0.38829   0.26722   0.87417   0.00000  Uiso   1.00
H25    H     0.32373   0.22536   0.95545   0.00000  Uiso   1.00
H26    H     0.59795   0.17678   0.88547   0.00000  Uiso   1.00
H27    H     0.25782   0.44046   0.78876   0.00000  Uiso   1.00
H28    H     0.22923   0.11435   0.03424   0.00000  Uiso   1.00
H29    H     0.80744   0.01192   0.88665   0.00000  Uiso   1.00
H30    H     0.09021   0.56796   0.68273   0.00000  Uiso   1.00
H31    H     0.21144   0.76957   0.78673   0.00000  Uiso   1.00
H32    H     0.13716   0.70041   0.86322   0.00000  Uiso   1.00
H33    H     0.41139   0.65182   0.79324   0.00000  Uiso   1.00
H34    H     0.07126   0.91551   0.69653   0.00000  Uiso   1.00
H35    H     0.07782   0.68827   0.95938   0.00000  Uiso   1.00
H36    H     0.65603   0.58585   0.81180   0.00000  Uiso   1.00
H37    H     0.93880   0.14188   0.60788   0.00000  Uiso   1.00
O38    O     0.10789   0.86476   0.04872   0.00000  Uiso   1.00
O39    O     0.86647   0.73040   0.85508   0.00000  Uiso   1.00
O40    O     0.92548   0.45990   0.58755   0.00000  Uiso   1.00
N41    N     0.20377   0.02358   0.00612   0.00000  Uiso   1.00
N42    N     0.74437   0.92781   0.86814   0.00000  Uiso   1.00
N43    N     0.07384   0.44765   0.67749   0.00000  Uiso   1.00
N44    N     0.12229   0.79431   0.96584   0.00000  Uiso   1.00
N45    N     0.66289   0.69854   0.82786   0.00000  Uiso   1.00
N46    N     0.99236   0.21838   0.63721   0.00000  Uiso   1.00
C47    C     0.65223   0.15321   0.64587   0.00000  Uiso   1.00
C48    C     0.71184   0.06147   0.61383   0.00000  Uiso   1.00
C49    C     0.71657   0.11203   0.56445   0.00000  Uiso   1.00
C50    C     0.77524   0.01084   0.54168   0.00000  Uiso   1.00
C51    C     0.85984   0.89063   0.48800   0.00000  Uiso   1.00
C52    C     0.56284   0.03506   0.65185   0.00000  Uiso   1.00
C53    C     0.44229   0.06343   0.63444   0.00000  Uiso   1.00
C54    C     0.37555   0.94001   0.64368   0.00000  Uiso   1.00
C55    C     0.22884   0.77885   0.64906   0.00000  Uiso   1.00
C56    C     0.74765   0.17833   0.70438   0.00000  Uiso   1.00
C57    C     0.78247   0.32716   0.73116   0.00000  Uiso   1.00
C58    C     0.87131   0.32436   0.78464   0.00000  Uiso   1.00
C59    C     0.01153   0.38565   0.87160   0.00000  Uiso   1.00
C60    C     0.74804   0.88359   0.69324   0.00000  Uiso   1.00
C61    C     0.76388   0.91502   0.63956   0.00000  Uiso   1.00
C62    C     0.82257   0.81373   0.61686   0.00000  Uiso   1.00
C63    C     0.82739   0.86414   0.56745   0.00000  Uiso   1.00
C64    C     0.61488   0.88862   0.67757   0.00000  Uiso   1.00
C65    C     0.54830   0.76513   0.68685   0.00000  Uiso   1.00
C66    C     0.42768   0.79330   0.66946   0.00000  Uiso   1.00
C67    C     0.79970   0.03188   0.73012   0.00000  Uiso   1.00
C68    C     0.88848   0.02886   0.78357   0.00000  Uiso   1.00
C69    C     0.92344   0.17765   0.81042   0.00000  Uiso   1.00
H70    H     0.61171   0.26722   0.62583   0.00000  Uiso   1.00
H71    H     0.67627   0.22536   0.54455   0.00000  Uiso   1.00
H72    H     0.40205   0.17678   0.61453   0.00000  Uiso   1.00
H73    H     0.74218   0.44046   0.71124   0.00000  Uiso   1.00
H74    H     0.77077   0.11435   0.46576   0.00000  Uiso   1.00
H75    H     0.19256   0.01192   0.61335   0.00000  Uiso   1.00
H76    H     0.90979   0.56796   0.81727   0.00000  Uiso   1.00
H77    H     0.78856   0.76957   0.71327   0.00000  Uiso   1.00
H78    H     0.86284   0.70041   0.63678   0.00000  Uiso   1.00
H79    H     0.58861   0.65182   0.70676   0.00000  Uiso   1.00
H80    H     0.92874   0.91551   0.80347   0.00000  Uiso   1.00
H81    H     0.92218   0.68827   0.54062   0.00000  Uiso   1.00
H82    H     0.34397   0.58585   0.68820   0.00000  Uiso   1.00
H83    H     0.06120   0.14188   0.89212   0.00000  Uiso   1.00
O84    O     0.89211   0.86476   0.45128   0.00000  Uiso   1.00
O85    O     0.13353   0.73040   0.64492   0.00000  Uiso   1.00
O86    O     0.07452   0.45990   0.91245   0.00000  Uiso   1.00
N87    N     0.79623   0.02358   0.49388   0.00000  Uiso   1.00
N88    N     0.25563   0.92781   0.63186   0.00000  Uiso   1.00
N89    N     0.92616   0.44765   0.82251   0.00000  Uiso   1.00
N90    N     0.87771   0.79431   0.53416   0.00000  Uiso   1.00
N91    N     0.33711   0.69854   0.67214   0.00000  Uiso   1.00
N92    N     0.00764   0.21838   0.86279   0.00000  Uiso   1.00
C93    C     0.65223   0.84679   0.14587   0.00000  Uiso   1.00
C94    C     0.71184   0.93853   0.11383   0.00000  Uiso   1.00
C95    C     0.71657   0.88797   0.06445   0.00000  Uiso   1.00
C96    C     0.77524   0.98916   0.04168   0.00000  Uiso   1.00
C97    C     0.85984   0.10937   0.98800   0.00000  Uiso   1.00
C98    C     0.56284   0.96494   0.15185   0.00000  Uiso   1.00
C99    C     0.44229   0.93657   0.13444   0.00000  Uiso   1.00
C100   C     0.37555   0.05999   0.14368   0.00000  Uiso   1.00
C101   C     0.22884   0.22115   0.14906   0.00000  Uiso   1.00
C102   C     0.74765   0.82167   0.20438   0.00000  Uiso   1.00
C103   C     0.78247   0.67284   0.23116   0.00000  Uiso   1.00
C104   C     0.87131   0.67564   0.28464   0.00000  Uiso   1.00
C105   C     0.01153   0.61435   0.37160   0.00000  Uiso   1.00
C106   C     0.74804   0.11641   0.19324   0.00000  Uiso   1.00
C107   C     0.76388   0.08498   0.13956   0.00000  Uiso   1.00
C108   C     0.82257   0.18627   0.11686   0.00000  Uiso   1.00
C109   C     0.82739   0.13586   0.06745   0.00000  Uiso   1.00
C110   C     0.61488   0.11138   0.17757   0.00000  Uiso   1.00
C111   C     0.54830   0.23487   0.18685   0.00000  Uiso   1.00
C112   C     0.42768   0.20670   0.16946   0.00000  Uiso   1.00
C113   C     0.79970   0.96812   0.23012   0.00000  Uiso   1.00
C114   C     0.88848   0.97114   0.28357   0.00000  Uiso   1.00
C115   C     0.92344   0.82235   0.31042   0.00000  Uiso   1.00
H116   H     0.61171   0.73278   0.12583   0.00000  Uiso   1.00
H117   H     0.67627   0.77464   0.04455   0.00000  Uiso   1.00
H118   H     0.40205   0.82322   0.11453   0.00000  Uiso   1.00
H119   H     0.74218   0.55954   0.21124   0.00000  Uiso   1.00
H120   H     0.77077   0.88565   0.96576   0.00000  Uiso   1.00
H121   H     0.19256   0.98808   0.11335   0.00000  Uiso   1.00
H122   H     0.90979   0.43204   0.31727   0.00000  Uiso   1.00
H123   H     0.78856   0.23043   0.21327   0.00000  Uiso   1.00
H124   H     0.86284   0.29959   0.13678   0.00000  Uiso   1.00
H125   H     0.58861   0.34818   0.20676   0.00000  Uiso   1.00
H126   H     0.92874   0.08449   0.30347   0.00000  Uiso   1.00
H127   H     0.92218   0.31173   0.04062   0.00000  Uiso   1.00
H128   H     0.34397   0.41415   0.18820   0.00000  Uiso   1.00
H129   H     0.06120   0.85812   0.39212   0.00000  Uiso   1.00
O130   O     0.89211   0.13524   0.95128   0.00000  Uiso   1.00
O131   O     0.13353   0.26960   0.14492   0.00000  Uiso   1.00
O132   O     0.07452   0.54010   0.41245   0.00000  Uiso   1.00
N133   N     0.79623   0.97642   0.99388   0.00000  Uiso   1.00
N134   N     0.25563   0.07219   0.13186   0.00000  Uiso   1.00
N135   N     0.92616   0.55235   0.32251   0.00000  Uiso   1.00
N136   N     0.87771   0.20569   0.03416   0.00000  Uiso   1.00
N137   N     0.33711   0.30146   0.17214   0.00000  Uiso   1.00
N138   N     0.00764   0.78162   0.36279   0.00000  Uiso   1.00
C139   C     0.34777   0.84679   0.35413   0.00000  Uiso   1.00
C140   C     0.28816   0.93853   0.38617   0.00000  Uiso   1.00
C141   C     0.28343   0.88797   0.43555   0.00000  Uiso   1.00
C142   C     0.22476   0.98916   0.45832   0.00000  Uiso   1.00
C143   C     0.14016   0.10937   0.51200   0.00000  Uiso   1.00
C144   C     0.43716   0.96494   0.34815   0.00000  Uiso   1.00
C145   C     0.55771   0.93657   0.36556   0.00000  Uiso   1.00
C146   C     0.62445   0.05999   0.35632   0.00000  Uiso   1.00
C147   C     0.77116   0.22115   0.35094   0.00000  Uiso   1.00
C148   C     0.25235   0.82167   0.29562   0.00000  Uiso   1.00
C149   C     0.21753   0.67284   0.26884   0.00000  Uiso   1.00
C150   C     0.12869   0.67564   0.21536   0.00000  Uiso   1.00
C151   C     0.98847   0.61435   0.12840   0.00000  Uiso   1.00
C152   C     0.25196   0.11641   0.30676   0.00000  Uiso   1.00
C153   C     0.23612   0.08498   0.36044   0.00000  Uiso   1.00
C154   C     0.17743   0.18627   0.38314   0.00000  Uiso   1.00
C155   C     0.17261   0.13586   0.43255   0.00000  Uiso   1.00
C156   C     0.38512   0.11138   0.32243   0.00000  Uiso   1.00
C157   C     0.45170   0.23487   0.31315   0.00000  Uiso   1.00
C158   C     0.57232   0.20670   0.33054   0.00000  Uiso   1.00
C159   C     0.20030   0.96812   0.26988   0.00000  Uiso   1.00
C160   C     0.11152   0.97114   0.21643   0.00000  Uiso   1.00
C161   C     0.07656   0.82235   0.18958   0.00000  Uiso   1.00
H162   H     0.38829   0.73278   0.37417   0.00000  Uiso   1.00
H163   H     0.32373   0.77464   0.45545   0.00000  Uiso   1.00
H164   H     0.59795   0.82322   0.38547   0.00000  Uiso   1.00
H165   H     0.25782   0.55954   0.28876   0.00000  Uiso   1.00
H166   H     0.22923   0.88565   0.53424   0.00000  Uiso   1.00
H167   H     0.80744   0.98808   0.38665   0.00000  Uiso   1.00
H168   H     0.09021   0.43204   0.18273   0.00000  Uiso   1.00
H169   H     0.21144   0.23043   0.28673   0.00000  Uiso   1.00
H170   H     0.13716   0.29959   0.36322   0.00000  Uiso   1.00
H171   H     0.41139   0.34818   0.29324   0.00000  Uiso   1.00
H172   H     0.07126   0.08449   0.19653   0.00000  Uiso   1.00
H173   H     0.07782   0.31173   0.45938   0.00000  Uiso   1.00
H174   H     0.65603   0.41415   0.31180   0.00000  Uiso   1.00
H175   H     0.93880   0.85812   0.10788   0.00000  Uiso   1.00
O176   O     0.10789   0.13524   0.54872   0.00000  Uiso   1.00
O177   O     0.86647   0.26960   0.35508   0.00000  Uiso   1.00
O178   O     0.92548   0.54010   0.08755   0.00000  Uiso   1.00
N179   N     0.20377   0.97642   0.50612   0.00000  Uiso   1.00
N180   N     0.74437   0.07219   0.36814   0.00000  Uiso   1.00
N181   N     0.07384   0.55235   0.17749   0.00000  Uiso   1.00
N182   N     0.12229   0.20569   0.46584   0.00000  Uiso   1.00
N183   N     0.66289   0.30146   0.32786   0.00000  Uiso   1.00
N184   N     0.99236   0.78162   0.13721   0.00000  Uiso   1.00
