data_job_06947
_audit_creation_date              2018-12-19
_audit_creation_method            'Materials Studio'
_symmetry_space_group_name_H-M    'P1'
_symmetry_Int_Tables_number       1
_symmetry_cell_setting            triclinic
loop_
_symmetry_equiv_pos_as_xyz
  x,y,z
_cell_length_a                    22.0267
_cell_length_b                    22.4100
_cell_length_c                    21.2349
_cell_angle_alpha                 82.5055
_cell_angle_beta                  83.5459
_cell_angle_gamma                 82.4207
loop_
_atom_site_label
_atom_site_type_symbol
_atom_site_fract_x
_atom_site_fract_y
_atom_site_fract_z
_atom_site_U_iso_or_equiv
_atom_site_adp_type
_atom_site_occupancy
C1     C     0.17426   0.46627   0.51114   0.00000  Uiso   1.00
C2     C     0.17397   0.40454   0.48836   0.00000  Uiso   1.00
C3     C     0.16437   0.35114   0.52715   0.00000  Uiso   1.00
C4     C     0.16589   0.29945   0.49710   0.00000  Uiso   1.00
C5     C     0.16384   0.20333   0.47184   0.00000  Uiso   1.00
C6     C     0.23630   0.48719   0.48503   0.00000  Uiso   1.00
C7     C     0.27909   0.50329   0.52102   0.00000  Uiso   1.00
C8     C     0.33308   0.52119   0.48817   0.00000  Uiso   1.00
C9     C     0.42777   0.55343   0.45774   0.00000  Uiso   1.00
C10    C     0.12608   0.50925   0.47621   0.00000  Uiso   1.00
C11    C     0.07620   0.54390   0.50478   0.00000  Uiso   1.00
C12    C     0.03740   0.58038   0.46451   0.00000  Uiso   1.00
C13    C     0.96095   0.64686   0.42037   0.00000  Uiso   1.00
C14    C     0.19405   0.46944   0.38882   0.00000  Uiso   1.00
C15    C     0.18472   0.40626   0.42192   0.00000  Uiso   1.00
C16    C     0.18626   0.35464   0.39181   0.00000  Uiso   1.00
C17    C     0.17666   0.30117   0.43054   0.00000  Uiso   1.00
C18    C     0.24705   0.48892   0.41859   0.00000  Uiso   1.00
C19    C     0.30098   0.50680   0.38569   0.00000  Uiso   1.00
C20    C     0.34384   0.52291   0.42161   0.00000  Uiso   1.00
C21    C     0.13682   0.51097   0.40977   0.00000  Uiso   1.00
C22    C     0.09809   0.54740   0.36944   0.00000  Uiso   1.00
C23    C     0.04816   0.58210   0.39795   0.00000  Uiso   1.00
H24    H     0.16590   0.46493   0.56287   0.00000  Uiso   1.00
H25    H     0.15606   0.34982   0.57856   0.00000  Uiso   1.00
H26    H     0.27076   0.50196   0.57244   0.00000  Uiso   1.00
H27    H     0.06790   0.54256   0.55620   0.00000  Uiso   1.00
H28    H     0.14991   0.22295   0.56666   0.00000  Uiso   1.00
H29    H     0.39176   0.54377   0.55374   0.00000  Uiso   1.00
H30    H     0.96399   0.62938   0.51950   0.00000  Uiso   1.00
H31    H     0.20241   0.47078   0.33709   0.00000  Uiso   1.00
H32    H     0.19458   0.35599   0.34039   0.00000  Uiso   1.00
H33    H     0.30928   0.50813   0.33427   0.00000  Uiso   1.00
H34    H     0.10642   0.54872   0.31803   0.00000  Uiso   1.00
H35    H     0.18118   0.22796   0.37335   0.00000  Uiso   1.00
H36    H     0.42302   0.54878   0.36044   0.00000  Uiso   1.00
H37    H     0.99525   0.63438   0.32620   0.00000  Uiso   1.00
O38    O     0.15975   0.14983   0.47625   0.00000  Uiso   1.00
O39    O     0.47703   0.57074   0.45931   0.00000  Uiso   1.00
O40    O     0.91581   0.68305   0.41438   0.00000  Uiso   1.00
N41    N     0.15833   0.23989   0.52071   0.00000  Uiso   1.00
N42    N     0.38445   0.53982   0.50863   0.00000  Uiso   1.00
N43    N     0.98453   0.61987   0.47662   0.00000  Uiso   1.00
N44    N     0.17516   0.24258   0.41669   0.00000  Uiso   1.00
N45    N     0.40127   0.54251   0.40462   0.00000  Uiso   1.00
N46    N     0.00135   0.62256   0.37261   0.00000  Uiso   1.00
C47    C     0.45310   0.21732   0.50713   0.00000  Uiso   1.00
C48    C     0.43485   0.23592   0.43953   0.00000  Uiso   1.00
C49    C     0.47432   0.23413   0.38389   0.00000  Uiso   1.00
C50    C     0.44868   0.25307   0.32676   0.00000  Uiso   1.00
C51    C     0.42990   0.27894   0.22200   0.00000  Uiso   1.00
C52    C     0.43265   0.27230   0.54308   0.00000  Uiso   1.00
C53    C     0.47028   0.30108   0.57451   0.00000  Uiso   1.00
C54    C     0.44279   0.35064   0.60456   0.00000  Uiso   1.00
C55    C     0.42059   0.43295   0.66061   0.00000  Uiso   1.00
C56    C     0.41250   0.16899   0.53704   0.00000  Uiso   1.00
C57    C     0.43317   0.11091   0.56342   0.00000  Uiso   1.00
C58    C     0.38870   0.07349   0.58839   0.00000  Uiso   1.00
C59    C     0.33521   0.99540   0.63507   0.00000  Uiso   1.00
C60    C     0.33736   0.25415   0.50461   0.00000  Uiso   1.00
C61    C     0.37198   0.25593   0.43816   0.00000  Uiso   1.00
C62    C     0.34627   0.27488   0.38110   0.00000  Uiso   1.00
C63    C     0.38570   0.27311   0.32538   0.00000  Uiso   1.00
C64    C     0.36979   0.29231   0.54171   0.00000  Uiso   1.00
C65    C     0.34223   0.34183   0.57172   0.00000  Uiso   1.00
C66    C     0.37981   0.37068   0.60319   0.00000  Uiso   1.00
C67    C     0.34963   0.18899   0.53567   0.00000  Uiso   1.00
C68    C     0.30512   0.15166   0.56062   0.00000  Uiso   1.00
C69    C     0.32572   0.09353   0.58702   0.00000  Uiso   1.00
H70    H     0.50205   0.20175   0.50820   0.00000  Uiso   1.00
H71    H     0.52298   0.21865   0.38497   0.00000  Uiso   1.00
H72    H     0.51893   0.28558   0.57557   0.00000  Uiso   1.00
H73    H     0.48182   0.09544   0.56447   0.00000  Uiso   1.00
H74    H     0.51846   0.24622   0.24775   0.00000  Uiso   1.00
H75    H     0.50992   0.38735   0.64965   0.00000  Uiso   1.00
H76    H     0.43168   0.98640   0.62625   0.00000  Uiso   1.00
H77    H     0.28842   0.26973   0.50354   0.00000  Uiso   1.00
H78    H     0.29762   0.29036   0.38005   0.00000  Uiso   1.00
H79    H     0.29358   0.35729   0.57065   0.00000  Uiso   1.00
H80    H     0.25647   0.16715   0.55955   0.00000  Uiso   1.00
H81    H     0.33555   0.30443   0.24375   0.00000  Uiso   1.00
H82    H     0.32702   0.44556   0.64567   0.00000  Uiso   1.00
H83    H     0.24878   0.04461   0.62226   0.00000  Uiso   1.00
O84    O     0.43692   0.28769   0.16460   0.00000  Uiso   1.00
O85    O     0.42572   0.47283   0.69190   0.00000  Uiso   1.00
O86    O     0.32307   0.94680   0.66119   0.00000  Uiso   1.00
N87    N     0.47414   0.25708   0.26375   0.00000  Uiso   1.00
N88    N     0.46617   0.38903   0.63951   0.00000  Uiso   1.00
N89    N     0.39302   0.01418   0.61764   0.00000  Uiso   1.00
N90    N     0.37572   0.28840   0.26160   0.00000  Uiso   1.00
N91    N     0.36775   0.42035   0.63736   0.00000  Uiso   1.00
N92    N     0.29460   0.04550   0.61549   0.00000  Uiso   1.00
C93    C     0.51458   0.54199   0.24039   0.00000  Uiso   1.00
C94    C     0.45103   0.52952   0.22732   0.00000  Uiso   1.00
C95    C     0.39780   0.57020   0.23022   0.00000  Uiso   1.00
C96    C     0.34426   0.55011   0.21662   0.00000  Uiso   1.00
C97    C     0.24561   0.53967   0.19878   0.00000  Uiso   1.00
C98    C     0.53513   0.49297   0.29308   0.00000  Uiso   1.00
C99    C     0.55263   0.50292   0.35126   0.00000  Uiso   1.00
C100   C     0.56989   0.45205   0.39301   0.00000  Uiso   1.00
C101   C     0.60185   0.38486   0.47724   0.00000  Uiso   1.00
C102   C     0.55728   0.52945   0.18070   0.00000  Uiso   1.00
C103   C     0.59341   0.57006   0.14441   0.00000  Uiso   1.00
C104   C     0.62933   0.54991   0.09156   0.00000  Uiso   1.00
C105   C     0.69568   0.53936   0.00131   0.00000  Uiso   1.00
C106   C     0.51414   0.43397   0.21109   0.00000  Uiso   1.00
C107   C     0.45079   0.47085   0.21141   0.00000  Uiso   1.00
C108   C     0.39732   0.45069   0.19780   0.00000  Uiso   1.00
C109   C     0.34402   0.49133   0.20068   0.00000  Uiso   1.00
C110   C     0.53489   0.43430   0.27716   0.00000  Uiso   1.00
C111   C     0.55214   0.38341   0.31884   0.00000  Uiso   1.00
C112   C     0.56965   0.39327   0.37707   0.00000  Uiso   1.00
C113   C     0.55704   0.47078   0.16479   0.00000  Uiso   1.00
C114   C     0.59292   0.45055   0.11199   0.00000  Uiso   1.00
C115   C     0.62909   0.49113   0.07561   0.00000  Uiso   1.00
H116   H     0.51477   0.58766   0.25279   0.00000  Uiso   1.00
H117   H     0.39800   0.61560   0.24255   0.00000  Uiso   1.00
H118   H     0.55281   0.54832   0.36356   0.00000  Uiso   1.00
H119   H     0.59358   0.61546   0.15674   0.00000  Uiso   1.00
H120   H     0.26844   0.62069   0.22419   0.00000  Uiso   1.00
H121   H     0.59488   0.47884   0.47935   0.00000  Uiso   1.00
H122   H     0.68086   0.62041   0.04323   0.00000  Uiso   1.00
H123   H     0.51396   0.38829   0.19870   0.00000  Uiso   1.00
H124   H     0.39714   0.40528   0.18548   0.00000  Uiso   1.00
H125   H     0.55195   0.33801   0.30650   0.00000  Uiso   1.00
H126   H     0.59272   0.40515   0.09968   0.00000  Uiso   1.00
H127   H     0.26774   0.44999   0.17788   0.00000  Uiso   1.00
H128   H     0.59418   0.30814   0.43304   0.00000  Uiso   1.00
H129   H     0.68016   0.44971   0.99692   0.00000  Uiso   1.00
O130   O     0.19126   0.55011   0.19334   0.00000  Uiso   1.00
O131   O     0.61954   0.36401   0.52810   0.00000  Uiso   1.00
O132   O     0.73234   0.54975   0.95592   0.00000  Uiso   1.00
N133   N     0.28431   0.57819   0.21510   0.00000  Uiso   1.00
N134   N     0.58950   0.44556   0.45366   0.00000  Uiso   1.00
N135   N     0.66990   0.57792   0.04593   0.00000  Uiso   1.00
N136   N     0.28393   0.48633   0.19018   0.00000  Uiso   1.00
N137   N     0.58912   0.35371   0.42874   0.00000  Uiso   1.00
N138   N     0.66952   0.48607   0.02101   0.00000  Uiso   1.00
C139   C     0.79751   0.05518   0.78109   0.00000  Uiso   1.00
C140   C     0.79447   0.03366   0.71641   0.00000  Uiso   1.00
C141   C     0.78124   0.07056   0.66073   0.00000  Uiso   1.00
C142   C     0.78069   0.04214   0.60652   0.00000  Uiso   1.00
C143   C     0.77414   0.01831   0.50586   0.00000  Uiso   1.00
C144   C     0.86133   0.03067   0.80098   0.00000  Uiso   1.00
C145   C     0.90432   0.06506   0.81641   0.00000  Uiso   1.00
C146   C     0.96005   0.03411   0.83339   0.00000  Uiso   1.00
C147   C     0.05728   0.00564   0.86407   0.00000  Uiso   1.00
C148   C     0.75218   0.02164   0.82776   0.00000  Uiso   1.00
C149   C     0.70341   0.04844   0.86572   0.00000  Uiso   1.00
C150   C     0.66725   0.00989   0.90527   0.00000  Uiso   1.00
C151   C     0.59502   0.96740   0.97753   0.00000  Uiso   1.00
C152   C     0.82004   0.93906   0.78384   0.00000  Uiso   1.00
C153   C     0.80671   0.97058   0.71791   0.00000  Uiso   1.00
C154   C     0.80617   0.94209   0.66377   0.00000  Uiso   1.00
C155   C     0.79295   0.97895   0.60801   0.00000  Uiso   1.00
C156   C     0.87357   0.96760   0.80247   0.00000  Uiso   1.00
C157   C     0.92925   0.93659   0.81945   0.00000  Uiso   1.00
C158   C     0.97231   0.97092   0.83489   0.00000  Uiso   1.00
C159   C     0.76442   0.95857   0.82926   0.00000  Uiso   1.00
C160   C     0.72834   0.91996   0.86876   0.00000  Uiso   1.00
C161   C     0.67952   0.94670   0.90677   0.00000  Uiso   1.00
H162   H     0.78799   0.10428   0.77993   0.00000  Uiso   1.00
H163   H     0.77178   0.11937   0.65959   0.00000  Uiso   1.00
H164   H     0.89483   0.11387   0.81525   0.00000  Uiso   1.00
H165   H     0.69395   0.09725   0.86455   0.00000  Uiso   1.00
H166   H     0.75924   0.10829   0.52682   0.00000  Uiso   1.00
H167   H     0.01869   0.09668   0.85506   0.00000  Uiso   1.00
H168   H     0.59509   0.06164   0.95903   0.00000  Uiso   1.00
H169   H     0.82957   0.88995   0.78501   0.00000  Uiso   1.00
H170   H     0.81565   0.89328   0.66494   0.00000  Uiso   1.00
H171   H     0.93870   0.88778   0.82060   0.00000  Uiso   1.00
H172   H     0.73782   0.87116   0.86990   0.00000  Uiso   1.00
H173   H     0.79484   0.92479   0.53117   0.00000  Uiso   1.00
H174   H     0.05429   0.91318   0.85941   0.00000  Uiso   1.00
H175   H     0.63070   0.87813   0.96338   0.00000  Uiso   1.00
O176   O     0.76715   0.02260   0.44992   0.00000  Uiso   1.00
O177   O     0.10753   0.00737   0.88057   0.00000  Uiso   1.00
O178   O     0.55179   0.96139   0.01697   0.00000  Uiso   1.00
N179   N     0.76951   0.06465   0.54433   0.00000  Uiso   1.00
N180   N     0.01209   0.05379   0.85120   0.00000  Uiso   1.00
N181   N     0.61608   0.02103   0.94842   0.00000  Uiso   1.00
N182   N     0.78867   0.96590   0.54666   0.00000  Uiso   1.00
N183   N     0.03125   0.95505   0.85354   0.00000  Uiso   1.00
N184   N     0.63523   0.92229   0.95075   0.00000  Uiso   1.00
C185   C     0.07681   0.03124   0.49190   0.00000  Uiso   1.00
C186   C     0.05539   0.96842   0.50487   0.00000  Uiso   1.00
C187   C     0.09294   0.91413   0.51626   0.00000  Uiso   1.00
C188   C     0.06449   0.86151   0.52709   0.00000  Uiso   1.00
C189   C     0.04092   0.76371   0.54734   0.00000  Uiso   1.00
C190   C     0.04038   0.06815   0.54207   0.00000  Uiso   1.00
C191   C     0.06532   0.09771   0.58473   0.00000  Uiso   1.00
C192   C     0.02423   0.12906   0.62688   0.00000  Uiso   1.00
C193   C     0.97736   0.18613   0.70485   0.00000  Uiso   1.00
C194   C     0.05426   0.05928   0.42808   0.00000  Uiso   1.00
C195   C     0.09087   0.08142   0.37490   0.00000  Uiso   1.00
C196   C     0.06147   0.10532   0.32108   0.00000  Uiso   1.00
C197   C     0.03615   0.14862   0.22206   0.00000  Uiso   1.00
C198   C     0.95949   0.03435   0.49088   0.00000  Uiso   1.00
C199   C     0.99166   0.97011   0.50431   0.00000  Uiso   1.00
C200   C     0.96315   0.91756   0.51513   0.00000  Uiso   1.00
C201   C     0.00066   0.86320   0.52654   0.00000  Uiso   1.00
C202   C     0.97666   0.06984   0.54152   0.00000  Uiso   1.00
C203   C     0.93552   0.10115   0.58360   0.00000  Uiso   1.00
C204   C     0.96040   0.13075   0.62632   0.00000  Uiso   1.00
C205   C     0.99054   0.06097   0.42752   0.00000  Uiso   1.00
C206   C     0.96107   0.08485   0.37377   0.00000  Uiso   1.00
C207   C     0.99763   0.10701   0.32052   0.00000  Uiso   1.00
H208   H     0.12642   0.02993   0.49233   0.00000  Uiso   1.00
H209   H     0.14226   0.91284   0.51669   0.00000  Uiso   1.00
H210   H     0.11463   0.09640   0.58514   0.00000  Uiso   1.00
H211   H     0.14018   0.08010   0.37535   0.00000  Uiso   1.00
H212   H     0.13171   0.78377   0.54347   0.00000  Uiso   1.00
H213   H     0.07347   0.17084   0.68780   0.00000  Uiso   1.00
H214   H     0.12734   0.13647   0.24540   0.00000  Uiso   1.00
H215   H     0.90988   0.03566   0.49045   0.00000  Uiso   1.00
H216   H     0.91383   0.91888   0.51470   0.00000  Uiso   1.00
H217   H     0.88621   0.10245   0.58316   0.00000  Uiso   1.00
H218   H     0.91176   0.08615   0.37336   0.00000  Uiso   1.00
H219   H     0.94632   0.78867   0.54186   0.00000  Uiso   1.00
H220   H     0.88808   0.17576   0.68619   0.00000  Uiso   1.00
H221   H     0.94194   0.14138   0.24379   0.00000  Uiso   1.00
O222   O     0.04552   0.70930   0.55867   0.00000  Uiso   1.00
O223   O     0.96911   0.21714   0.74802   0.00000  Uiso   1.00
O224   O     0.03979   0.17204   0.16760   0.00000  Uiso   1.00
N225   N     0.08754   0.80095   0.53975   0.00000  Uiso   1.00
N226   N     0.03309   0.16283   0.67470   0.00000  Uiso   1.00
N227   N     0.08345   0.13071   0.26109   0.00000  Uiso   1.00
N228   N     0.98778   0.80359   0.53888   0.00000  Uiso   1.00
N229   N     0.93333   0.16547   0.67383   0.00000  Uiso   1.00
N230   N     0.98369   0.13335   0.26023   0.00000  Uiso   1.00
C231   C     0.13289   0.75468   0.84151   0.00000  Uiso   1.00
C232   C     0.06628   0.74965   0.86811   0.00000  Uiso   1.00
C233   C     0.04469   0.74263   0.93228   0.00000  Uiso   1.00
C234   C     0.98216   0.73893   0.94684   0.00000  Uiso   1.00
C235   C     0.88472   0.73066   0.99543   0.00000  Uiso   1.00
C236   C     0.13196   0.81409   0.79731   0.00000  Uiso   1.00
C237   C     0.16562   0.86125   0.80195   0.00000  Uiso   1.00
C238   C     0.15838   0.91179   0.75689   0.00000  Uiso   1.00
C239   C     0.16296   0.00356   0.69553   0.00000  Uiso   1.00
C240   C     0.15062   0.70436   0.79863   0.00000  Uiso   1.00
C241   C     0.19998   0.65926   0.80436   0.00000  Uiso   1.00
C242   C     0.20846   0.61742   0.76041   0.00000  Uiso   1.00
C243   C     0.24201   0.53880   0.70110   0.00000  Uiso   1.00
C244   C     0.06021   0.76060   0.75324   0.00000  Uiso   1.00
C245   C     0.02680   0.75287   0.82016   0.00000  Uiso   1.00
C246   C     0.96428   0.74917   0.83463   0.00000  Uiso   1.00
C247   C     0.94261   0.74214   0.89881   0.00000  Uiso   1.00
C248   C     0.09249   0.81731   0.74936   0.00000  Uiso   1.00
C249   C     0.08520   0.86779   0.70429   0.00000  Uiso   1.00
C250   C     0.11883   0.91502   0.70886   0.00000  Uiso   1.00
C251   C     0.11114   0.70757   0.75068   0.00000  Uiso   1.00
C252   C     0.11956   0.66580   0.70671   0.00000  Uiso   1.00
C253   C     0.16891   0.62064   0.71238   0.00000  Uiso   1.00
H254   H     0.16363   0.75218   0.87883   0.00000  Uiso   1.00
H255   H     0.07526   0.74015   0.96937   0.00000  Uiso   1.00
H256   H     0.19617   0.85875   0.83905   0.00000  Uiso   1.00
H257   H     0.23052   0.65678   0.84147   0.00000  Uiso   1.00
H258   H     0.95987   0.72824   0.04861   0.00000  Uiso   1.00
H259   H     0.21483   0.97831   0.77380   0.00000  Uiso   1.00
H260   H     0.28727   0.55243   0.77890   0.00000  Uiso   1.00
H261   H     0.02947   0.76310   0.71592   0.00000  Uiso   1.00
H262   H     0.93374   0.75166   0.79752   0.00000  Uiso   1.00
H263   H     0.05465   0.87026   0.66719   0.00000  Uiso   1.00
H264   H     0.08900   0.66830   0.66961   0.00000  Uiso   1.00
H265   H     0.84501   0.73759   0.90912   0.00000  Uiso   1.00
H266   H     0.09997   0.98766   0.63431   0.00000  Uiso   1.00
H267   H     0.17240   0.56178   0.63942   0.00000  Uiso   1.00
O268   O     0.84188   0.72522   0.03548   0.00000  Uiso   1.00
O269   O     0.17639   0.05329   0.67494   0.00000  Uiso   1.00
O270   O     0.27142   0.49455   0.68164   0.00000  Uiso   1.00
N271   N     0.94598   0.73200   0.00458   0.00000  Uiso   1.00
N272   N     0.18434   0.96580   0.74766   0.00000  Uiso   1.00
N273   N     0.25207   0.56765   0.75242   0.00000  Uiso   1.00
N274   N     0.88417   0.73703   0.92952   0.00000  Uiso   1.00
N275   N     0.12254   0.97083   0.67260   0.00000  Uiso   1.00
N276   N     0.19027   0.57268   0.67736   0.00000  Uiso   1.00
C277   C     0.84268   0.51732   0.58538   0.00000  Uiso   1.00
C278   C     0.83545   0.58491   0.59190   0.00000  Uiso   1.00
C279   C     0.83614   0.63135   0.54182   0.00000  Uiso   1.00
C280   C     0.82877   0.69021   0.55771   0.00000  Uiso   1.00
C281   C     0.81869   0.79336   0.55814   0.00000  Uiso   1.00
C282   C     0.78585   0.49307   0.62234   0.00000  Uiso   1.00
C283   C     0.74485   0.46227   0.59785   0.00000  Uiso   1.00
C284   C     0.69573   0.44380   0.63939   0.00000  Uiso   1.00
C285   C     0.60868   0.40432   0.68708   0.00000  Uiso   1.00
C286   C     0.89693   0.48902   0.62229   0.00000  Uiso   1.00
C287   C     0.94931   0.45480   0.59777   0.00000  Uiso   1.00
C288   C     0.99371   0.43291   0.63927   0.00000  Uiso   1.00
C289   C     0.07912   0.38714   0.68689   0.00000  Uiso   1.00
C290   C     0.82837   0.53928   0.70268   0.00000  Uiso   1.00
C291   C     0.82768   0.59684   0.65561   0.00000  Uiso   1.00
C292   C     0.82031   0.65565   0.67159   0.00000  Uiso   1.00
C293   C     0.82099   0.70216   0.62154   0.00000  Uiso   1.00
C294   C     0.77808   0.50499   0.68605   0.00000  Uiso   1.00
C295   C     0.72902   0.48656   0.72763   0.00000  Uiso   1.00
C296   C     0.68794   0.45575   0.70321   0.00000  Uiso   1.00
C297   C     0.88916   0.50094   0.68600   0.00000  Uiso   1.00
C298   C     0.93348   0.47910   0.72755   0.00000  Uiso   1.00
C299   C     0.98592   0.44486   0.70309   0.00000  Uiso   1.00
H300   H     0.84873   0.50803   0.53578   0.00000  Uiso   1.00
H301   H     0.84215   0.62210   0.49252   0.00000  Uiso   1.00
H302   H     0.75087   0.45304   0.54855   0.00000  Uiso   1.00
H303   H     0.95531   0.44558   0.54847   0.00000  Uiso   1.00
H304   H     0.83140   0.75383   0.47264   0.00000  Uiso   1.00
H305   H     0.63896   0.39734   0.59080   0.00000  Uiso   1.00
H306   H     0.07005   0.38160   0.59063   0.00000  Uiso   1.00
H307   H     0.82232   0.54856   0.75228   0.00000  Uiso   1.00
H308   H     0.81429   0.66486   0.72089   0.00000  Uiso   1.00
H309   H     0.72302   0.49580   0.77693   0.00000  Uiso   1.00
H310   H     0.92745   0.48834   0.77684   0.00000  Uiso   1.00
H311   H     0.80879   0.78854   0.65800   0.00000  Uiso   1.00
H312   H     0.61635   0.43204   0.77616   0.00000  Uiso   1.00
H313   H     0.04744   0.41631   0.77599   0.00000  Uiso   1.00
O314   O     0.81527   0.84696   0.54077   0.00000  Uiso   1.00
O315   O     0.56281   0.37925   0.69579   0.00000  Uiso   1.00
O316   O     0.12838   0.35861   0.69556   0.00000  Uiso   1.00
N317   N     0.82719   0.74604   0.52058   0.00000  Uiso   1.00
N318   N     0.64727   0.41275   0.63104   0.00000  Uiso   1.00
N319   N     0.05029   0.39802   0.63089   0.00000  Uiso   1.00
N320   N     0.81503   0.76471   0.62032   0.00000  Uiso   1.00
N321   N     0.63510   0.43142   0.73078   0.00000  Uiso   1.00
N322   N     0.03812   0.41670   0.73063   0.00000  Uiso   1.00
C323   C     0.50961   0.84475   0.54475   0.00000  Uiso   1.00
C324   C     0.50831   0.86247   0.61187   0.00000  Uiso   1.00
C325   C     0.45580   0.87890   0.65134   0.00000  Uiso   1.00
C326   C     0.46434   0.89351   0.71103   0.00000  Uiso   1.00
C327   C     0.45334   0.92126   0.81231   0.00000  Uiso   1.00
C328   C     0.54609   0.78194   0.54555   0.00000  Uiso   1.00
C329   C     0.52535   0.73068   0.52925   0.00000  Uiso   1.00
C330   C     0.56569   0.67751   0.53311   0.00000  Uiso   1.00
C331   C     0.61337   0.58025   0.53137   0.00000  Uiso   1.00
C332   C     0.54882   0.88760   0.50138   0.00000  Uiso   1.00
C333   C     0.53039   0.92516   0.44792   0.00000  Uiso   1.00
C334   C     0.57305   0.96093   0.41458   0.00000  Uiso   1.00
C335   C     0.62497   0.02772   0.34427   0.00000  Uiso   1.00
C336   C     0.61815   0.84148   0.58058   0.00000  Uiso   1.00
C337   C     0.56726   0.86069   0.63133   0.00000  Uiso   1.00
C338   C     0.57588   0.87528   0.69098   0.00000  Uiso   1.00
C339   C     0.52339   0.89174   0.73053   0.00000  Uiso   1.00
C340   C     0.60504   0.78016   0.56501   0.00000  Uiso   1.00
C341   C     0.64543   0.72706   0.56889   0.00000  Uiso   1.00
C342   C     0.62475   0.67573   0.55260   0.00000  Uiso   1.00
C343   C     0.60777   0.88582   0.52084   0.00000  Uiso   1.00
C344   C     0.65047   0.92154   0.48757   0.00000  Uiso   1.00
C345   C     0.63210   0.95915   0.43408   0.00000  Uiso   1.00
H346   H     0.46372   0.84613   0.52959   0.00000  Uiso   1.00
H347   H     0.41019   0.88026   0.63626   0.00000  Uiso   1.00
H348   H     0.47973   0.73207   0.51418   0.00000  Uiso   1.00
H349   H     0.48477   0.92652   0.43288   0.00000  Uiso   1.00
H350   H     0.37683   0.91730   0.76311   0.00000  Uiso   1.00
H351   H     0.52347   0.60483   0.50568   0.00000  Uiso   1.00
H352   H     0.53410   0.01487   0.33423   0.00000  Uiso   1.00
H353   H     0.66405   0.84010   0.59573   0.00000  Uiso   1.00
H354   H     0.62151   0.87390   0.70603   0.00000  Uiso   1.00
H355   H     0.69104   0.72571   0.58395   0.00000  Uiso   1.00
H356   H     0.69608   0.92016   0.50265   0.00000  Uiso   1.00
H357   H     0.54835   0.91214   0.81974   0.00000  Uiso   1.00
H358   H     0.69498   0.59966   0.56231   0.00000  Uiso   1.00
H359   H     0.70561   0.00970   0.39086   0.00000  Uiso   1.00
O360   O     0.43099   0.93705   0.86280   0.00000  Uiso   1.00
O361   O     0.62337   0.52710   0.52505   0.00000  Uiso   1.00
O362   O     0.63732   0.06506   0.30011   0.00000  Uiso   1.00
N363   N     0.42304   0.91146   0.76130   0.00000  Uiso   1.00
N364   N     0.56013   0.61931   0.52063   0.00000  Uiso   1.00
N365   N     0.57007   0.00265   0.36032   0.00000  Uiso   1.00
N366   N     0.51533   0.90868   0.79177   0.00000  Uiso   1.00
N367   N     0.65242   0.61653   0.55110   0.00000  Uiso   1.00
N368   N     0.66236   0.99987   0.39079   0.00000  Uiso   1.00
C369   C     0.48919   0.62737   0.89048   0.00000  Uiso   1.00
C370   C     0.54601   0.66098   0.87894   0.00000  Uiso   1.00
C371   C     0.60615   0.63499   0.88503   0.00000  Uiso   1.00
C372   C     0.65167   0.67346   0.87234   0.00000  Uiso   1.00
C373   C     0.74206   0.71618   0.85715   0.00000  Uiso   1.00
C374   C     0.45767   0.64088   0.82896   0.00000  Uiso   1.00
C375   C     0.44353   0.59800   0.79305   0.00000  Uiso   1.00
C376   C     0.41467   0.61955   0.73829   0.00000  Uiso   1.00
C377   C     0.36787   0.63107   0.64553   0.00000  Uiso   1.00
C378   C     0.44601   0.65873   0.94066   0.00000  Uiso   1.00
C379   C     0.42204   0.63084   0.99866   0.00000  Uiso   1.00
C380   C     0.38335   0.66741   0.03794   0.00000  Uiso   1.00
C381   C     0.31844   0.70663   0.11861   0.00000  Uiso   1.00
C382   C     0.46309   0.74190   0.85711   0.00000  Uiso   1.00
C383   C     0.53183   0.72319   0.86081   0.00000  Uiso   1.00
C384   C     0.57728   0.76170   0.84811   0.00000  Uiso   1.00
C385   C     0.63747   0.73578   0.85419   0.00000  Uiso   1.00
C386   C     0.44350   0.70309   0.81084   0.00000  Uiso   1.00
C387   C     0.41465   0.72471   0.75612   0.00000  Uiso   1.00
C388   C     0.40047   0.68186   0.72013   0.00000  Uiso   1.00
C389   C     0.43183   0.72093   0.92254   0.00000  Uiso   1.00
C390   C     0.39317   0.75755   0.96173   0.00000  Uiso   1.00
C391   C     0.36915   0.72972   0.01978   0.00000  Uiso   1.00
H392   H     0.50023   0.57894   0.90459   0.00000  Uiso   1.00
H393   H     0.61710   0.58685   0.89906   0.00000  Uiso   1.00
H394   H     0.45450   0.54986   0.80709   0.00000  Uiso   1.00
H395   H     0.43302   0.58270   0.01267   0.00000  Uiso   1.00
H396   H     0.74043   0.62305   0.88490   0.00000  Uiso   1.00
H397   H     0.39755   0.54506   0.69100   0.00000  Uiso   1.00
H398   H     0.35225   0.61430   0.12450   0.00000  Uiso   1.00
H399   H     0.45206   0.79033   0.84299   0.00000  Uiso   1.00
H400   H     0.56629   0.80984   0.83408   0.00000  Uiso   1.00
H401   H     0.40369   0.77285   0.74211   0.00000  Uiso   1.00
H402   H     0.38221   0.80568   0.94769   0.00000  Uiso   1.00
H403   H     0.69919   0.80403   0.83217   0.00000  Uiso   1.00
H404   H     0.35631   0.72604   0.63826   0.00000  Uiso   1.00
H405   H     0.31102   0.79528   0.07176   0.00000  Uiso   1.00
O406   O     0.79583   0.72256   0.85376   0.00000  Uiso   1.00
O407   O     0.34598   0.62023   0.59938   0.00000  Uiso   1.00
O408   O     0.28655   0.71108   0.16812   0.00000  Uiso   1.00
N409   N     0.71505   0.66297   0.87373   0.00000  Uiso   1.00
N410   N     0.39448   0.59005   0.69243   0.00000  Uiso   1.00
N411   N     0.35212   0.65478   0.09771   0.00000  Uiso   1.00
N412   N     0.69286   0.76036   0.84535   0.00000  Uiso   1.00
N413   N     0.37229   0.68744   0.66405   0.00000  Uiso   1.00
N414   N     0.32993   0.75217   0.06934   0.00000  Uiso   1.00
C415   C     0.44610   0.10849   0.78126   0.00000  Uiso   1.00
C416   C     0.45360   0.12398   0.84758   0.00000  Uiso   1.00
C417   C     0.46210   0.08253   0.90132   0.00000  Uiso   1.00
C418   C     0.46799   0.10577   0.95753   0.00000  Uiso   1.00
C419   C     0.47998   0.12031   0.06015   0.00000  Uiso   1.00
C420   C     0.38524   0.14338   0.76273   0.00000  Uiso   1.00
C421   C     0.33627   0.11825   0.74513   0.00000  Uiso   1.00
C422   C     0.28461   0.15784   0.72990   0.00000  Uiso   1.00
C423   C     0.19049   0.20251   0.70075   0.00000  Uiso   1.00
C424   C     0.49627   0.13692   0.73640   0.00000  Uiso   1.00
C425   C     0.54065   0.10636   0.69664   0.00000  Uiso   1.00
C426   C     0.58246   0.14051   0.65923   0.00000  Uiso   1.00
C427   C     0.66074   0.17516   0.58920   0.00000  Uiso   1.00
C428   C     0.44144   0.22348   0.78551   0.00000  Uiso   1.00
C429   C     0.45106   0.18643   0.84988   0.00000  Uiso   1.00
C430   C     0.45694   0.20975   0.90603   0.00000  Uiso   1.00
C431   C     0.46545   0.16834   0.95984   0.00000  Uiso   1.00
C432   C     0.38270   0.20584   0.76504   0.00000  Uiso   1.00
C433   C     0.33111   0.24547   0.74983   0.00000  Uiso   1.00
C434   C     0.28207   0.22041   0.73222   0.00000  Uiso   1.00
C435   C     0.49374   0.19938   0.73871   0.00000  Uiso   1.00
C436   C     0.53549   0.23358   0.70135   0.00000  Uiso   1.00
C437   C     0.57992   0.20308   0.66154   0.00000  Uiso   1.00
H438   H     0.44807   0.05987   0.77946   0.00000  Uiso   1.00
H439   H     0.46405   0.03420   0.89951   0.00000  Uiso   1.00
H440   H     0.33825   0.06992   0.74334   0.00000  Uiso   1.00
H441   H     0.54259   0.05803   0.69486   0.00000  Uiso   1.00
H442   H     0.48063   0.03328   0.03364   0.00000  Uiso   1.00
H443   H     0.21537   0.10860   0.70431   0.00000  Uiso   1.00
H444   H     0.64628   0.08354   0.60209   0.00000  Uiso   1.00
H445   H     0.43946   0.27211   0.78731   0.00000  Uiso   1.00
H446   H     0.45498   0.25808   0.90780   0.00000  Uiso   1.00
H447   H     0.32916   0.29380   0.75162   0.00000  Uiso   1.00
H448   H     0.53351   0.28191   0.70315   0.00000  Uiso   1.00
H449   H     0.47326   0.21499   0.04036   0.00000  Uiso   1.00
H450   H     0.20799   0.29031   0.71103   0.00000  Uiso   1.00
H451   H     0.63890   0.26525   0.60881   0.00000  Uiso   1.00
O452   O     0.48729   0.11108   0.11612   0.00000  Uiso   1.00
O453   O     0.13927   0.20990   0.68405   0.00000  Uiso   1.00
O454   O     0.70461   0.17701   0.54994   0.00000  Uiso   1.00
N455   N     0.47678   0.07797   0.01868   0.00000  Uiso   1.00
N456   N     0.22877   0.14839   0.71079   0.00000  Uiso   1.00
N457   N     0.63162   0.12496   0.61521   0.00000  Uiso   1.00
N458   N     0.47282   0.17575   0.02230   0.00000  Uiso   1.00
N459   N     0.22480   0.24617   0.71441   0.00000  Uiso   1.00
N460   N     0.62766   0.22274   0.61883   0.00000  Uiso   1.00
C461   C     0.19372   0.07723   0.12582   0.00000  Uiso   1.00
C462   C     0.22369   0.13364   0.13143   0.00000  Uiso   1.00
C463   C     0.19315   0.19153   0.13512   0.00000  Uiso   1.00
C464   C     0.22883   0.23707   0.14003   0.00000  Uiso   1.00
C465   C     0.26565   0.32649   0.14854   0.00000  Uiso   1.00
C466   C     0.22569   0.05185   0.06580   0.00000  Uiso   1.00
C467   C     0.19683   0.04097   0.01430   0.00000  Uiso   1.00
C468   C     0.23420   0.01764   0.96396   0.00000  Uiso   1.00
C469   C     0.27412   0.98005   0.87059   0.00000  Uiso   1.00
C470   C     0.21242   0.03107   0.18170   0.00000  Uiso   1.00
C471   C     0.17241   0.00269   0.22765   0.00000  Uiso   1.00
C472   C     0.19861   0.96186   0.27489   0.00000  Uiso   1.00
C473   C     0.21792   0.89199   0.36147   0.00000  Uiso   1.00
C474   C     0.31140   0.05516   0.12798   0.00000  Uiso   1.00
C475   C     0.28761   0.12165   0.13261   0.00000  Uiso   1.00
C476   C     0.32335   0.16711   0.13752   0.00000  Uiso   1.00
C477   C     0.29286   0.22506   0.14121   0.00000  Uiso   1.00
C478   C     0.28961   0.03987   0.06697   0.00000  Uiso   1.00
C479   C     0.32703   0.01655   0.01670   0.00000  Uiso   1.00
C480   C     0.29823   0.00563   0.96514   0.00000  Uiso   1.00
C481   C     0.27634   0.01908   0.18288   0.00000  Uiso   1.00
C482   C     0.30260   0.97828   0.23005   0.00000  Uiso   1.00
C483   C     0.26264   0.94985   0.27607   0.00000  Uiso   1.00
H484   H     0.14396   0.08656   0.12490   0.00000  Uiso   1.00
H485   H     0.14369   0.20079   0.13420   0.00000  Uiso   1.00
H486   H     0.14737   0.05024   0.01341   0.00000  Uiso   1.00
H487   H     0.12295   0.01198   0.22672   0.00000  Uiso   1.00
H488   H     0.17158   0.32215   0.14501   0.00000  Uiso   1.00
H489   H     0.17934   0.00469   0.89032   0.00000  Uiso   1.00
H490   H     0.12784   0.92401   0.34014   0.00000  Uiso   1.00
H491   H     0.36116   0.04583   0.12890   0.00000  Uiso   1.00
H492   H     0.37281   0.15782   0.13843   0.00000  Uiso   1.00
H493   H     0.37649   0.00728   0.01763   0.00000  Uiso   1.00
H494   H     0.35207   0.96901   0.23095   0.00000  Uiso   1.00
H495   H     0.35754   0.28728   0.14844   0.00000  Uiso   1.00
H496   H     0.36529   0.96982   0.89374   0.00000  Uiso   1.00
H497   H     0.31380   0.88914   0.34357   0.00000  Uiso   1.00
O498   O     0.26830   0.37913   0.15289   0.00000  Uiso   1.00
O499   O     0.27848   0.96263   0.81876   0.00000  Uiso   1.00
O500   O     0.21092   0.85677   0.40891   0.00000  Uiso   1.00
N501   N     0.21374   0.29857   0.14452   0.00000  Uiso   1.00
N502   N     0.22100   0.00178   0.90640   0.00000  Uiso   1.00
N503   N     0.17285   0.92633   0.32693   0.00000  Uiso   1.00
N504   N     0.31381   0.27981   0.14637   0.00000  Uiso   1.00
N505   N     0.32106   0.98301   0.90824   0.00000  Uiso   1.00
N506   N     0.27292   0.90757   0.32878   0.00000  Uiso   1.00
C507   C     0.22720   0.42843   0.86779   0.00000  Uiso   1.00
C508   C     0.29564   0.41632   0.87672   0.00000  Uiso   1.00
C509   C     0.34323   0.43110   0.83113   0.00000  Uiso   1.00
C510   C     0.40272   0.41621   0.84860   0.00000  Uiso   1.00
C511   C     0.50726   0.40174   0.85320   0.00000  Uiso   1.00
C512   C     0.20257   0.36713   0.88263   0.00000  Uiso   1.00
C513   C     0.17190   0.34056   0.84201   0.00000  Uiso   1.00
C514   C     0.15304   0.28428   0.86446   0.00000  Uiso   1.00
C515   C     0.11304   0.19347   0.87825   0.00000  Uiso   1.00
C516   C     0.19778   0.46570   0.92084   0.00000  Uiso   1.00
C517   C     0.16307   0.52200   0.91234   0.00000  Uiso   1.00
C518   C     0.14016   0.54869   0.96697   0.00000  Uiso   1.00
C519   C     0.09273   0.61092   0.04008   0.00000  Uiso   1.00
C520   C     0.24821   0.37572   0.97991   0.00000  Uiso   1.00
C521   C     0.30705   0.38769   0.93762   0.00000  Uiso   1.00
C522   C     0.36648   0.37278   0.95517   0.00000  Uiso   1.00
C523   C     0.41416   0.38754   0.90961   0.00000  Uiso   1.00
C524   C     0.21398   0.33850   0.94353   0.00000  Uiso   1.00
C525   C     0.19515   0.28225   0.96605   0.00000  Uiso   1.00
C526   C     0.16447   0.25560   0.92547   0.00000  Uiso   1.00
C527   C     0.20919   0.43707   0.98174   0.00000  Uiso   1.00
C528   C     0.18633   0.46368   0.03639   0.00000  Uiso   1.00
C529   C     0.15159   0.52001   0.02798   0.00000  Uiso   1.00
H530   H     0.21831   0.45071   0.82038   0.00000  Uiso   1.00
H531   H     0.33438   0.45325   0.78400   0.00000  Uiso   1.00
H532   H     0.16307   0.36273   0.79489   0.00000  Uiso   1.00
H533   H     0.15425   0.54414   0.86521   0.00000  Uiso   1.00
H534   H     0.46810   0.44341   0.77052   0.00000  Uiso   1.00
H535   H     0.10687   0.25257   0.79348   0.00000  Uiso   1.00
H536   H     0.08826   0.63510   0.94177   0.00000  Uiso   1.00
H537   H     0.25710   0.35343   0.02732   0.00000  Uiso   1.00
H538   H     0.37530   0.35062   0.00230   0.00000  Uiso   1.00
H539   H     0.20399   0.26011   0.01318   0.00000  Uiso   1.00
H540   H     0.19517   0.44151   0.08351   0.00000  Uiso   1.00
H541   H     0.50132   0.36012   0.94770   0.00000  Uiso   1.00
H542   H     0.14008   0.16927   0.97065   0.00000  Uiso   1.00
H543   H     0.12147   0.55180   0.11895   0.00000  Uiso   1.00
O544   O     0.56177   0.40166   0.83891   0.00000  Uiso   1.00
O545   O     0.08784   0.15129   0.86903   0.00000  Uiso   1.00
O546   O     0.06342   0.65315   0.06359   0.00000  Uiso   1.00
N547   N     0.45970   0.42421   0.81566   0.00000  Uiso   1.00
N548   N     0.12198   0.24577   0.83711   0.00000  Uiso   1.00
N549   N     0.10456   0.60340   0.97576   0.00000  Uiso   1.00
N550   N     0.47757   0.37939   0.91099   0.00000  Uiso   1.00
N551   N     0.13985   0.20095   0.93245   0.00000  Uiso   1.00
N552   N     0.12243   0.55858   0.07110   0.00000  Uiso   1.00
