data_job_04827
_audit_creation_date              2018-12-19
_audit_creation_method            'Materials Studio'
_symmetry_space_group_name_H-M    'P1'
_symmetry_Int_Tables_number       1
_symmetry_cell_setting            triclinic
loop_
_symmetry_equiv_pos_as_xyz
  x,y,z
_cell_length_a                    32.2709
_cell_length_b                    18.9019
_cell_length_c                    8.7916
_cell_angle_alpha                 90.0000
_cell_angle_beta                  90.0000
_cell_angle_gamma                 90.0000
loop_
_atom_site_label
_atom_site_type_symbol
_atom_site_fract_x
_atom_site_fract_y
_atom_site_fract_z
_atom_site_U_iso_or_equiv
_atom_site_adp_type
_atom_site_occupancy
C1     C     0.39391   0.94775   0.12673   0.00000  Uiso   1.00
C2     C     0.35282   0.90906   0.10614   0.00000  Uiso   1.00
C3     C     0.33713   0.88397   0.96944   0.00000  Uiso   1.00
C4     C     0.29900   0.85003   0.97447   0.00000  Uiso   1.00
C5     C     0.23848   0.79129   0.92166   0.00000  Uiso   1.00
C6     C     0.38339   0.01806   0.20251   0.00000  Uiso   1.00
C7     C     0.39340   0.08461   0.14685   0.00000  Uiso   1.00
C8     C     0.38101   0.14241   0.23303   0.00000  Uiso   1.00
C9     C     0.36798   0.25289   0.32989   0.00000  Uiso   1.00
C10    C     0.41824   0.90539   0.24427   0.00000  Uiso   1.00
C11    C     0.45755   0.87721   0.22374   0.00000  Uiso   1.00
C12    C     0.47450   0.84016   0.34509   0.00000  Uiso   1.00
C13    C     0.51557   0.77570   0.50679   0.00000  Uiso   1.00
C14    C     0.35411   0.93208   0.37878   0.00000  Uiso   1.00
C15    C     0.33120   0.90056   0.24304   0.00000  Uiso   1.00
C16    C     0.29309   0.86663   0.24829   0.00000  Uiso   1.00
C17    C     0.27734   0.84149   0.11162   0.00000  Uiso   1.00
C18    C     0.36177   0.00955   0.33941   0.00000  Uiso   1.00
C19    C     0.34937   0.06727   0.42570   0.00000  Uiso   1.00
C20    C     0.35935   0.13389   0.37017   0.00000  Uiso   1.00
C21    C     0.39662   0.89687   0.38117   0.00000  Uiso   1.00
C22    C     0.41351   0.85987   0.50259   0.00000  Uiso   1.00
C23    C     0.45285   0.83164   0.48224   0.00000  Uiso   1.00
H24    H     0.41074   0.95438   0.02016   0.00000  Uiso   1.00
H25    H     0.35387   0.89058   0.86351   0.00000  Uiso   1.00
H26    H     0.41014   0.09118   0.04091   0.00000  Uiso   1.00
H27    H     0.47427   0.88381   0.11778   0.00000  Uiso   1.00
H28    H     0.28127   0.81611   0.75021   0.00000  Uiso   1.00
H29    H     0.39993   0.23908   0.12428   0.00000  Uiso   1.00
H30    H     0.53518   0.80181   0.28639   0.00000  Uiso   1.00
H31    H     0.33727   0.92545   0.48536   0.00000  Uiso   1.00
H32    H     0.27637   0.86006   0.35425   0.00000  Uiso   1.00
H33    H     0.33264   0.06066   0.53164   0.00000  Uiso   1.00
H34    H     0.39677   0.85329   0.60851   0.00000  Uiso   1.00
H35    H     0.21837   0.79134   0.14850   0.00000  Uiso   1.00
H36    H     0.33703   0.21432   0.52258   0.00000  Uiso   1.00
H37    H     0.47228   0.77704   0.68468   0.00000  Uiso   1.00
O38    O     0.21107   0.76125   0.85470   0.00000  Uiso   1.00
O39    O     0.36676   0.31618   0.34548   0.00000  Uiso   1.00
O40    O     0.54420   0.74248   0.55815   0.00000  Uiso   1.00
N41    N     0.27483   0.81924   0.86195   0.00000  Uiso   1.00
N42    N     0.38576   0.21470   0.21167   0.00000  Uiso   1.00
N43    N     0.51221   0.80590   0.36324   0.00000  Uiso   1.00
N44    N     0.24098   0.80591   0.07627   0.00000  Uiso   1.00
N45    N     0.35192   0.20137   0.42599   0.00000  Uiso   1.00
N46    N     0.47837   0.79257   0.57756   0.00000  Uiso   1.00
C47    C     0.89476   0.94594   0.35563   0.00000  Uiso   1.00
C48    C     0.85410   0.90580   0.33668   0.00000  Uiso   1.00
C49    C     0.83821   0.88042   0.20052   0.00000  Uiso   1.00
C50    C     0.80055   0.84507   0.20710   0.00000  Uiso   1.00
C51    C     0.74059   0.78422   0.15669   0.00000  Uiso   1.00
C52    C     0.88364   0.01569   0.43266   0.00000  Uiso   1.00
C53    C     0.89260   0.08271   0.37720   0.00000  Uiso   1.00
C54    C     0.87981   0.13986   0.46460   0.00000  Uiso   1.00
C55    C     0.86574   0.24962   0.56326   0.00000  Uiso   1.00
C56    C     0.92005   0.90424   0.47149   0.00000  Uiso   1.00
C57    C     0.95963   0.87756   0.44870   0.00000  Uiso   1.00
C58    C     0.97750   0.84089   0.56881   0.00000  Uiso   1.00
C59    C     0.01997   0.77761   0.72776   0.00000  Uiso   1.00
C60    C     0.85611   0.92827   0.60947   0.00000  Uiso   1.00
C61    C     0.83310   0.89620   0.47456   0.00000  Uiso   1.00
C62    C     0.79545   0.86087   0.48136   0.00000  Uiso   1.00
C63    C     0.77951   0.83545   0.34522   0.00000  Uiso   1.00
C64    C     0.86265   0.00609   0.57053   0.00000  Uiso   1.00
C65    C     0.84984   0.06315   0.65804   0.00000  Uiso   1.00
C66    C     0.85877   0.13024   0.60272   0.00000  Uiso   1.00
C67    C     0.89906   0.89464   0.60937   0.00000  Uiso   1.00
C68    C     0.91687   0.85801   0.72954   0.00000  Uiso   1.00
C69    C     0.95647   0.83128   0.70693   0.00000  Uiso   1.00
H70    H     0.91110   0.95342   0.24829   0.00000  Uiso   1.00
H71    H     0.85447   0.88787   0.09383   0.00000  Uiso   1.00
H72    H     0.90885   0.09012   0.27051   0.00000  Uiso   1.00
H73    H     0.97587   0.88500   0.34199   0.00000  Uiso   1.00
H74    H     0.78241   0.81098   0.98339   0.00000  Uiso   1.00
H75    H     0.89709   0.23744   0.35593   0.00000  Uiso   1.00
H76    H     0.03842   0.80491   0.50668   0.00000  Uiso   1.00
H77    H     0.83976   0.92080   0.71682   0.00000  Uiso   1.00
H78    H     0.77921   0.85345   0.58807   0.00000  Uiso   1.00
H79    H     0.83359   0.05570   0.76474   0.00000  Uiso   1.00
H80    H     0.90061   0.85059   0.83622   0.00000  Uiso   1.00
H81    H     0.72133   0.78305   0.38452   0.00000  Uiso   1.00
H82    H     0.83601   0.20951   0.75707   0.00000  Uiso   1.00
H83    H     0.97734   0.77698   0.90781   0.00000  Uiso   1.00
O84    O     0.71332   0.75332   0.09080   0.00000  Uiso   1.00
O85    O     0.86378   0.31281   0.57958   0.00000  Uiso   1.00
O86    O     0.04920   0.74535   0.77734   0.00000  Uiso   1.00
N87    N     0.77635   0.81364   0.09547   0.00000  Uiso   1.00
N88    N     0.88356   0.21235   0.44376   0.00000  Uiso   1.00
N89    N     0.01570   0.80799   0.58471   0.00000  Uiso   1.00
N90    N     0.74348   0.79861   0.31132   0.00000  Uiso   1.00
N91    N     0.85070   0.19732   0.65961   0.00000  Uiso   1.00
N92    N     0.98283   0.79296   0.80056   0.00000  Uiso   1.00
C93    C     0.60609   0.05225   0.12673   0.00000  Uiso   1.00
C94    C     0.64718   0.09094   0.10614   0.00000  Uiso   1.00
C95    C     0.66287   0.11603   0.96944   0.00000  Uiso   1.00
C96    C     0.70100   0.14997   0.97447   0.00000  Uiso   1.00
C97    C     0.76152   0.20871   0.92166   0.00000  Uiso   1.00
C98    C     0.61661   0.98194   0.20251   0.00000  Uiso   1.00
C99    C     0.60660   0.91539   0.14685   0.00000  Uiso   1.00
C100   C     0.61899   0.85759   0.23303   0.00000  Uiso   1.00
C101   C     0.63202   0.74711   0.32989   0.00000  Uiso   1.00
C102   C     0.58176   0.09461   0.24427   0.00000  Uiso   1.00
C103   C     0.54245   0.12279   0.22374   0.00000  Uiso   1.00
C104   C     0.52550   0.15984   0.34509   0.00000  Uiso   1.00
C105   C     0.48443   0.22430   0.50679   0.00000  Uiso   1.00
C106   C     0.64589   0.06792   0.37878   0.00000  Uiso   1.00
C107   C     0.66880   0.09944   0.24304   0.00000  Uiso   1.00
C108   C     0.70691   0.13337   0.24829   0.00000  Uiso   1.00
C109   C     0.72266   0.15851   0.11162   0.00000  Uiso   1.00
C110   C     0.63823   0.99045   0.33941   0.00000  Uiso   1.00
C111   C     0.65063   0.93273   0.42570   0.00000  Uiso   1.00
C112   C     0.64065   0.86611   0.37017   0.00000  Uiso   1.00
C113   C     0.60338   0.10313   0.38117   0.00000  Uiso   1.00
C114   C     0.58649   0.14013   0.50259   0.00000  Uiso   1.00
C115   C     0.54715   0.16836   0.48224   0.00000  Uiso   1.00
H116   H     0.58926   0.04562   0.02016   0.00000  Uiso   1.00
H117   H     0.64613   0.10942   0.86351   0.00000  Uiso   1.00
H118   H     0.58986   0.90882   0.04091   0.00000  Uiso   1.00
H119   H     0.52573   0.11619   0.11778   0.00000  Uiso   1.00
H120   H     0.71873   0.18389   0.75021   0.00000  Uiso   1.00
H121   H     0.60007   0.76092   0.12428   0.00000  Uiso   1.00
H122   H     0.46482   0.19819   0.28639   0.00000  Uiso   1.00
H123   H     0.66273   0.07455   0.48536   0.00000  Uiso   1.00
H124   H     0.72363   0.13994   0.35425   0.00000  Uiso   1.00
H125   H     0.66736   0.93934   0.53164   0.00000  Uiso   1.00
H126   H     0.60323   0.14671   0.60851   0.00000  Uiso   1.00
H127   H     0.78163   0.20866   0.14850   0.00000  Uiso   1.00
H128   H     0.66297   0.78568   0.52258   0.00000  Uiso   1.00
H129   H     0.52772   0.22296   0.68468   0.00000  Uiso   1.00
O130   O     0.78893   0.23875   0.85470   0.00000  Uiso   1.00
O131   O     0.63324   0.68382   0.34548   0.00000  Uiso   1.00
O132   O     0.45580   0.25752   0.55815   0.00000  Uiso   1.00
N133   N     0.72517   0.18076   0.86195   0.00000  Uiso   1.00
N134   N     0.61424   0.78530   0.21167   0.00000  Uiso   1.00
N135   N     0.48779   0.19410   0.36324   0.00000  Uiso   1.00
N136   N     0.75902   0.19409   0.07627   0.00000  Uiso   1.00
N137   N     0.64808   0.79863   0.42599   0.00000  Uiso   1.00
N138   N     0.52163   0.20743   0.57756   0.00000  Uiso   1.00
C139   C     0.10524   0.05406   0.35563   0.00000  Uiso   1.00
C140   C     0.14590   0.09420   0.33668   0.00000  Uiso   1.00
C141   C     0.16179   0.11958   0.20052   0.00000  Uiso   1.00
C142   C     0.19945   0.15493   0.20710   0.00000  Uiso   1.00
C143   C     0.25941   0.21578   0.15669   0.00000  Uiso   1.00
C144   C     0.11636   0.98431   0.43266   0.00000  Uiso   1.00
C145   C     0.10740   0.91729   0.37720   0.00000  Uiso   1.00
C146   C     0.12019   0.86014   0.46460   0.00000  Uiso   1.00
C147   C     0.13426   0.75038   0.56326   0.00000  Uiso   1.00
C148   C     0.07995   0.09576   0.47149   0.00000  Uiso   1.00
C149   C     0.04037   0.12244   0.44870   0.00000  Uiso   1.00
C150   C     0.02250   0.15911   0.56881   0.00000  Uiso   1.00
C151   C     0.98003   0.22239   0.72776   0.00000  Uiso   1.00
C152   C     0.14389   0.07173   0.60947   0.00000  Uiso   1.00
C153   C     0.16690   0.10380   0.47456   0.00000  Uiso   1.00
C154   C     0.20455   0.13913   0.48136   0.00000  Uiso   1.00
C155   C     0.22049   0.16455   0.34522   0.00000  Uiso   1.00
C156   C     0.13735   0.99391   0.57053   0.00000  Uiso   1.00
C157   C     0.15016   0.93685   0.65804   0.00000  Uiso   1.00
C158   C     0.14123   0.86976   0.60272   0.00000  Uiso   1.00
C159   C     0.10094   0.10536   0.60937   0.00000  Uiso   1.00
C160   C     0.08313   0.14199   0.72954   0.00000  Uiso   1.00
C161   C     0.04353   0.16872   0.70693   0.00000  Uiso   1.00
H162   H     0.08890   0.04658   0.24829   0.00000  Uiso   1.00
H163   H     0.14553   0.11213   0.09383   0.00000  Uiso   1.00
H164   H     0.09115   0.90988   0.27051   0.00000  Uiso   1.00
H165   H     0.02413   0.11500   0.34199   0.00000  Uiso   1.00
H166   H     0.21759   0.18902   0.98339   0.00000  Uiso   1.00
H167   H     0.10291   0.76256   0.35593   0.00000  Uiso   1.00
H168   H     0.96158   0.19509   0.50668   0.00000  Uiso   1.00
H169   H     0.16024   0.07920   0.71682   0.00000  Uiso   1.00
H170   H     0.22079   0.14655   0.58807   0.00000  Uiso   1.00
H171   H     0.16641   0.94430   0.76474   0.00000  Uiso   1.00
H172   H     0.09939   0.14941   0.83622   0.00000  Uiso   1.00
H173   H     0.27867   0.21695   0.38452   0.00000  Uiso   1.00
H174   H     0.16399   0.79049   0.75707   0.00000  Uiso   1.00
H175   H     0.02266   0.22302   0.90781   0.00000  Uiso   1.00
O176   O     0.28668   0.24668   0.09080   0.00000  Uiso   1.00
O177   O     0.13622   0.68719   0.57958   0.00000  Uiso   1.00
O178   O     0.95080   0.25465   0.77734   0.00000  Uiso   1.00
N179   N     0.22365   0.18636   0.09547   0.00000  Uiso   1.00
N180   N     0.11644   0.78765   0.44376   0.00000  Uiso   1.00
N181   N     0.98430   0.19201   0.58471   0.00000  Uiso   1.00
N182   N     0.25652   0.20139   0.31132   0.00000  Uiso   1.00
N183   N     0.14930   0.80268   0.65961   0.00000  Uiso   1.00
N184   N     0.01717   0.20704   0.80056   0.00000  Uiso   1.00
C185   C     0.39391   0.55225   0.62673   0.00000  Uiso   1.00
C186   C     0.35282   0.59094   0.60614   0.00000  Uiso   1.00
C187   C     0.33713   0.61603   0.46944   0.00000  Uiso   1.00
C188   C     0.29900   0.64997   0.47447   0.00000  Uiso   1.00
C189   C     0.23848   0.70871   0.42166   0.00000  Uiso   1.00
C190   C     0.38339   0.48194   0.70251   0.00000  Uiso   1.00
C191   C     0.39340   0.41539   0.64685   0.00000  Uiso   1.00
C192   C     0.38101   0.35759   0.73303   0.00000  Uiso   1.00
C193   C     0.36798   0.24711   0.82989   0.00000  Uiso   1.00
C194   C     0.41824   0.59461   0.74427   0.00000  Uiso   1.00
C195   C     0.45755   0.62279   0.72374   0.00000  Uiso   1.00
C196   C     0.47450   0.65984   0.84509   0.00000  Uiso   1.00
C197   C     0.51557   0.72430   0.00679   0.00000  Uiso   1.00
C198   C     0.35411   0.56792   0.87878   0.00000  Uiso   1.00
C199   C     0.33120   0.59944   0.74304   0.00000  Uiso   1.00
C200   C     0.29309   0.63337   0.74829   0.00000  Uiso   1.00
C201   C     0.27734   0.65851   0.61162   0.00000  Uiso   1.00
C202   C     0.36177   0.49045   0.83941   0.00000  Uiso   1.00
C203   C     0.34937   0.43273   0.92570   0.00000  Uiso   1.00
C204   C     0.35935   0.36611   0.87017   0.00000  Uiso   1.00
C205   C     0.39662   0.60313   0.88117   0.00000  Uiso   1.00
C206   C     0.41351   0.64013   0.00259   0.00000  Uiso   1.00
C207   C     0.45285   0.66836   0.98224   0.00000  Uiso   1.00
H208   H     0.41074   0.54562   0.52016   0.00000  Uiso   1.00
H209   H     0.35387   0.60942   0.36351   0.00000  Uiso   1.00
H210   H     0.41014   0.40882   0.54091   0.00000  Uiso   1.00
H211   H     0.47427   0.61619   0.61778   0.00000  Uiso   1.00
H212   H     0.28127   0.68389   0.25021   0.00000  Uiso   1.00
H213   H     0.39993   0.26092   0.62428   0.00000  Uiso   1.00
H214   H     0.53518   0.69819   0.78639   0.00000  Uiso   1.00
H215   H     0.33727   0.57455   0.98536   0.00000  Uiso   1.00
H216   H     0.27637   0.63994   0.85425   0.00000  Uiso   1.00
H217   H     0.33264   0.43934   0.03164   0.00000  Uiso   1.00
H218   H     0.39677   0.64671   0.10851   0.00000  Uiso   1.00
H219   H     0.21837   0.70866   0.64850   0.00000  Uiso   1.00
H220   H     0.33703   0.28568   0.02258   0.00000  Uiso   1.00
H221   H     0.47228   0.72296   0.18468   0.00000  Uiso   1.00
O222   O     0.21107   0.73875   0.35470   0.00000  Uiso   1.00
O223   O     0.36676   0.18382   0.84548   0.00000  Uiso   1.00
O224   O     0.54420   0.75752   0.05815   0.00000  Uiso   1.00
N225   N     0.27483   0.68076   0.36195   0.00000  Uiso   1.00
N226   N     0.38576   0.28530   0.71167   0.00000  Uiso   1.00
N227   N     0.51221   0.69410   0.86324   0.00000  Uiso   1.00
N228   N     0.24098   0.69409   0.57627   0.00000  Uiso   1.00
N229   N     0.35192   0.29863   0.92599   0.00000  Uiso   1.00
N230   N     0.47837   0.70743   0.07756   0.00000  Uiso   1.00
C231   C     0.89476   0.55406   0.85563   0.00000  Uiso   1.00
C232   C     0.85410   0.59420   0.83668   0.00000  Uiso   1.00
C233   C     0.83821   0.61958   0.70052   0.00000  Uiso   1.00
C234   C     0.80055   0.65493   0.70710   0.00000  Uiso   1.00
C235   C     0.74059   0.71578   0.65669   0.00000  Uiso   1.00
C236   C     0.88364   0.48431   0.93266   0.00000  Uiso   1.00
C237   C     0.89260   0.41729   0.87720   0.00000  Uiso   1.00
C238   C     0.87981   0.36014   0.96460   0.00000  Uiso   1.00
C239   C     0.86574   0.25038   0.06326   0.00000  Uiso   1.00
C240   C     0.92005   0.59576   0.97149   0.00000  Uiso   1.00
C241   C     0.95963   0.62244   0.94870   0.00000  Uiso   1.00
C242   C     0.97750   0.65911   0.06881   0.00000  Uiso   1.00
C243   C     0.01997   0.72239   0.22776   0.00000  Uiso   1.00
C244   C     0.85611   0.57173   0.10947   0.00000  Uiso   1.00
C245   C     0.83310   0.60380   0.97456   0.00000  Uiso   1.00
C246   C     0.79545   0.63913   0.98136   0.00000  Uiso   1.00
C247   C     0.77951   0.66455   0.84522   0.00000  Uiso   1.00
C248   C     0.86265   0.49391   0.07053   0.00000  Uiso   1.00
C249   C     0.84984   0.43685   0.15804   0.00000  Uiso   1.00
C250   C     0.85877   0.36976   0.10272   0.00000  Uiso   1.00
C251   C     0.89906   0.60536   0.10937   0.00000  Uiso   1.00
C252   C     0.91687   0.64199   0.22954   0.00000  Uiso   1.00
C253   C     0.95647   0.66872   0.20693   0.00000  Uiso   1.00
H254   H     0.91110   0.54658   0.74829   0.00000  Uiso   1.00
H255   H     0.85447   0.61213   0.59383   0.00000  Uiso   1.00
H256   H     0.90885   0.40988   0.77051   0.00000  Uiso   1.00
H257   H     0.97587   0.61500   0.84199   0.00000  Uiso   1.00
H258   H     0.78241   0.68902   0.48339   0.00000  Uiso   1.00
H259   H     0.89709   0.26256   0.85593   0.00000  Uiso   1.00
H260   H     0.03842   0.69509   0.00668   0.00000  Uiso   1.00
H261   H     0.83976   0.57920   0.21682   0.00000  Uiso   1.00
H262   H     0.77921   0.64655   0.08807   0.00000  Uiso   1.00
H263   H     0.83359   0.44430   0.26474   0.00000  Uiso   1.00
H264   H     0.90061   0.64941   0.33622   0.00000  Uiso   1.00
H265   H     0.72133   0.71695   0.88452   0.00000  Uiso   1.00
H266   H     0.83601   0.29049   0.25707   0.00000  Uiso   1.00
H267   H     0.97734   0.72302   0.40781   0.00000  Uiso   1.00
O268   O     0.71332   0.74668   0.59080   0.00000  Uiso   1.00
O269   O     0.86378   0.18719   0.07958   0.00000  Uiso   1.00
O270   O     0.04920   0.75465   0.27734   0.00000  Uiso   1.00
N271   N     0.77635   0.68636   0.59547   0.00000  Uiso   1.00
N272   N     0.88356   0.28765   0.94376   0.00000  Uiso   1.00
N273   N     0.01570   0.69201   0.08471   0.00000  Uiso   1.00
N274   N     0.74348   0.70139   0.81132   0.00000  Uiso   1.00
N275   N     0.85070   0.30268   0.15961   0.00000  Uiso   1.00
N276   N     0.98283   0.70704   0.30056   0.00000  Uiso   1.00
C277   C     0.60609   0.44775   0.62673   0.00000  Uiso   1.00
C278   C     0.64718   0.40906   0.60614   0.00000  Uiso   1.00
C279   C     0.66287   0.38397   0.46944   0.00000  Uiso   1.00
C280   C     0.70100   0.35003   0.47447   0.00000  Uiso   1.00
C281   C     0.76152   0.29129   0.42166   0.00000  Uiso   1.00
C282   C     0.61661   0.51806   0.70251   0.00000  Uiso   1.00
C283   C     0.60660   0.58461   0.64685   0.00000  Uiso   1.00
C284   C     0.61899   0.64241   0.73303   0.00000  Uiso   1.00
C285   C     0.63202   0.75289   0.82989   0.00000  Uiso   1.00
C286   C     0.58176   0.40539   0.74427   0.00000  Uiso   1.00
C287   C     0.54245   0.37721   0.72374   0.00000  Uiso   1.00
C288   C     0.52550   0.34016   0.84509   0.00000  Uiso   1.00
C289   C     0.48443   0.27570   0.00679   0.00000  Uiso   1.00
C290   C     0.64589   0.43208   0.87878   0.00000  Uiso   1.00
C291   C     0.66880   0.40056   0.74304   0.00000  Uiso   1.00
C292   C     0.70691   0.36663   0.74829   0.00000  Uiso   1.00
C293   C     0.72266   0.34149   0.61162   0.00000  Uiso   1.00
C294   C     0.63823   0.50955   0.83941   0.00000  Uiso   1.00
C295   C     0.65063   0.56727   0.92570   0.00000  Uiso   1.00
C296   C     0.64065   0.63389   0.87017   0.00000  Uiso   1.00
C297   C     0.60338   0.39687   0.88117   0.00000  Uiso   1.00
C298   C     0.58649   0.35987   0.00259   0.00000  Uiso   1.00
C299   C     0.54715   0.33164   0.98224   0.00000  Uiso   1.00
H300   H     0.58926   0.45438   0.52016   0.00000  Uiso   1.00
H301   H     0.64613   0.39058   0.36351   0.00000  Uiso   1.00
H302   H     0.58986   0.59118   0.54091   0.00000  Uiso   1.00
H303   H     0.52573   0.38381   0.61778   0.00000  Uiso   1.00
H304   H     0.71873   0.31611   0.25021   0.00000  Uiso   1.00
H305   H     0.60007   0.73908   0.62428   0.00000  Uiso   1.00
H306   H     0.46482   0.30181   0.78639   0.00000  Uiso   1.00
H307   H     0.66273   0.42545   0.98536   0.00000  Uiso   1.00
H308   H     0.72363   0.36006   0.85425   0.00000  Uiso   1.00
H309   H     0.66736   0.56066   0.03164   0.00000  Uiso   1.00
H310   H     0.60323   0.35329   0.10851   0.00000  Uiso   1.00
H311   H     0.78163   0.29134   0.64850   0.00000  Uiso   1.00
H312   H     0.66297   0.71432   0.02258   0.00000  Uiso   1.00
H313   H     0.52772   0.27704   0.18468   0.00000  Uiso   1.00
O314   O     0.78893   0.26125   0.35470   0.00000  Uiso   1.00
O315   O     0.63324   0.81618   0.84548   0.00000  Uiso   1.00
O316   O     0.45580   0.24248   0.05815   0.00000  Uiso   1.00
N317   N     0.72517   0.31924   0.36195   0.00000  Uiso   1.00
N318   N     0.61424   0.71470   0.71167   0.00000  Uiso   1.00
N319   N     0.48779   0.30590   0.86324   0.00000  Uiso   1.00
N320   N     0.75902   0.30591   0.57627   0.00000  Uiso   1.00
N321   N     0.64808   0.70137   0.92599   0.00000  Uiso   1.00
N322   N     0.52163   0.29257   0.07756   0.00000  Uiso   1.00
C323   C     0.10524   0.44594   0.85563   0.00000  Uiso   1.00
C324   C     0.14590   0.40580   0.83668   0.00000  Uiso   1.00
C325   C     0.16179   0.38042   0.70052   0.00000  Uiso   1.00
C326   C     0.19945   0.34507   0.70710   0.00000  Uiso   1.00
C327   C     0.25941   0.28422   0.65669   0.00000  Uiso   1.00
C328   C     0.11636   0.51569   0.93266   0.00000  Uiso   1.00
C329   C     0.10740   0.58271   0.87720   0.00000  Uiso   1.00
C330   C     0.12019   0.63986   0.96460   0.00000  Uiso   1.00
C331   C     0.13426   0.74962   0.06326   0.00000  Uiso   1.00
C332   C     0.07995   0.40424   0.97149   0.00000  Uiso   1.00
C333   C     0.04037   0.37756   0.94870   0.00000  Uiso   1.00
C334   C     0.02250   0.34089   0.06881   0.00000  Uiso   1.00
C335   C     0.98003   0.27761   0.22776   0.00000  Uiso   1.00
C336   C     0.14389   0.42827   0.10947   0.00000  Uiso   1.00
C337   C     0.16690   0.39620   0.97456   0.00000  Uiso   1.00
C338   C     0.20455   0.36087   0.98136   0.00000  Uiso   1.00
C339   C     0.22049   0.33545   0.84522   0.00000  Uiso   1.00
C340   C     0.13735   0.50609   0.07053   0.00000  Uiso   1.00
C341   C     0.15016   0.56315   0.15804   0.00000  Uiso   1.00
C342   C     0.14123   0.63024   0.10272   0.00000  Uiso   1.00
C343   C     0.10094   0.39464   0.10937   0.00000  Uiso   1.00
C344   C     0.08313   0.35801   0.22954   0.00000  Uiso   1.00
C345   C     0.04353   0.33128   0.20693   0.00000  Uiso   1.00
H346   H     0.08890   0.45342   0.74829   0.00000  Uiso   1.00
H347   H     0.14553   0.38787   0.59383   0.00000  Uiso   1.00
H348   H     0.09115   0.59012   0.77051   0.00000  Uiso   1.00
H349   H     0.02413   0.38500   0.84199   0.00000  Uiso   1.00
H350   H     0.21759   0.31098   0.48339   0.00000  Uiso   1.00
H351   H     0.10291   0.73744   0.85593   0.00000  Uiso   1.00
H352   H     0.96158   0.30491   0.00668   0.00000  Uiso   1.00
H353   H     0.16024   0.42080   0.21682   0.00000  Uiso   1.00
H354   H     0.22079   0.35345   0.08807   0.00000  Uiso   1.00
H355   H     0.16641   0.55570   0.26474   0.00000  Uiso   1.00
H356   H     0.09939   0.35059   0.33622   0.00000  Uiso   1.00
H357   H     0.27867   0.28305   0.88452   0.00000  Uiso   1.00
H358   H     0.16399   0.70951   0.25707   0.00000  Uiso   1.00
H359   H     0.02266   0.27698   0.40781   0.00000  Uiso   1.00
O360   O     0.28668   0.25332   0.59080   0.00000  Uiso   1.00
O361   O     0.13622   0.81281   0.07958   0.00000  Uiso   1.00
O362   O     0.95080   0.24535   0.27734   0.00000  Uiso   1.00
N363   N     0.22365   0.31364   0.59547   0.00000  Uiso   1.00
N364   N     0.11644   0.71235   0.94376   0.00000  Uiso   1.00
N365   N     0.98430   0.30799   0.08471   0.00000  Uiso   1.00
N366   N     0.25652   0.29861   0.81132   0.00000  Uiso   1.00
N367   N     0.14930   0.69732   0.15961   0.00000  Uiso   1.00
N368   N     0.01717   0.29296   0.30056   0.00000  Uiso   1.00
