data_job_03382
_audit_creation_date              2018-12-19
_audit_creation_method            'Materials Studio'
_symmetry_space_group_name_H-M    'P1'
_symmetry_Int_Tables_number       1
_symmetry_cell_setting            triclinic
loop_
_symmetry_equiv_pos_as_xyz
  x,y,z
_cell_length_a                    21.5317
_cell_length_b                    17.0090
_cell_length_c                    11.8532
_cell_angle_alpha                 90.0000
_cell_angle_beta                  90.0000
_cell_angle_gamma                 90.0000
loop_
_atom_site_label
_atom_site_type_symbol
_atom_site_fract_x
_atom_site_fract_y
_atom_site_fract_z
_atom_site_U_iso_or_equiv
_atom_site_adp_type
_atom_site_occupancy
C1     C     0.18078   0.97745   0.81669   0.00000  Uiso   1.00
C2     C     0.15817   0.96771   0.69557   0.00000  Uiso   1.00
C3     C     0.13696   0.02763   0.62608   0.00000  Uiso   1.00
C4     C     0.11833   0.00665   0.51806   0.00000  Uiso   1.00
C5     C     0.08282   0.00339   0.33565   0.00000  Uiso   1.00
C6     C     0.14098   0.92244   0.88806   0.00000  Uiso   1.00
C7     C     0.10532   0.94429   0.98041   0.00000  Uiso   1.00
C8     C     0.07223   0.88520   0.03443   0.00000  Uiso   1.00
C9     C     0.01007   0.81165   0.15091   0.00000  Uiso   1.00
C10    C     0.24635   0.94367   0.81967   0.00000  Uiso   1.00
C11    C     0.29929   0.98336   0.85455   0.00000  Uiso   1.00
C12    C     0.35492   0.94214   0.85101   0.00000  Uiso   1.00
C13    C     0.45636   0.90155   0.86131   0.00000  Uiso   1.00
C14    C     0.18543   0.83365   0.74843   0.00000  Uiso   1.00
C15    C     0.16070   0.88960   0.65850   0.00000  Uiso   1.00
C16    C     0.14210   0.86852   0.55055   0.00000  Uiso   1.00
C17    C     0.12087   0.92840   0.48090   0.00000  Uiso   1.00
C18    C     0.14351   0.84433   0.85098   0.00000  Uiso   1.00
C19    C     0.11047   0.78519   0.90488   0.00000  Uiso   1.00
C20    C     0.07476   0.80695   0.99728   0.00000  Uiso   1.00
C21    C     0.24888   0.86556   0.78259   0.00000  Uiso   1.00
C22    C     0.30443   0.82426   0.77901   0.00000  Uiso   1.00
C23    C     0.35745   0.86389   0.81387   0.00000  Uiso   1.00
H24    H     0.17881   0.03826   0.84557   0.00000  Uiso   1.00
H25    H     0.13501   0.08807   0.65481   0.00000  Uiso   1.00
H26    H     0.10338   0.00474   0.00909   0.00000  Uiso   1.00
H27    H     0.29732   0.04381   0.88324   0.00000  Uiso   1.00
H28    H     0.08754   0.10883   0.42698   0.00000  Uiso   1.00
H29    H     0.02087   0.93314   0.17403   0.00000  Uiso   1.00
H30    H     0.42983   0.01552   0.90865   0.00000  Uiso   1.00
H31    H     0.18739   0.77283   0.71956   0.00000  Uiso   1.00
H32    H     0.14406   0.80807   0.52188   0.00000  Uiso   1.00
H33    H     0.11243   0.72475   0.87616   0.00000  Uiso   1.00
H34    H     0.30637   0.76382   0.75031   0.00000  Uiso   1.00
H35    H     0.09488   0.88158   0.31909   0.00000  Uiso   1.00
H36    H     0.02821   0.70588   0.06614   0.00000  Uiso   1.00
H37    H     0.43717   0.78826   0.80076   0.00000  Uiso   1.00
O38    O     0.06253   0.02317   0.24529   0.00000  Uiso   1.00
O39    O     0.97507   0.79267   0.22539   0.00000  Uiso   1.00
O40    O     0.51161   0.90075   0.87721   0.00000  Uiso   1.00
N41    N     0.09522   0.05052   0.42871   0.00000  Uiso   1.00
N42    N     0.03288   0.88625   0.12714   0.00000  Uiso   1.00
N43    N     0.41522   0.96326   0.87907   0.00000  Uiso   1.00
N44    N     0.09918   0.92823   0.37065   0.00000  Uiso   1.00
N45    N     0.03684   0.76397   0.06909   0.00000  Uiso   1.00
N46    N     0.41918   0.84098   0.82101   0.00000  Uiso   1.00
C47    C     0.81922   0.02255   0.81669   0.00000  Uiso   1.00
C48    C     0.84183   0.03229   0.69557   0.00000  Uiso   1.00
C49    C     0.86304   0.97237   0.62608   0.00000  Uiso   1.00
C50    C     0.88167   0.99335   0.51806   0.00000  Uiso   1.00
C51    C     0.91718   0.99661   0.33565   0.00000  Uiso   1.00
C52    C     0.85902   0.07756   0.88806   0.00000  Uiso   1.00
C53    C     0.89468   0.05571   0.98041   0.00000  Uiso   1.00
C54    C     0.92777   0.11480   0.03443   0.00000  Uiso   1.00
C55    C     0.98993   0.18835   0.15091   0.00000  Uiso   1.00
C56    C     0.75365   0.05633   0.81967   0.00000  Uiso   1.00
C57    C     0.70071   0.01664   0.85455   0.00000  Uiso   1.00
C58    C     0.64508   0.05786   0.85101   0.00000  Uiso   1.00
C59    C     0.54364   0.09845   0.86131   0.00000  Uiso   1.00
C60    C     0.81457   0.16635   0.74843   0.00000  Uiso   1.00
C61    C     0.83930   0.11040   0.65850   0.00000  Uiso   1.00
C62    C     0.85790   0.13148   0.55055   0.00000  Uiso   1.00
C63    C     0.87913   0.07160   0.48090   0.00000  Uiso   1.00
C64    C     0.85649   0.15567   0.85098   0.00000  Uiso   1.00
C65    C     0.88953   0.21481   0.90488   0.00000  Uiso   1.00
C66    C     0.92524   0.19305   0.99728   0.00000  Uiso   1.00
C67    C     0.75112   0.13444   0.78259   0.00000  Uiso   1.00
C68    C     0.69557   0.17574   0.77901   0.00000  Uiso   1.00
C69    C     0.64255   0.13611   0.81387   0.00000  Uiso   1.00
H70    H     0.82119   0.96174   0.84557   0.00000  Uiso   1.00
H71    H     0.86499   0.91193   0.65481   0.00000  Uiso   1.00
H72    H     0.89662   0.99526   0.00909   0.00000  Uiso   1.00
H73    H     0.70268   0.95619   0.88324   0.00000  Uiso   1.00
H74    H     0.91246   0.89117   0.42698   0.00000  Uiso   1.00
H75    H     0.97913   0.06686   0.17403   0.00000  Uiso   1.00
H76    H     0.57017   0.98448   0.90865   0.00000  Uiso   1.00
H77    H     0.81261   0.22717   0.71956   0.00000  Uiso   1.00
H78    H     0.85594   0.19193   0.52188   0.00000  Uiso   1.00
H79    H     0.88757   0.27525   0.87616   0.00000  Uiso   1.00
H80    H     0.69363   0.23618   0.75031   0.00000  Uiso   1.00
H81    H     0.90512   0.11842   0.31909   0.00000  Uiso   1.00
H82    H     0.97179   0.29412   0.06614   0.00000  Uiso   1.00
H83    H     0.56283   0.21174   0.80076   0.00000  Uiso   1.00
O84    O     0.93747   0.97683   0.24529   0.00000  Uiso   1.00
O85    O     0.02493   0.20733   0.22539   0.00000  Uiso   1.00
O86    O     0.48839   0.09925   0.87721   0.00000  Uiso   1.00
N87    N     0.90478   0.94948   0.42871   0.00000  Uiso   1.00
N88    N     0.96712   0.11375   0.12714   0.00000  Uiso   1.00
N89    N     0.58478   0.03674   0.87907   0.00000  Uiso   1.00
N90    N     0.90082   0.07177   0.37065   0.00000  Uiso   1.00
N91    N     0.96316   0.23603   0.06909   0.00000  Uiso   1.00
N92    N     0.58082   0.15902   0.82101   0.00000  Uiso   1.00
C93    C     0.31922   0.47745   0.18331   0.00000  Uiso   1.00
C94    C     0.34183   0.46771   0.30443   0.00000  Uiso   1.00
C95    C     0.36304   0.52763   0.37392   0.00000  Uiso   1.00
C96    C     0.38167   0.50665   0.48194   0.00000  Uiso   1.00
C97    C     0.41718   0.50339   0.66435   0.00000  Uiso   1.00
C98    C     0.35902   0.42244   0.11194   0.00000  Uiso   1.00
C99    C     0.39468   0.44429   0.01959   0.00000  Uiso   1.00
C100   C     0.42777   0.38520   0.96557   0.00000  Uiso   1.00
C101   C     0.48993   0.31165   0.84909   0.00000  Uiso   1.00
C102   C     0.25365   0.44367   0.18033   0.00000  Uiso   1.00
C103   C     0.20071   0.48336   0.14545   0.00000  Uiso   1.00
C104   C     0.14508   0.44214   0.14899   0.00000  Uiso   1.00
C105   C     0.04364   0.40155   0.13869   0.00000  Uiso   1.00
C106   C     0.31457   0.33365   0.25157   0.00000  Uiso   1.00
C107   C     0.33930   0.38960   0.34150   0.00000  Uiso   1.00
C108   C     0.35790   0.36852   0.44945   0.00000  Uiso   1.00
C109   C     0.37913   0.42840   0.51910   0.00000  Uiso   1.00
C110   C     0.35649   0.34433   0.14902   0.00000  Uiso   1.00
C111   C     0.38953   0.28519   0.09512   0.00000  Uiso   1.00
C112   C     0.42524   0.30695   0.00272   0.00000  Uiso   1.00
C113   C     0.25112   0.36556   0.21741   0.00000  Uiso   1.00
C114   C     0.19557   0.32426   0.22099   0.00000  Uiso   1.00
C115   C     0.14255   0.36389   0.18613   0.00000  Uiso   1.00
H116   H     0.32119   0.53826   0.15443   0.00000  Uiso   1.00
H117   H     0.36499   0.58807   0.34519   0.00000  Uiso   1.00
H118   H     0.39662   0.50474   0.99091   0.00000  Uiso   1.00
H119   H     0.20268   0.54381   0.11676   0.00000  Uiso   1.00
H120   H     0.41246   0.60883   0.57302   0.00000  Uiso   1.00
H121   H     0.47913   0.43314   0.82597   0.00000  Uiso   1.00
H122   H     0.07017   0.51552   0.09135   0.00000  Uiso   1.00
H123   H     0.31261   0.27283   0.28044   0.00000  Uiso   1.00
H124   H     0.35594   0.30807   0.47812   0.00000  Uiso   1.00
H125   H     0.38757   0.22475   0.12384   0.00000  Uiso   1.00
H126   H     0.19363   0.26382   0.24969   0.00000  Uiso   1.00
H127   H     0.40512   0.38158   0.68091   0.00000  Uiso   1.00
H128   H     0.47179   0.20588   0.93386   0.00000  Uiso   1.00
H129   H     0.06283   0.28826   0.19924   0.00000  Uiso   1.00
O130   O     0.43747   0.52317   0.75471   0.00000  Uiso   1.00
O131   O     0.52493   0.29267   0.77461   0.00000  Uiso   1.00
O132   O     0.98839   0.40075   0.12279   0.00000  Uiso   1.00
N133   N     0.40478   0.55052   0.57129   0.00000  Uiso   1.00
N134   N     0.46712   0.38625   0.87286   0.00000  Uiso   1.00
N135   N     0.08478   0.46326   0.12093   0.00000  Uiso   1.00
N136   N     0.40082   0.42823   0.62935   0.00000  Uiso   1.00
N137   N     0.46316   0.26397   0.93091   0.00000  Uiso   1.00
N138   N     0.08082   0.34098   0.17899   0.00000  Uiso   1.00
C139   C     0.68078   0.52255   0.18331   0.00000  Uiso   1.00
C140   C     0.65817   0.53229   0.30443   0.00000  Uiso   1.00
C141   C     0.63696   0.47237   0.37392   0.00000  Uiso   1.00
C142   C     0.61833   0.49335   0.48194   0.00000  Uiso   1.00
C143   C     0.58282   0.49661   0.66435   0.00000  Uiso   1.00
C144   C     0.64098   0.57756   0.11194   0.00000  Uiso   1.00
C145   C     0.60532   0.55571   0.01959   0.00000  Uiso   1.00
C146   C     0.57223   0.61480   0.96557   0.00000  Uiso   1.00
C147   C     0.51007   0.68835   0.84909   0.00000  Uiso   1.00
C148   C     0.74635   0.55633   0.18033   0.00000  Uiso   1.00
C149   C     0.79929   0.51664   0.14545   0.00000  Uiso   1.00
C150   C     0.85492   0.55786   0.14899   0.00000  Uiso   1.00
C151   C     0.95636   0.59845   0.13869   0.00000  Uiso   1.00
C152   C     0.68543   0.66635   0.25157   0.00000  Uiso   1.00
C153   C     0.66070   0.61040   0.34150   0.00000  Uiso   1.00
C154   C     0.64210   0.63148   0.44945   0.00000  Uiso   1.00
C155   C     0.62087   0.57160   0.51910   0.00000  Uiso   1.00
C156   C     0.64351   0.65567   0.14902   0.00000  Uiso   1.00
C157   C     0.61047   0.71481   0.09512   0.00000  Uiso   1.00
C158   C     0.57476   0.69305   0.00272   0.00000  Uiso   1.00
C159   C     0.74888   0.63444   0.21741   0.00000  Uiso   1.00
C160   C     0.80443   0.67574   0.22099   0.00000  Uiso   1.00
C161   C     0.85745   0.63611   0.18613   0.00000  Uiso   1.00
H162   H     0.67881   0.46174   0.15443   0.00000  Uiso   1.00
H163   H     0.63501   0.41193   0.34519   0.00000  Uiso   1.00
H164   H     0.60338   0.49526   0.99091   0.00000  Uiso   1.00
H165   H     0.79732   0.45619   0.11676   0.00000  Uiso   1.00
H166   H     0.58754   0.39117   0.57302   0.00000  Uiso   1.00
H167   H     0.52087   0.56686   0.82597   0.00000  Uiso   1.00
H168   H     0.92983   0.48448   0.09135   0.00000  Uiso   1.00
H169   H     0.68739   0.72717   0.28044   0.00000  Uiso   1.00
H170   H     0.64406   0.69193   0.47812   0.00000  Uiso   1.00
H171   H     0.61243   0.77525   0.12384   0.00000  Uiso   1.00
H172   H     0.80637   0.73618   0.24969   0.00000  Uiso   1.00
H173   H     0.59488   0.61842   0.68091   0.00000  Uiso   1.00
H174   H     0.52821   0.79412   0.93386   0.00000  Uiso   1.00
H175   H     0.93717   0.71174   0.19924   0.00000  Uiso   1.00
O176   O     0.56253   0.47683   0.75471   0.00000  Uiso   1.00
O177   O     0.47507   0.70733   0.77461   0.00000  Uiso   1.00
O178   O     0.01161   0.59925   0.12279   0.00000  Uiso   1.00
N179   N     0.59522   0.44948   0.57129   0.00000  Uiso   1.00
N180   N     0.53288   0.61375   0.87286   0.00000  Uiso   1.00
N181   N     0.91522   0.53674   0.12093   0.00000  Uiso   1.00
N182   N     0.59918   0.57177   0.62935   0.00000  Uiso   1.00
N183   N     0.53684   0.73603   0.93091   0.00000  Uiso   1.00
N184   N     0.91918   0.65902   0.17899   0.00000  Uiso   1.00
