data_job_04083
_audit_creation_date              2018-12-19
_audit_creation_method            'Materials Studio'
_symmetry_space_group_name_H-M    'P1'
_symmetry_Int_Tables_number       1
_symmetry_cell_setting            triclinic
loop_
_symmetry_equiv_pos_as_xyz
  x,y,z
_cell_length_a                    12.5290
_cell_length_b                    22.3361
_cell_length_c                    10.6988
_cell_angle_alpha                 90.0000
_cell_angle_beta                  90.0000
_cell_angle_gamma                 90.0000
loop_
_atom_site_label
_atom_site_type_symbol
_atom_site_fract_x
_atom_site_fract_y
_atom_site_fract_z
_atom_site_U_iso_or_equiv
_atom_site_adp_type
_atom_site_occupancy
C1     C     0.98901   0.17871   0.50207   0.00000  Uiso   1.00
C2     C     0.88723   0.15249   0.44627   0.00000  Uiso   1.00
C3     C     0.82808   0.17740   0.34972   0.00000  Uiso   1.00
C4     C     0.73742   0.14654   0.31208   0.00000  Uiso   1.00
C5     C     0.58395   0.11404   0.21683   0.00000  Uiso   1.00
C6     C     0.96775   0.18564   0.64166   0.00000  Uiso   1.00
C7     C     0.97631   0.23842   0.70938   0.00000  Uiso   1.00
C8     C     0.95345   0.23545   0.83621   0.00000  Uiso   1.00
C9     C     0.92507   0.25440   0.04432   0.00000  Uiso   1.00
C10    C     0.07381   0.13007   0.49012   0.00000  Uiso   1.00
C11    C     0.17157   0.13613   0.43045   0.00000  Uiso   1.00
C12    C     0.23802   0.08639   0.42972   0.00000  Uiso   1.00
C13    C     0.37432   0.01906   0.40253   0.00000  Uiso   1.00
C14    C     0.93320   0.07960   0.60690   0.00000  Uiso   1.00
C15    C     0.85691   0.09866   0.50322   0.00000  Uiso   1.00
C16    C     0.76633   0.06775   0.46571   0.00000  Uiso   1.00
C17    C     0.70705   0.09261   0.36911   0.00000  Uiso   1.00
C18    C     0.93743   0.13181   0.69860   0.00000  Uiso   1.00
C19    C     0.91456   0.12876   0.82537   0.00000  Uiso   1.00
C20    C     0.92308   0.18152   0.89326   0.00000  Uiso   1.00
C21    C     0.04350   0.07624   0.54705   0.00000  Uiso   1.00
C22    C     0.10982   0.02648   0.54643   0.00000  Uiso   1.00
C23    C     0.20765   0.03246   0.48676   0.00000  Uiso   1.00
H24    H     0.01262   0.22062   0.45774   0.00000  Uiso   1.00
H25    H     0.85156   0.21907   0.30569   0.00000  Uiso   1.00
H26    H     0.99978   0.28007   0.66529   0.00000  Uiso   1.00
H27    H     0.19500   0.17780   0.38640   0.00000  Uiso   1.00
H28    H     0.65961   0.19362   0.16225   0.00000  Uiso   1.00
H29    H     0.97217   0.32224   0.92050   0.00000  Uiso   1.00
H30    H     0.38385   0.10658   0.33240   0.00000  Uiso   1.00
H31    H     0.90960   0.03768   0.65123   0.00000  Uiso   1.00
H32    H     0.74289   0.02609   0.50979   0.00000  Uiso   1.00
H33    H     0.89111   0.08709   0.86940   0.00000  Uiso   1.00
H34    H     0.08633   0.98482   0.59050   0.00000  Uiso   1.00
H35    H     0.57140   0.03700   0.32791   0.00000  Uiso   1.00
H36    H     0.88398   0.16561   0.08617   0.00000  Uiso   1.00
H37    H     0.29564   0.94995   0.49806   0.00000  Uiso   1.00
O38    O     0.50767   0.11099   0.14857   0.00000  Uiso   1.00
O39    O     0.91777   0.27973   0.14337   0.00000  Uiso   1.00
O40    O     0.45787   0.99680   0.37179   0.00000  Uiso   1.00
N41    N     0.66174   0.15834   0.22063   0.00000  Uiso   1.00
N42    N     0.95395   0.27859   0.92955   0.00000  Uiso   1.00
N43    N     0.33885   0.07698   0.37975   0.00000  Uiso   1.00
N44    N     0.61428   0.07406   0.30977   0.00000  Uiso   1.00
N45    N     0.90649   0.19431   0.01869   0.00000  Uiso   1.00
N46    N     0.29139   0.99270   0.46889   0.00000  Uiso   1.00
C47    C     0.51099   0.82129   0.00207   0.00000  Uiso   1.00
C48    C     0.61277   0.84751   0.94627   0.00000  Uiso   1.00
C49    C     0.67192   0.82260   0.84972   0.00000  Uiso   1.00
C50    C     0.76258   0.85346   0.81208   0.00000  Uiso   1.00
C51    C     0.91605   0.88596   0.71683   0.00000  Uiso   1.00
C52    C     0.53225   0.81436   0.14166   0.00000  Uiso   1.00
C53    C     0.52369   0.76158   0.20938   0.00000  Uiso   1.00
C54    C     0.54655   0.76455   0.33621   0.00000  Uiso   1.00
C55    C     0.57493   0.74560   0.54432   0.00000  Uiso   1.00
C56    C     0.42619   0.86993   0.99012   0.00000  Uiso   1.00
C57    C     0.32843   0.86387   0.93045   0.00000  Uiso   1.00
C58    C     0.26198   0.91361   0.92972   0.00000  Uiso   1.00
C59    C     0.12568   0.98094   0.90253   0.00000  Uiso   1.00
C60    C     0.56680   0.92040   0.10690   0.00000  Uiso   1.00
C61    C     0.64309   0.90134   0.00322   0.00000  Uiso   1.00
C62    C     0.73367   0.93225   0.96571   0.00000  Uiso   1.00
C63    C     0.79295   0.90739   0.86911   0.00000  Uiso   1.00
C64    C     0.56257   0.86819   0.19860   0.00000  Uiso   1.00
C65    C     0.58544   0.87124   0.32537   0.00000  Uiso   1.00
C66    C     0.57692   0.81848   0.39326   0.00000  Uiso   1.00
C67    C     0.45650   0.92376   0.04705   0.00000  Uiso   1.00
C68    C     0.39018   0.97352   0.04643   0.00000  Uiso   1.00
C69    C     0.29235   0.96754   0.98676   0.00000  Uiso   1.00
H70    H     0.48738   0.77938   0.95774   0.00000  Uiso   1.00
H71    H     0.64844   0.78093   0.80569   0.00000  Uiso   1.00
H72    H     0.50022   0.71993   0.16529   0.00000  Uiso   1.00
H73    H     0.30500   0.82220   0.88640   0.00000  Uiso   1.00
H74    H     0.84039   0.80638   0.66225   0.00000  Uiso   1.00
H75    H     0.52783   0.67776   0.42050   0.00000  Uiso   1.00
H76    H     0.11615   0.89342   0.83240   0.00000  Uiso   1.00
H77    H     0.59040   0.96232   0.15123   0.00000  Uiso   1.00
H78    H     0.75711   0.97391   0.00979   0.00000  Uiso   1.00
H79    H     0.60889   0.91291   0.36940   0.00000  Uiso   1.00
H80    H     0.41367   0.01518   0.09050   0.00000  Uiso   1.00
H81    H     0.92860   0.96300   0.82791   0.00000  Uiso   1.00
H82    H     0.61602   0.83439   0.58617   0.00000  Uiso   1.00
H83    H     0.20436   0.05005   0.99806   0.00000  Uiso   1.00
O84    O     0.99233   0.88901   0.64857   0.00000  Uiso   1.00
O85    O     0.58223   0.72027   0.64337   0.00000  Uiso   1.00
O86    O     0.04213   0.00320   0.87179   0.00000  Uiso   1.00
N87    N     0.83826   0.84166   0.72063   0.00000  Uiso   1.00
N88    N     0.54605   0.72141   0.42955   0.00000  Uiso   1.00
N89    N     0.16115   0.92302   0.87975   0.00000  Uiso   1.00
N90    N     0.88572   0.92594   0.80977   0.00000  Uiso   1.00
N91    N     0.59351   0.80569   0.51869   0.00000  Uiso   1.00
N92    N     0.20861   0.00730   0.96889   0.00000  Uiso   1.00
C93    C     0.01099   0.67871   0.99793   0.00000  Uiso   1.00
C94    C     0.11277   0.65249   0.05373   0.00000  Uiso   1.00
C95    C     0.17192   0.67740   0.15028   0.00000  Uiso   1.00
C96    C     0.26258   0.64654   0.18792   0.00000  Uiso   1.00
C97    C     0.41605   0.61404   0.28317   0.00000  Uiso   1.00
C98    C     0.03225   0.68564   0.85834   0.00000  Uiso   1.00
C99    C     0.02369   0.73842   0.79062   0.00000  Uiso   1.00
C100   C     0.04655   0.73545   0.66379   0.00000  Uiso   1.00
C101   C     0.07493   0.75440   0.45568   0.00000  Uiso   1.00
C102   C     0.92619   0.63007   0.00988   0.00000  Uiso   1.00
C103   C     0.82843   0.63613   0.06955   0.00000  Uiso   1.00
C104   C     0.76198   0.58639   0.07028   0.00000  Uiso   1.00
C105   C     0.62568   0.51906   0.09747   0.00000  Uiso   1.00
C106   C     0.06680   0.57960   0.89310   0.00000  Uiso   1.00
C107   C     0.14309   0.59866   0.99678   0.00000  Uiso   1.00
C108   C     0.23367   0.56775   0.03429   0.00000  Uiso   1.00
C109   C     0.29295   0.59261   0.13089   0.00000  Uiso   1.00
C110   C     0.06257   0.63181   0.80140   0.00000  Uiso   1.00
C111   C     0.08544   0.62876   0.67463   0.00000  Uiso   1.00
C112   C     0.07692   0.68152   0.60674   0.00000  Uiso   1.00
C113   C     0.95650   0.57624   0.95295   0.00000  Uiso   1.00
C114   C     0.89018   0.52648   0.95357   0.00000  Uiso   1.00
C115   C     0.79235   0.53246   0.01324   0.00000  Uiso   1.00
H116   H     0.98738   0.72062   0.04226   0.00000  Uiso   1.00
H117   H     0.14844   0.71907   0.19431   0.00000  Uiso   1.00
H118   H     0.00022   0.78007   0.83471   0.00000  Uiso   1.00
H119   H     0.80500   0.67780   0.11360   0.00000  Uiso   1.00
H120   H     0.34039   0.69362   0.33775   0.00000  Uiso   1.00
H121   H     0.02783   0.82224   0.57950   0.00000  Uiso   1.00
H122   H     0.61615   0.60658   0.16760   0.00000  Uiso   1.00
H123   H     0.09040   0.53768   0.84877   0.00000  Uiso   1.00
H124   H     0.25711   0.52609   0.99021   0.00000  Uiso   1.00
H125   H     0.10889   0.58709   0.63060   0.00000  Uiso   1.00
H126   H     0.91367   0.48482   0.90950   0.00000  Uiso   1.00
H127   H     0.42860   0.53700   0.17209   0.00000  Uiso   1.00
H128   H     0.11602   0.66561   0.41383   0.00000  Uiso   1.00
H129   H     0.70436   0.44995   0.00194   0.00000  Uiso   1.00
O130   O     0.49233   0.61099   0.35143   0.00000  Uiso   1.00
O131   O     0.08223   0.77973   0.35663   0.00000  Uiso   1.00
O132   O     0.54213   0.49680   0.12821   0.00000  Uiso   1.00
N133   N     0.33826   0.65834   0.27937   0.00000  Uiso   1.00
N134   N     0.04605   0.77859   0.57045   0.00000  Uiso   1.00
N135   N     0.66115   0.57698   0.12025   0.00000  Uiso   1.00
N136   N     0.38572   0.57406   0.19023   0.00000  Uiso   1.00
N137   N     0.09351   0.69431   0.48131   0.00000  Uiso   1.00
N138   N     0.70861   0.49270   0.03111   0.00000  Uiso   1.00
C139   C     0.48901   0.32129   0.49793   0.00000  Uiso   1.00
C140   C     0.38723   0.34751   0.55373   0.00000  Uiso   1.00
C141   C     0.32808   0.32260   0.65028   0.00000  Uiso   1.00
C142   C     0.23742   0.35346   0.68792   0.00000  Uiso   1.00
C143   C     0.08395   0.38596   0.78317   0.00000  Uiso   1.00
C144   C     0.46775   0.31436   0.35834   0.00000  Uiso   1.00
C145   C     0.47631   0.26158   0.29062   0.00000  Uiso   1.00
C146   C     0.45345   0.26455   0.16379   0.00000  Uiso   1.00
C147   C     0.42507   0.24560   0.95568   0.00000  Uiso   1.00
C148   C     0.57381   0.36993   0.50988   0.00000  Uiso   1.00
C149   C     0.67157   0.36387   0.56955   0.00000  Uiso   1.00
C150   C     0.73802   0.41361   0.57028   0.00000  Uiso   1.00
C151   C     0.87432   0.48094   0.59747   0.00000  Uiso   1.00
C152   C     0.43320   0.42040   0.39310   0.00000  Uiso   1.00
C153   C     0.35691   0.40134   0.49678   0.00000  Uiso   1.00
C154   C     0.26633   0.43225   0.53429   0.00000  Uiso   1.00
C155   C     0.20705   0.40739   0.63089   0.00000  Uiso   1.00
C156   C     0.43743   0.36819   0.30140   0.00000  Uiso   1.00
C157   C     0.41456   0.37124   0.17463   0.00000  Uiso   1.00
C158   C     0.42308   0.31848   0.10674   0.00000  Uiso   1.00
C159   C     0.54350   0.42376   0.45295   0.00000  Uiso   1.00
C160   C     0.60982   0.47352   0.45357   0.00000  Uiso   1.00
C161   C     0.70765   0.46754   0.51324   0.00000  Uiso   1.00
H162   H     0.51262   0.27938   0.54226   0.00000  Uiso   1.00
H163   H     0.35156   0.28093   0.69431   0.00000  Uiso   1.00
H164   H     0.49978   0.21993   0.33471   0.00000  Uiso   1.00
H165   H     0.69500   0.32220   0.61360   0.00000  Uiso   1.00
H166   H     0.15961   0.30638   0.83775   0.00000  Uiso   1.00
H167   H     0.47217   0.17776   0.07950   0.00000  Uiso   1.00
H168   H     0.88385   0.39342   0.66760   0.00000  Uiso   1.00
H169   H     0.40960   0.46232   0.34877   0.00000  Uiso   1.00
H170   H     0.24289   0.47391   0.49021   0.00000  Uiso   1.00
H171   H     0.39111   0.41291   0.13060   0.00000  Uiso   1.00
H172   H     0.58633   0.51518   0.40950   0.00000  Uiso   1.00
H173   H     0.07140   0.46300   0.67209   0.00000  Uiso   1.00
H174   H     0.38398   0.33439   0.91383   0.00000  Uiso   1.00
H175   H     0.79564   0.55005   0.50194   0.00000  Uiso   1.00
O176   O     0.00767   0.38901   0.85143   0.00000  Uiso   1.00
O177   O     0.41777   0.22027   0.85663   0.00000  Uiso   1.00
O178   O     0.95787   0.50320   0.62821   0.00000  Uiso   1.00
N179   N     0.16174   0.34166   0.77937   0.00000  Uiso   1.00
N180   N     0.45395   0.22141   0.07045   0.00000  Uiso   1.00
N181   N     0.83885   0.42302   0.62025   0.00000  Uiso   1.00
N182   N     0.11428   0.42594   0.69023   0.00000  Uiso   1.00
N183   N     0.40649   0.30569   0.98131   0.00000  Uiso   1.00
N184   N     0.79139   0.50730   0.53111   0.00000  Uiso   1.00
