data_job_04669
_audit_creation_date              2018-12-19
_audit_creation_method            'Materials Studio'
_symmetry_space_group_name_H-M    'P1'
_symmetry_Int_Tables_number       1
_symmetry_cell_setting            triclinic
loop_
_symmetry_equiv_pos_as_xyz
  x,y,z
_cell_length_a                    15.3626
_cell_length_b                    16.2878
_cell_length_c                    9.1727
_cell_angle_alpha                 90.0000
_cell_angle_beta                  92.1401
_cell_angle_gamma                 90.0000
loop_
_atom_site_label
_atom_site_type_symbol
_atom_site_fract_x
_atom_site_fract_y
_atom_site_fract_z
_atom_site_U_iso_or_equiv
_atom_site_adp_type
_atom_site_occupancy
C1     C     0.02541   0.05067   0.71665   0.00000  Uiso   1.00
C2     C     0.98071   0.08710   0.58023   0.00000  Uiso   1.00
C3     C     0.94626   0.16566   0.56795   0.00000  Uiso   1.00
C4     C     0.90802   0.18734   0.43390   0.00000  Uiso   1.00
C5     C     0.83912   0.25224   0.23995   0.00000  Uiso   1.00
C6     C     0.97556   0.97234   0.75005   0.00000  Uiso   1.00
C7     C     0.93681   0.95443   0.88057   0.00000  Uiso   1.00
C8     C     0.89425   0.87949   0.88948   0.00000  Uiso   1.00
C9     C     0.81742   0.76622   0.95923   0.00000  Uiso   1.00
C10    C     0.11539   0.02320   0.67151   0.00000  Uiso   1.00
C11    C     0.19420   0.04803   0.73601   0.00000  Uiso   1.00
C12    C     0.26937   0.01590   0.67881   0.00000  Uiso   1.00
C13    C     0.40964   0.98160   0.62661   0.00000  Uiso   1.00
C14    C     0.01876   0.94944   0.50042   0.00000  Uiso   1.00
C15    C     0.97709   0.03211   0.46278   0.00000  Uiso   1.00
C16    C     0.93890   0.05367   0.32871   0.00000  Uiso   1.00
C17    C     0.90440   0.13226   0.31623   0.00000  Uiso   1.00
C18    C     0.97195   0.91736   0.63261   0.00000  Uiso   1.00
C19    C     0.92945   0.84243   0.64133   0.00000  Uiso   1.00
C20    C     0.89063   0.82441   0.77182   0.00000  Uiso   1.00
C21    C     0.11178   0.96822   0.55406   0.00000  Uiso   1.00
C22    C     0.18684   0.93604   0.49677   0.00000  Uiso   1.00
C23    C     0.26575   0.96082   0.56116   0.00000  Uiso   1.00
H24    H     0.02822   0.09347   0.80810   0.00000  Uiso   1.00
H25    H     0.94906   0.20819   0.65887   0.00000  Uiso   1.00
H26    H     0.93962   0.99698   0.97144   0.00000  Uiso   1.00
H27    H     0.19697   0.09058   0.82689   0.00000  Uiso   1.00
H28    H     0.85968   0.31112   0.44164   0.00000  Uiso   1.00
H29    H     0.83980   0.86577   0.10074   0.00000  Uiso   1.00
H30    H     0.38248   0.06313   0.79594   0.00000  Uiso   1.00
H31    H     0.01594   0.90663   0.40898   0.00000  Uiso   1.00
H32    H     0.93611   0.01111   0.23784   0.00000  Uiso   1.00
H33    H     0.92667   0.79990   0.55043   0.00000  Uiso   1.00
H34    H     0.18402   0.89349   0.40588   0.00000  Uiso   1.00
H35    H     0.84916   0.15116   0.09993   0.00000  Uiso   1.00
H36    H     0.82928   0.70580   0.75903   0.00000  Uiso   1.00
H37    H     0.37196   0.90317   0.45422   0.00000  Uiso   1.00
O38    O     0.80210   0.30323   0.16542   0.00000  Uiso   1.00
O39    O     0.77603   0.71893   0.03014   0.00000  Uiso   1.00
O40    O     0.48801   0.97787   0.63025   0.00000  Uiso   1.00
N41    N     0.86818   0.25914   0.38469   0.00000  Uiso   1.00
N42    N     0.84958   0.84277   0.00091   0.00000  Uiso   1.00
N43    N     0.35693   0.02727   0.71597   0.00000  Uiso   1.00
N44    N     0.86252   0.17307   0.20082   0.00000  Uiso   1.00
N45    N     0.84392   0.75669   0.81703   0.00000  Uiso   1.00
N46    N     0.35128   0.94119   0.53209   0.00000  Uiso   1.00
C47    C     0.54786   0.92895   0.02834   0.00000  Uiso   1.00
C48    C     0.59331   0.89312   0.16461   0.00000  Uiso   1.00
C49    C     0.62837   0.81481   0.17714   0.00000  Uiso   1.00
C50    C     0.66724   0.79368   0.31099   0.00000  Uiso   1.00
C51    C     0.73730   0.72966   0.50477   0.00000  Uiso   1.00
C52    C     0.59699   0.00752   0.99385   0.00000  Uiso   1.00
C53    C     0.63513   0.02539   0.86278   0.00000  Uiso   1.00
C54    C     0.67709   0.10058   0.85288   0.00000  Uiso   1.00
C55    C     0.75281   0.21419   0.78150   0.00000  Uiso   1.00
C56    C     0.45786   0.95594   0.07419   0.00000  Uiso   1.00
C57    C     0.37902   0.93046   0.01066   0.00000  Uiso   1.00
C58    C     0.30384   0.96223   0.06838   0.00000  Uiso   1.00
C59    C     0.16354   0.99575   0.12175   0.00000  Uiso   1.00
C60    C     0.55453   0.03070   0.24379   0.00000  Uiso   1.00
C61    C     0.59693   0.94839   0.28163   0.00000  Uiso   1.00
C62    C     0.63575   0.92738   0.41551   0.00000  Uiso   1.00
C63    C     0.67087   0.84905   0.42823   0.00000  Uiso   1.00
C64    C     0.60061   0.06279   0.11086   0.00000  Uiso   1.00
C65    C     0.64252   0.13797   0.10115   0.00000  Uiso   1.00
C66    C     0.68072   0.15595   0.97011   0.00000  Uiso   1.00
C67    C     0.46148   0.01120   0.19122   0.00000  Uiso   1.00
C68    C     0.38640   0.04303   0.24904   0.00000  Uiso   1.00
C69    C     0.30747   0.01760   0.18561   0.00000  Uiso   1.00
H70    H     0.54504   0.88592   0.93722   0.00000  Uiso   1.00
H71    H     0.62556   0.77205   0.08654   0.00000  Uiso   1.00
H72    H     0.63231   0.98261   0.77223   0.00000  Uiso   1.00
H73    H     0.37624   0.88769   0.92010   0.00000  Uiso   1.00
H74    H     0.71646   0.67019   0.30368   0.00000  Uiso   1.00
H75    H     0.73067   0.11418   0.64093   0.00000  Uiso   1.00
H76    H     0.19069   0.91401   0.95272   0.00000  Uiso   1.00
H77    H     0.55735   0.07373   0.33490   0.00000  Uiso   1.00
H78    H     0.63855   0.97016   0.50605   0.00000  Uiso   1.00
H79    H     0.64530   0.18072   0.19173   0.00000  Uiso   1.00
H80    H     0.38923   0.08580   0.33960   0.00000  Uiso   1.00
H81    H     0.72701   0.83099   0.64416   0.00000  Uiso   1.00
H82    H     0.74121   0.27498   0.98140   0.00000  Uiso   1.00
H83    H     0.20124   0.07480   0.29321   0.00000  Uiso   1.00
O84    O     0.77496   0.67908   0.57932   0.00000  Uiso   1.00
O85    O     0.79358   0.26158   0.70980   0.00000  Uiso   1.00
O86    O     0.08515   0.99896   0.11888   0.00000  Uiso   1.00
N87    N     0.70779   0.72224   0.36034   0.00000  Uiso   1.00
N88    N     0.72108   0.13734   0.74070   0.00000  Uiso   1.00
N89    N     0.21625   0.95021   0.03219   0.00000  Uiso   1.00
N90    N     0.71346   0.80876   0.54355   0.00000  Uiso   1.00
N91    N     0.72676   0.22386   0.92392   0.00000  Uiso   1.00
N92    N     0.22192   0.03674   0.21540   0.00000  Uiso   1.00
C93    C     0.97459   0.55067   0.28335   0.00000  Uiso   1.00
C94    C     0.01929   0.58710   0.41977   0.00000  Uiso   1.00
C95    C     0.05374   0.66566   0.43205   0.00000  Uiso   1.00
C96    C     0.09198   0.68734   0.56610   0.00000  Uiso   1.00
C97    C     0.16088   0.75224   0.76005   0.00000  Uiso   1.00
C98    C     0.02444   0.47234   0.24995   0.00000  Uiso   1.00
C99    C     0.06319   0.45443   0.11943   0.00000  Uiso   1.00
C100   C     0.10575   0.37949   0.11052   0.00000  Uiso   1.00
C101   C     0.18258   0.26622   0.04077   0.00000  Uiso   1.00
C102   C     0.88461   0.52320   0.32849   0.00000  Uiso   1.00
C103   C     0.80580   0.54803   0.26399   0.00000  Uiso   1.00
C104   C     0.73063   0.51590   0.32119   0.00000  Uiso   1.00
C105   C     0.59036   0.48160   0.37339   0.00000  Uiso   1.00
C106   C     0.98124   0.44944   0.49958   0.00000  Uiso   1.00
C107   C     0.02291   0.53211   0.53722   0.00000  Uiso   1.00
C108   C     0.06110   0.55367   0.67129   0.00000  Uiso   1.00
C109   C     0.09560   0.63226   0.68377   0.00000  Uiso   1.00
C110   C     0.02805   0.41736   0.36739   0.00000  Uiso   1.00
C111   C     0.07055   0.34243   0.35867   0.00000  Uiso   1.00
C112   C     0.10937   0.32441   0.22818   0.00000  Uiso   1.00
C113   C     0.88822   0.46822   0.44594   0.00000  Uiso   1.00
C114   C     0.81316   0.43604   0.50323   0.00000  Uiso   1.00
C115   C     0.73425   0.46082   0.43884   0.00000  Uiso   1.00
H116   H     0.97178   0.59347   0.19190   0.00000  Uiso   1.00
H117   H     0.05094   0.70819   0.34113   0.00000  Uiso   1.00
H118   H     0.06038   0.49698   0.02856   0.00000  Uiso   1.00
H119   H     0.80303   0.59058   0.17311   0.00000  Uiso   1.00
H120   H     0.14032   0.81112   0.55836   0.00000  Uiso   1.00
H121   H     0.16020   0.36577   0.89926   0.00000  Uiso   1.00
H122   H     0.61752   0.56313   0.20406   0.00000  Uiso   1.00
H123   H     0.98406   0.40663   0.59102   0.00000  Uiso   1.00
H124   H     0.06389   0.51111   0.76216   0.00000  Uiso   1.00
H125   H     0.07333   0.29990   0.44957   0.00000  Uiso   1.00
H126   H     0.81598   0.39349   0.59412   0.00000  Uiso   1.00
H127   H     0.15084   0.65116   0.90007   0.00000  Uiso   1.00
H128   H     0.17072   0.20580   0.24097   0.00000  Uiso   1.00
H129   H     0.62804   0.40317   0.54578   0.00000  Uiso   1.00
O130   O     0.19790   0.80323   0.83458   0.00000  Uiso   1.00
O131   O     0.22397   0.21893   0.96986   0.00000  Uiso   1.00
O132   O     0.51199   0.47787   0.36975   0.00000  Uiso   1.00
N133   N     0.13182   0.75914   0.61531   0.00000  Uiso   1.00
N134   N     0.15042   0.34277   0.99909   0.00000  Uiso   1.00
N135   N     0.64307   0.52727   0.28403   0.00000  Uiso   1.00
N136   N     0.13748   0.67307   0.79918   0.00000  Uiso   1.00
N137   N     0.15608   0.25669   0.18297   0.00000  Uiso   1.00
N138   N     0.64872   0.44119   0.46791   0.00000  Uiso   1.00
C139   C     0.45214   0.42895   0.97166   0.00000  Uiso   1.00
C140   C     0.40669   0.39312   0.83539   0.00000  Uiso   1.00
C141   C     0.37163   0.31481   0.82286   0.00000  Uiso   1.00
C142   C     0.33276   0.29368   0.68901   0.00000  Uiso   1.00
C143   C     0.26270   0.22966   0.49523   0.00000  Uiso   1.00
C144   C     0.40301   0.50752   0.00615   0.00000  Uiso   1.00
C145   C     0.36487   0.52539   0.13722   0.00000  Uiso   1.00
C146   C     0.32291   0.60058   0.14712   0.00000  Uiso   1.00
C147   C     0.24719   0.71419   0.21850   0.00000  Uiso   1.00
C148   C     0.54214   0.45594   0.92581   0.00000  Uiso   1.00
C149   C     0.62098   0.43046   0.98934   0.00000  Uiso   1.00
C150   C     0.69616   0.46223   0.93162   0.00000  Uiso   1.00
C151   C     0.83646   0.49575   0.87825   0.00000  Uiso   1.00
C152   C     0.44547   0.53070   0.75621   0.00000  Uiso   1.00
C153   C     0.40307   0.44839   0.71837   0.00000  Uiso   1.00
C154   C     0.36425   0.42738   0.58449   0.00000  Uiso   1.00
C155   C     0.32913   0.34905   0.57177   0.00000  Uiso   1.00
C156   C     0.39939   0.56279   0.88914   0.00000  Uiso   1.00
C157   C     0.35748   0.63797   0.89885   0.00000  Uiso   1.00
C158   C     0.31928   0.65595   0.02989   0.00000  Uiso   1.00
C159   C     0.53852   0.51120   0.80878   0.00000  Uiso   1.00
C160   C     0.61360   0.54303   0.75096   0.00000  Uiso   1.00
C161   C     0.69253   0.51760   0.81439   0.00000  Uiso   1.00
H162   H     0.45496   0.38592   0.06278   0.00000  Uiso   1.00
H163   H     0.37444   0.27205   0.91346   0.00000  Uiso   1.00
H164   H     0.36769   0.48261   0.22777   0.00000  Uiso   1.00
H165   H     0.62376   0.38769   0.07990   0.00000  Uiso   1.00
H166   H     0.28354   0.17019   0.69632   0.00000  Uiso   1.00
H167   H     0.26933   0.61418   0.35907   0.00000  Uiso   1.00
H168   H     0.80931   0.41401   0.04728   0.00000  Uiso   1.00
H169   H     0.44265   0.57373   0.66510   0.00000  Uiso   1.00
H170   H     0.36145   0.47016   0.49395   0.00000  Uiso   1.00
H171   H     0.35470   0.68072   0.80827   0.00000  Uiso   1.00
H172   H     0.61077   0.58580   0.66040   0.00000  Uiso   1.00
H173   H     0.27299   0.33099   0.35584   0.00000  Uiso   1.00
H174   H     0.25879   0.77498   0.01860   0.00000  Uiso   1.00
H175   H     0.79876   0.57480   0.70679   0.00000  Uiso   1.00
O176   O     0.22504   0.17908   0.42068   0.00000  Uiso   1.00
O177   O     0.20642   0.76158   0.29020   0.00000  Uiso   1.00
O178   O     0.91485   0.49896   0.88112   0.00000  Uiso   1.00
N179   N     0.29221   0.22224   0.63966   0.00000  Uiso   1.00
N180   N     0.27892   0.63734   0.25930   0.00000  Uiso   1.00
N181   N     0.78375   0.45021   0.96781   0.00000  Uiso   1.00
N182   N     0.28654   0.30876   0.45645   0.00000  Uiso   1.00
N183   N     0.27324   0.72386   0.07608   0.00000  Uiso   1.00
N184   N     0.77808   0.53674   0.78460   0.00000  Uiso   1.00
