data_job_02905
_audit_creation_date              2018-12-19
_audit_creation_method            'Materials Studio'
_symmetry_space_group_name_H-M    'P1'
_symmetry_Int_Tables_number       1
_symmetry_cell_setting            triclinic
loop_
_symmetry_equiv_pos_as_xyz
  x,y,z
_cell_length_a                    19.8724
_cell_length_b                    7.9750
_cell_length_c                    40.2445
_cell_angle_alpha                 90.0000
_cell_angle_beta                  90.0000
_cell_angle_gamma                 90.0000
loop_
_atom_site_label
_atom_site_type_symbol
_atom_site_fract_x
_atom_site_fract_y
_atom_site_fract_z
_atom_site_U_iso_or_equiv
_atom_site_adp_type
_atom_site_occupancy
C1     C     0.48702   0.62369   0.92335   0.00000  Uiso   1.00
C2     C     0.41101   0.59747   0.92330   0.00000  Uiso   1.00
C3     C     0.36355   0.70997   0.93525   0.00000  Uiso   1.00
C4     C     0.29648   0.66267   0.93296   0.00000  Uiso   1.00
C5     C     0.18132   0.64539   0.93498   0.00000  Uiso   1.00
C6     C     0.51664   0.47468   0.94206   0.00000  Uiso   1.00
C7     C     0.55800   0.48395   0.96979   0.00000  Uiso   1.00
C8     C     0.57985   0.33327   0.98329   0.00000  Uiso   1.00
C9     C     0.62873   0.12537   0.01443   0.00000  Uiso   1.00
C10    C     0.50962   0.60423   0.88735   0.00000  Uiso   1.00
C11    C     0.54509   0.72241   0.86907   0.00000  Uiso   1.00
C12    C     0.56105   0.68078   0.83651   0.00000  Uiso   1.00
C13    C     0.59902   0.67402   0.78270   0.00000  Uiso   1.00
C14    C     0.45230   0.33961   0.89803   0.00000  Uiso   1.00
C15    C     0.39215   0.44317   0.90954   0.00000  Uiso   1.00
C16    C     0.32513   0.39568   0.90723   0.00000  Uiso   1.00
C17    C     0.27758   0.50809   0.91918   0.00000  Uiso   1.00
C18    C     0.49778   0.32038   0.92831   0.00000  Uiso   1.00
C19    C     0.51958   0.16966   0.94177   0.00000  Uiso   1.00
C20    C     0.56095   0.17869   0.96951   0.00000  Uiso   1.00
C21    C     0.49076   0.44993   0.87359   0.00000  Uiso   1.00
C22    C     0.50666   0.40811   0.84105   0.00000  Uiso   1.00
C23    C     0.54215   0.52620   0.82273   0.00000  Uiso   1.00
H24    H     0.50171   0.74381   0.93406   0.00000  Uiso   1.00
H25    H     0.37817   0.82937   0.94590   0.00000  Uiso   1.00
H26    H     0.57259   0.60338   0.98043   0.00000  Uiso   1.00
H27    H     0.55968   0.84180   0.87973   0.00000  Uiso   1.00
H28    H     0.23288   0.85615   0.95296   0.00000  Uiso   1.00
H29    H     0.64285   0.37964   0.02576   0.00000  Uiso   1.00
H30    H     0.61563   0.88239   0.81342   0.00000  Uiso   1.00
H31    H     0.43761   0.21947   0.88732   0.00000  Uiso   1.00
H32    H     0.31055   0.27626   0.89658   0.00000  Uiso   1.00
H33    H     0.50497   0.05027   0.93112   0.00000  Uiso   1.00
H34    H     0.49206   0.28869   0.83042   0.00000  Uiso   1.00
H35    H     0.17800   0.40722   0.91294   0.00000  Uiso   1.00
H36    H     0.58797   0.93072   0.98574   0.00000  Uiso   1.00
H37    H     0.56075   0.43347   0.77340   0.00000  Uiso   1.00
O38    O     0.12301   0.67848   0.93990   0.00000  Uiso   1.00
O39    O     0.66089   0.05333   0.03541   0.00000  Uiso   1.00
O40    O     0.62517   0.71292   0.75682   0.00000  Uiso   1.00
N41    N     0.23740   0.74272   0.94226   0.00000  Uiso   1.00
N42    N     0.62069   0.29721   0.01033   0.00000  Uiso   1.00
N43    N     0.59526   0.76722   0.81181   0.00000  Uiso   1.00
N44    N     0.20787   0.50115   0.92073   0.00000  Uiso   1.00
N45    N     0.59116   0.05565   0.98880   0.00000  Uiso   1.00
N46    N     0.56572   0.52566   0.79028   0.00000  Uiso   1.00
C47    C     0.56201   0.37836   0.57787   0.00000  Uiso   1.00
C48    C     0.48601   0.40470   0.57776   0.00000  Uiso   1.00
C49    C     0.43859   0.29174   0.56593   0.00000  Uiso   1.00
C50    C     0.37152   0.33926   0.56803   0.00000  Uiso   1.00
C51    C     0.25638   0.35663   0.56580   0.00000  Uiso   1.00
C52    C     0.59179   0.52647   0.55894   0.00000  Uiso   1.00
C53    C     0.63332   0.51588   0.53130   0.00000  Uiso   1.00
C54    C     0.65530   0.66591   0.51756   0.00000  Uiso   1.00
C55    C     0.70443   0.87232   0.48614   0.00000  Uiso   1.00
C56    C     0.58438   0.39940   0.61387   0.00000  Uiso   1.00
C57    C     0.61971   0.28199   0.63241   0.00000  Uiso   1.00
C58    C     0.63546   0.32506   0.66492   0.00000  Uiso   1.00
C59    C     0.67310   0.33418   0.71878   0.00000  Uiso   1.00
C60    C     0.52720   0.66362   0.60264   0.00000  Uiso   1.00
C61    C     0.46710   0.55965   0.59121   0.00000  Uiso   1.00
C62    C     0.40008   0.60735   0.59333   0.00000  Uiso   1.00
C63    C     0.35257   0.49448   0.58151   0.00000  Uiso   1.00
C64    C     0.57288   0.68141   0.57239   0.00000  Uiso   1.00
C65    C     0.59481   0.83149   0.55870   0.00000  Uiso   1.00
C66    C     0.63636   0.82114   0.53104   0.00000  Uiso   1.00
C67    C     0.56548   0.55434   0.62732   0.00000  Uiso   1.00
C68    C     0.58119   0.59760   0.65981   0.00000  Uiso   1.00
C69    C     0.61652   0.48028   0.67840   0.00000  Uiso   1.00
H70    H     0.57674   0.25774   0.56739   0.00000  Uiso   1.00
H71    H     0.45325   0.17185   0.55552   0.00000  Uiso   1.00
H72    H     0.64795   0.39596   0.52089   0.00000  Uiso   1.00
H73    H     0.63433   0.16211   0.62199   0.00000  Uiso   1.00
H74    H     0.30800   0.14499   0.54828   0.00000  Uiso   1.00
H75    H     0.71856   0.61753   0.47528   0.00000  Uiso   1.00
H76    H     0.68985   0.12440   0.68845   0.00000  Uiso   1.00
H77    H     0.51248   0.78426   0.61311   0.00000  Uiso   1.00
H78    H     0.38546   0.72727   0.60375   0.00000  Uiso   1.00
H79    H     0.58017   0.95137   0.56912   0.00000  Uiso   1.00
H80    H     0.56655   0.71752   0.67021   0.00000  Uiso   1.00
H81    H     0.25298   0.59579   0.58742   0.00000  Uiso   1.00
H82    H     0.66355   0.06833   0.51442   0.00000  Uiso   1.00
H83    H     0.63483   0.57520   0.72760   0.00000  Uiso   1.00
O84    O     0.19810   0.32342   0.56085   0.00000  Uiso   1.00
O85    O     0.73675   0.94337   0.46508   0.00000  Uiso   1.00
O86    O     0.69907   0.29639   0.74477   0.00000  Uiso   1.00
N87    N     0.31248   0.25889   0.55878   0.00000  Uiso   1.00
N88    N     0.69633   0.70069   0.49052   0.00000  Uiso   1.00
N89    N     0.66949   0.23967   0.68983   0.00000  Uiso   1.00
N90    N     0.28288   0.50146   0.57984   0.00000  Uiso   1.00
N91    N     0.66672   0.94326   0.51159   0.00000  Uiso   1.00
N92    N     0.63989   0.48224   0.71089   0.00000  Uiso   1.00
C93    C     0.51298   0.37631   0.42335   0.00000  Uiso   1.00
C94    C     0.58899   0.40253   0.42330   0.00000  Uiso   1.00
C95    C     0.63645   0.29003   0.43525   0.00000  Uiso   1.00
C96    C     0.70352   0.33733   0.43296   0.00000  Uiso   1.00
C97    C     0.81868   0.35461   0.43498   0.00000  Uiso   1.00
C98    C     0.48336   0.52532   0.44206   0.00000  Uiso   1.00
C99    C     0.44200   0.51605   0.46979   0.00000  Uiso   1.00
C100   C     0.42015   0.66673   0.48329   0.00000  Uiso   1.00
C101   C     0.37127   0.87463   0.51443   0.00000  Uiso   1.00
C102   C     0.49038   0.39577   0.38735   0.00000  Uiso   1.00
C103   C     0.45491   0.27759   0.36907   0.00000  Uiso   1.00
C104   C     0.43895   0.31922   0.33651   0.00000  Uiso   1.00
C105   C     0.40098   0.32598   0.28270   0.00000  Uiso   1.00
C106   C     0.54770   0.66039   0.39803   0.00000  Uiso   1.00
C107   C     0.60785   0.55683   0.40954   0.00000  Uiso   1.00
C108   C     0.67487   0.60432   0.40723   0.00000  Uiso   1.00
C109   C     0.72242   0.49191   0.41918   0.00000  Uiso   1.00
C110   C     0.50222   0.67962   0.42831   0.00000  Uiso   1.00
C111   C     0.48042   0.83034   0.44177   0.00000  Uiso   1.00
C112   C     0.43905   0.82131   0.46951   0.00000  Uiso   1.00
C113   C     0.50924   0.55007   0.37359   0.00000  Uiso   1.00
C114   C     0.49334   0.59189   0.34105   0.00000  Uiso   1.00
C115   C     0.45785   0.47380   0.32273   0.00000  Uiso   1.00
H116   H     0.49829   0.25619   0.43406   0.00000  Uiso   1.00
H117   H     0.62183   0.17063   0.44590   0.00000  Uiso   1.00
H118   H     0.42741   0.39662   0.48043   0.00000  Uiso   1.00
H119   H     0.44032   0.15820   0.37973   0.00000  Uiso   1.00
H120   H     0.76712   0.14385   0.45296   0.00000  Uiso   1.00
H121   H     0.35715   0.62036   0.52576   0.00000  Uiso   1.00
H122   H     0.38437   0.11761   0.31342   0.00000  Uiso   1.00
H123   H     0.56239   0.78053   0.38732   0.00000  Uiso   1.00
H124   H     0.68945   0.72374   0.39658   0.00000  Uiso   1.00
H125   H     0.49503   0.94973   0.43112   0.00000  Uiso   1.00
H126   H     0.50794   0.71131   0.33042   0.00000  Uiso   1.00
H127   H     0.82200   0.59278   0.41294   0.00000  Uiso   1.00
H128   H     0.41203   0.06928   0.48574   0.00000  Uiso   1.00
H129   H     0.43925   0.56653   0.27340   0.00000  Uiso   1.00
O130   O     0.87699   0.32152   0.43990   0.00000  Uiso   1.00
O131   O     0.33911   0.94667   0.53541   0.00000  Uiso   1.00
O132   O     0.37483   0.28708   0.25682   0.00000  Uiso   1.00
N133   N     0.76260   0.25728   0.44226   0.00000  Uiso   1.00
N134   N     0.37931   0.70279   0.51033   0.00000  Uiso   1.00
N135   N     0.40474   0.23278   0.31181   0.00000  Uiso   1.00
N136   N     0.79213   0.49885   0.42073   0.00000  Uiso   1.00
N137   N     0.40884   0.94435   0.48880   0.00000  Uiso   1.00
N138   N     0.43428   0.47434   0.29028   0.00000  Uiso   1.00
C139   C     0.43799   0.62164   0.07787   0.00000  Uiso   1.00
C140   C     0.51399   0.59530   0.07776   0.00000  Uiso   1.00
C141   C     0.56141   0.70826   0.06593   0.00000  Uiso   1.00
C142   C     0.62848   0.66074   0.06803   0.00000  Uiso   1.00
C143   C     0.74362   0.64337   0.06580   0.00000  Uiso   1.00
C144   C     0.40821   0.47353   0.05894   0.00000  Uiso   1.00
C145   C     0.36668   0.48412   0.03130   0.00000  Uiso   1.00
C146   C     0.34470   0.33409   0.01756   0.00000  Uiso   1.00
C147   C     0.29557   0.12768   0.98614   0.00000  Uiso   1.00
C148   C     0.41562   0.60060   0.11387   0.00000  Uiso   1.00
C149   C     0.38029   0.71801   0.13241   0.00000  Uiso   1.00
C150   C     0.36454   0.67494   0.16492   0.00000  Uiso   1.00
C151   C     0.32690   0.66582   0.21878   0.00000  Uiso   1.00
C152   C     0.47280   0.33638   0.10264   0.00000  Uiso   1.00
C153   C     0.53290   0.44035   0.09121   0.00000  Uiso   1.00
C154   C     0.59992   0.39265   0.09333   0.00000  Uiso   1.00
C155   C     0.64743   0.50552   0.08151   0.00000  Uiso   1.00
C156   C     0.42712   0.31859   0.07239   0.00000  Uiso   1.00
C157   C     0.40519   0.16851   0.05870   0.00000  Uiso   1.00
C158   C     0.36364   0.17886   0.03104   0.00000  Uiso   1.00
C159   C     0.43452   0.44566   0.12732   0.00000  Uiso   1.00
C160   C     0.41881   0.40240   0.15981   0.00000  Uiso   1.00
C161   C     0.38348   0.51972   0.17840   0.00000  Uiso   1.00
H162   H     0.42326   0.74226   0.06739   0.00000  Uiso   1.00
H163   H     0.54675   0.82815   0.05552   0.00000  Uiso   1.00
H164   H     0.35205   0.60404   0.02089   0.00000  Uiso   1.00
H165   H     0.36567   0.83789   0.12199   0.00000  Uiso   1.00
H166   H     0.69200   0.85501   0.04828   0.00000  Uiso   1.00
H167   H     0.28144   0.38247   0.97528   0.00000  Uiso   1.00
H168   H     0.31015   0.87560   0.18845   0.00000  Uiso   1.00
H169   H     0.48752   0.21574   0.11311   0.00000  Uiso   1.00
H170   H     0.61454   0.27273   0.10375   0.00000  Uiso   1.00
H171   H     0.41983   0.04863   0.06912   0.00000  Uiso   1.00
H172   H     0.43345   0.28248   0.17021   0.00000  Uiso   1.00
H173   H     0.74702   0.40421   0.08742   0.00000  Uiso   1.00
H174   H     0.33645   0.93167   0.01442   0.00000  Uiso   1.00
H175   H     0.36517   0.42480   0.22760   0.00000  Uiso   1.00
O176   O     0.80190   0.67658   0.06085   0.00000  Uiso   1.00
O177   O     0.26325   0.05663   0.96508   0.00000  Uiso   1.00
O178   O     0.30093   0.70361   0.24477   0.00000  Uiso   1.00
N179   N     0.68752   0.74111   0.05878   0.00000  Uiso   1.00
N180   N     0.30367   0.29931   0.99052   0.00000  Uiso   1.00
N181   N     0.33051   0.76033   0.18983   0.00000  Uiso   1.00
N182   N     0.71712   0.49854   0.07984   0.00000  Uiso   1.00
N183   N     0.33328   0.05674   0.01159   0.00000  Uiso   1.00
N184   N     0.36011   0.51776   0.21089   0.00000  Uiso   1.00
C185   C     0.98702   0.87631   0.92335   0.00000  Uiso   1.00
C186   C     0.91101   0.90253   0.92330   0.00000  Uiso   1.00
C187   C     0.86355   0.79003   0.93525   0.00000  Uiso   1.00
C188   C     0.79648   0.83733   0.93296   0.00000  Uiso   1.00
C189   C     0.68132   0.85461   0.93498   0.00000  Uiso   1.00
C190   C     0.01664   0.02532   0.94206   0.00000  Uiso   1.00
C191   C     0.05800   0.01605   0.96979   0.00000  Uiso   1.00
C192   C     0.07985   0.16673   0.98329   0.00000  Uiso   1.00
C193   C     0.12873   0.37463   0.01443   0.00000  Uiso   1.00
C194   C     0.00962   0.89577   0.88735   0.00000  Uiso   1.00
C195   C     0.04509   0.77759   0.86907   0.00000  Uiso   1.00
C196   C     0.06105   0.81922   0.83651   0.00000  Uiso   1.00
C197   C     0.09902   0.82598   0.78270   0.00000  Uiso   1.00
C198   C     0.95230   0.16039   0.89803   0.00000  Uiso   1.00
C199   C     0.89215   0.05683   0.90954   0.00000  Uiso   1.00
C200   C     0.82513   0.10432   0.90723   0.00000  Uiso   1.00
C201   C     0.77758   0.99191   0.91918   0.00000  Uiso   1.00
C202   C     0.99778   0.17962   0.92831   0.00000  Uiso   1.00
C203   C     0.01958   0.33034   0.94177   0.00000  Uiso   1.00
C204   C     0.06095   0.32131   0.96951   0.00000  Uiso   1.00
C205   C     0.99076   0.05007   0.87359   0.00000  Uiso   1.00
C206   C     0.00666   0.09189   0.84105   0.00000  Uiso   1.00
C207   C     0.04215   0.97380   0.82273   0.00000  Uiso   1.00
H208   H     0.00171   0.75619   0.93406   0.00000  Uiso   1.00
H209   H     0.87817   0.67063   0.94590   0.00000  Uiso   1.00
H210   H     0.07259   0.89662   0.98043   0.00000  Uiso   1.00
H211   H     0.05968   0.65820   0.87973   0.00000  Uiso   1.00
H212   H     0.73288   0.64385   0.95296   0.00000  Uiso   1.00
H213   H     0.14285   0.12036   0.02576   0.00000  Uiso   1.00
H214   H     0.11563   0.61761   0.81342   0.00000  Uiso   1.00
H215   H     0.93761   0.28053   0.88732   0.00000  Uiso   1.00
H216   H     0.81055   0.22374   0.89658   0.00000  Uiso   1.00
H217   H     0.00497   0.44973   0.93112   0.00000  Uiso   1.00
H218   H     0.99206   0.21131   0.83042   0.00000  Uiso   1.00
H219   H     0.67800   0.09278   0.91294   0.00000  Uiso   1.00
H220   H     0.08797   0.56928   0.98574   0.00000  Uiso   1.00
H221   H     0.06075   0.06653   0.77340   0.00000  Uiso   1.00
O222   O     0.62301   0.82152   0.93990   0.00000  Uiso   1.00
O223   O     0.16089   0.44667   0.03541   0.00000  Uiso   1.00
O224   O     0.12517   0.78708   0.75682   0.00000  Uiso   1.00
N225   N     0.73740   0.75728   0.94226   0.00000  Uiso   1.00
N226   N     0.12069   0.20279   0.01033   0.00000  Uiso   1.00
N227   N     0.09526   0.73278   0.81181   0.00000  Uiso   1.00
N228   N     0.70787   0.99885   0.92073   0.00000  Uiso   1.00
N229   N     0.09116   0.44435   0.98880   0.00000  Uiso   1.00
N230   N     0.06572   0.97434   0.79028   0.00000  Uiso   1.00
C231   C     0.06201   0.12164   0.57787   0.00000  Uiso   1.00
C232   C     0.98601   0.09530   0.57776   0.00000  Uiso   1.00
C233   C     0.93859   0.20826   0.56593   0.00000  Uiso   1.00
C234   C     0.87152   0.16074   0.56803   0.00000  Uiso   1.00
C235   C     0.75638   0.14337   0.56580   0.00000  Uiso   1.00
C236   C     0.09179   0.97353   0.55894   0.00000  Uiso   1.00
C237   C     0.13332   0.98412   0.53130   0.00000  Uiso   1.00
C238   C     0.15530   0.83409   0.51756   0.00000  Uiso   1.00
C239   C     0.20443   0.62768   0.48614   0.00000  Uiso   1.00
C240   C     0.08438   0.10060   0.61387   0.00000  Uiso   1.00
C241   C     0.11971   0.21801   0.63241   0.00000  Uiso   1.00
C242   C     0.13546   0.17494   0.66492   0.00000  Uiso   1.00
C243   C     0.17310   0.16582   0.71878   0.00000  Uiso   1.00
C244   C     0.02720   0.83638   0.60264   0.00000  Uiso   1.00
C245   C     0.96710   0.94035   0.59121   0.00000  Uiso   1.00
C246   C     0.90008   0.89265   0.59333   0.00000  Uiso   1.00
C247   C     0.85257   0.00552   0.58151   0.00000  Uiso   1.00
C248   C     0.07288   0.81859   0.57239   0.00000  Uiso   1.00
C249   C     0.09481   0.66851   0.55870   0.00000  Uiso   1.00
C250   C     0.13636   0.67886   0.53104   0.00000  Uiso   1.00
C251   C     0.06548   0.94566   0.62732   0.00000  Uiso   1.00
C252   C     0.08119   0.90240   0.65981   0.00000  Uiso   1.00
C253   C     0.11652   0.01972   0.67840   0.00000  Uiso   1.00
H254   H     0.07674   0.24226   0.56739   0.00000  Uiso   1.00
H255   H     0.95325   0.32815   0.55552   0.00000  Uiso   1.00
H256   H     0.14795   0.10404   0.52089   0.00000  Uiso   1.00
H257   H     0.13433   0.33789   0.62199   0.00000  Uiso   1.00
H258   H     0.80800   0.35501   0.54828   0.00000  Uiso   1.00
H259   H     0.21856   0.88247   0.47528   0.00000  Uiso   1.00
H260   H     0.18985   0.37560   0.68845   0.00000  Uiso   1.00
H261   H     0.01248   0.71574   0.61311   0.00000  Uiso   1.00
H262   H     0.88546   0.77273   0.60375   0.00000  Uiso   1.00
H263   H     0.08017   0.54863   0.56912   0.00000  Uiso   1.00
H264   H     0.06655   0.78248   0.67021   0.00000  Uiso   1.00
H265   H     0.75298   0.90421   0.58742   0.00000  Uiso   1.00
H266   H     0.16355   0.43167   0.51442   0.00000  Uiso   1.00
H267   H     0.13483   0.92480   0.72760   0.00000  Uiso   1.00
O268   O     0.69810   0.17658   0.56085   0.00000  Uiso   1.00
O269   O     0.23675   0.55663   0.46508   0.00000  Uiso   1.00
O270   O     0.19907   0.20361   0.74477   0.00000  Uiso   1.00
N271   N     0.81248   0.24111   0.55878   0.00000  Uiso   1.00
N272   N     0.19633   0.79931   0.49052   0.00000  Uiso   1.00
N273   N     0.16949   0.26033   0.68983   0.00000  Uiso   1.00
N274   N     0.78288   0.99854   0.57984   0.00000  Uiso   1.00
N275   N     0.16672   0.55674   0.51159   0.00000  Uiso   1.00
N276   N     0.13989   0.01776   0.71089   0.00000  Uiso   1.00
C277   C     0.01298   0.12369   0.42335   0.00000  Uiso   1.00
C278   C     0.08899   0.09747   0.42330   0.00000  Uiso   1.00
C279   C     0.13645   0.20997   0.43525   0.00000  Uiso   1.00
C280   C     0.20352   0.16267   0.43296   0.00000  Uiso   1.00
C281   C     0.31868   0.14539   0.43498   0.00000  Uiso   1.00
C282   C     0.98336   0.97468   0.44206   0.00000  Uiso   1.00
C283   C     0.94200   0.98395   0.46979   0.00000  Uiso   1.00
C284   C     0.92015   0.83327   0.48329   0.00000  Uiso   1.00
C285   C     0.87127   0.62537   0.51443   0.00000  Uiso   1.00
C286   C     0.99038   0.10423   0.38735   0.00000  Uiso   1.00
C287   C     0.95491   0.22241   0.36907   0.00000  Uiso   1.00
C288   C     0.93895   0.18078   0.33651   0.00000  Uiso   1.00
C289   C     0.90098   0.17402   0.28270   0.00000  Uiso   1.00
C290   C     0.04770   0.83961   0.39803   0.00000  Uiso   1.00
C291   C     0.10785   0.94317   0.40954   0.00000  Uiso   1.00
C292   C     0.17487   0.89568   0.40723   0.00000  Uiso   1.00
C293   C     0.22242   0.00809   0.41918   0.00000  Uiso   1.00
C294   C     0.00222   0.82038   0.42831   0.00000  Uiso   1.00
C295   C     0.98042   0.66966   0.44177   0.00000  Uiso   1.00
C296   C     0.93905   0.67869   0.46951   0.00000  Uiso   1.00
C297   C     0.00924   0.94993   0.37359   0.00000  Uiso   1.00
C298   C     0.99334   0.90811   0.34105   0.00000  Uiso   1.00
C299   C     0.95785   0.02620   0.32273   0.00000  Uiso   1.00
H300   H     0.99829   0.24381   0.43406   0.00000  Uiso   1.00
H301   H     0.12183   0.32937   0.44590   0.00000  Uiso   1.00
H302   H     0.92741   0.10338   0.48043   0.00000  Uiso   1.00
H303   H     0.94032   0.34180   0.37973   0.00000  Uiso   1.00
H304   H     0.26712   0.35615   0.45296   0.00000  Uiso   1.00
H305   H     0.85715   0.87964   0.52576   0.00000  Uiso   1.00
H306   H     0.88437   0.38239   0.31342   0.00000  Uiso   1.00
H307   H     0.06239   0.71947   0.38732   0.00000  Uiso   1.00
H308   H     0.18945   0.77626   0.39658   0.00000  Uiso   1.00
H309   H     0.99503   0.55027   0.43112   0.00000  Uiso   1.00
H310   H     0.00794   0.78869   0.33042   0.00000  Uiso   1.00
H311   H     0.32200   0.90722   0.41294   0.00000  Uiso   1.00
H312   H     0.91203   0.43072   0.48574   0.00000  Uiso   1.00
H313   H     0.93925   0.93347   0.27340   0.00000  Uiso   1.00
O314   O     0.37699   0.17848   0.43990   0.00000  Uiso   1.00
O315   O     0.83911   0.55333   0.53541   0.00000  Uiso   1.00
O316   O     0.87483   0.21292   0.25682   0.00000  Uiso   1.00
N317   N     0.26260   0.24272   0.44226   0.00000  Uiso   1.00
N318   N     0.87931   0.79721   0.51033   0.00000  Uiso   1.00
N319   N     0.90474   0.26722   0.31181   0.00000  Uiso   1.00
N320   N     0.29213   0.00115   0.42073   0.00000  Uiso   1.00
N321   N     0.90884   0.55565   0.48880   0.00000  Uiso   1.00
N322   N     0.93428   0.02566   0.29028   0.00000  Uiso   1.00
C323   C     0.93799   0.87836   0.07787   0.00000  Uiso   1.00
C324   C     0.01399   0.90470   0.07776   0.00000  Uiso   1.00
C325   C     0.06141   0.79174   0.06593   0.00000  Uiso   1.00
C326   C     0.12848   0.83926   0.06803   0.00000  Uiso   1.00
C327   C     0.24362   0.85663   0.06580   0.00000  Uiso   1.00
C328   C     0.90821   0.02647   0.05894   0.00000  Uiso   1.00
C329   C     0.86668   0.01588   0.03130   0.00000  Uiso   1.00
C330   C     0.84470   0.16591   0.01756   0.00000  Uiso   1.00
C331   C     0.79557   0.37232   0.98614   0.00000  Uiso   1.00
C332   C     0.91562   0.89940   0.11387   0.00000  Uiso   1.00
C333   C     0.88029   0.78199   0.13241   0.00000  Uiso   1.00
C334   C     0.86454   0.82506   0.16492   0.00000  Uiso   1.00
C335   C     0.82690   0.83418   0.21878   0.00000  Uiso   1.00
C336   C     0.97280   0.16362   0.10264   0.00000  Uiso   1.00
C337   C     0.03290   0.05965   0.09121   0.00000  Uiso   1.00
C338   C     0.09992   0.10735   0.09333   0.00000  Uiso   1.00
C339   C     0.14743   0.99448   0.08151   0.00000  Uiso   1.00
C340   C     0.92712   0.18141   0.07239   0.00000  Uiso   1.00
C341   C     0.90519   0.33149   0.05870   0.00000  Uiso   1.00
C342   C     0.86364   0.32114   0.03104   0.00000  Uiso   1.00
C343   C     0.93452   0.05434   0.12732   0.00000  Uiso   1.00
C344   C     0.91881   0.09760   0.15981   0.00000  Uiso   1.00
C345   C     0.88348   0.98028   0.17840   0.00000  Uiso   1.00
H346   H     0.92326   0.75774   0.06739   0.00000  Uiso   1.00
H347   H     0.04675   0.67185   0.05552   0.00000  Uiso   1.00
H348   H     0.85205   0.89596   0.02089   0.00000  Uiso   1.00
H349   H     0.86567   0.66211   0.12199   0.00000  Uiso   1.00
H350   H     0.19200   0.64499   0.04828   0.00000  Uiso   1.00
H351   H     0.78144   0.11753   0.97528   0.00000  Uiso   1.00
H352   H     0.81015   0.62440   0.18845   0.00000  Uiso   1.00
H353   H     0.98752   0.28426   0.11311   0.00000  Uiso   1.00
H354   H     0.11454   0.22727   0.10375   0.00000  Uiso   1.00
H355   H     0.91983   0.45137   0.06912   0.00000  Uiso   1.00
H356   H     0.93345   0.21752   0.17021   0.00000  Uiso   1.00
H357   H     0.24702   0.09579   0.08742   0.00000  Uiso   1.00
H358   H     0.83645   0.56833   0.01442   0.00000  Uiso   1.00
H359   H     0.86517   0.07520   0.22760   0.00000  Uiso   1.00
O360   O     0.30190   0.82342   0.06085   0.00000  Uiso   1.00
O361   O     0.76325   0.44337   0.96508   0.00000  Uiso   1.00
O362   O     0.80093   0.79639   0.24477   0.00000  Uiso   1.00
N363   N     0.18752   0.75889   0.05878   0.00000  Uiso   1.00
N364   N     0.80367   0.20069   0.99052   0.00000  Uiso   1.00
N365   N     0.83051   0.73967   0.18983   0.00000  Uiso   1.00
N366   N     0.21712   0.00146   0.07984   0.00000  Uiso   1.00
N367   N     0.83328   0.44326   0.01159   0.00000  Uiso   1.00
N368   N     0.86011   0.98224   0.21089   0.00000  Uiso   1.00
