data_job_03030
_audit_creation_date              2018-12-19
_audit_creation_method            'Materials Studio'
_symmetry_space_group_name_H-M    'P1'
_symmetry_Int_Tables_number       1
_symmetry_cell_setting            triclinic
loop_
_symmetry_equiv_pos_as_xyz
  x,y,z
_cell_length_a                    19.3597
_cell_length_b                    7.5552
_cell_length_c                    28.0396
_cell_angle_alpha                 90.0000
_cell_angle_beta                  136.7620
_cell_angle_gamma                 90.0000
loop_
_atom_site_label
_atom_site_type_symbol
_atom_site_fract_x
_atom_site_fract_y
_atom_site_fract_z
_atom_site_U_iso_or_equiv
_atom_site_adp_type
_atom_site_occupancy
C1     C     0.86510   0.33913   0.82268   0.00000  Uiso   1.00
C2     C     0.84761   0.51123   0.84107   0.00000  Uiso   1.00
C3     C     0.82099   0.52487   0.87540   0.00000  Uiso   1.00
C4     C     0.80848   0.69432   0.88734   0.00000  Uiso   1.00
C5     C     0.77920   0.93869   0.91915   0.00000  Uiso   1.00
C6     C     0.79361   0.34401   0.74415   0.00000  Uiso   1.00
C7     C     0.72161   0.21704   0.69699   0.00000  Uiso   1.00
C8     C     0.66366   0.24572   0.62734   0.00000  Uiso   1.00
C9     C     0.55060   0.23040   0.50868   0.00000  Uiso   1.00
C10    C     0.97128   0.35175   0.85550   0.00000  Uiso   1.00
C11    C     0.04865   0.23128   0.90196   0.00000  Uiso   1.00
C12    C     0.14027   0.26646   0.92605   0.00000  Uiso   1.00
C13    C     0.30307   0.26317   0.98029   0.00000  Uiso   1.00
C14    C     0.89023   0.61580   0.78282   0.00000  Uiso   1.00
C15    C     0.86126   0.66150   0.81942   0.00000  Uiso   1.00
C16    C     0.84879   0.83098   0.83130   0.00000  Uiso   1.00
C17    C     0.82216   0.84487   0.86565   0.00000  Uiso   1.00
C18    C     0.80726   0.49427   0.72250   0.00000  Uiso   1.00
C19    C     0.74941   0.52314   0.65289   0.00000  Uiso   1.00
C20    C     0.67733   0.39626   0.60564   0.00000  Uiso   1.00
C21    C     0.98493   0.50203   0.83385   0.00000  Uiso   1.00
C22    C     0.07645   0.53739   0.85786   0.00000  Uiso   1.00
C23    C     0.15395   0.41700   0.90436   0.00000  Uiso   1.00
H24    H     0.85447   0.22213   0.83953   0.00000  Uiso   1.00
H25    H     0.81042   0.40854   0.89215   0.00000  Uiso   1.00
H26    H     0.71107   0.10075   0.71376   0.00000  Uiso   1.00
H27    H     0.03806   0.11500   0.91871   0.00000  Uiso   1.00
H28    H     0.76758   0.68149   0.94090   0.00000  Uiso   1.00
H29    H     0.55810   0.03246   0.56478   0.00000  Uiso   1.00
H30    H     0.24762   0.06250   0.99694   0.00000  Uiso   1.00
H31    H     0.90085   0.73280   0.76596   0.00000  Uiso   1.00
H32    H     0.85936   0.94725   0.81454   0.00000  Uiso   1.00
H33    H     0.76000   0.63945   0.63616   0.00000  Uiso   1.00
H34    H     0.08699   0.65370   0.84110   0.00000  Uiso   1.00
H35    H     0.80729   0.11872   0.87791   0.00000  Uiso   1.00
H36    H     0.59782   0.46968   0.50179   0.00000  Uiso   1.00
H37    H     0.28734   0.49973   0.93395   0.00000  Uiso   1.00
O38    O     0.75927   0.03196   0.94267   0.00000  Uiso   1.00
O39    O     0.48446   0.18044   0.44922   0.00000  Uiso   1.00
O40    O     0.38909   0.21986   0.01620   0.00000  Uiso   1.00
N41    N     0.78264   0.75496   0.91943   0.00000  Uiso   1.00
N42    N     0.58678   0.14817   0.56777   0.00000  Uiso   1.00
N43    N     0.23142   0.17623   0.97179   0.00000  Uiso   1.00
N44    N     0.80401   0.99023   0.88553   0.00000  Uiso   1.00
N45    N     0.60815   0.38344   0.53388   0.00000  Uiso   1.00
N46    N     0.25279   0.41150   0.93790   0.00000  Uiso   1.00
C47    C     0.13490   0.83913   0.67732   0.00000  Uiso   1.00
C48    C     0.15239   0.01123   0.65893   0.00000  Uiso   1.00
C49    C     0.17901   0.02487   0.62460   0.00000  Uiso   1.00
C50    C     0.19152   0.19432   0.61266   0.00000  Uiso   1.00
C51    C     0.22080   0.43869   0.58085   0.00000  Uiso   1.00
C52    C     0.20639   0.84401   0.75585   0.00000  Uiso   1.00
C53    C     0.27839   0.71704   0.80301   0.00000  Uiso   1.00
C54    C     0.33634   0.74572   0.87266   0.00000  Uiso   1.00
C55    C     0.44940   0.73040   0.99132   0.00000  Uiso   1.00
C56    C     0.02872   0.85175   0.64450   0.00000  Uiso   1.00
C57    C     0.95135   0.73128   0.59804   0.00000  Uiso   1.00
C58    C     0.85973   0.76646   0.57395   0.00000  Uiso   1.00
C59    C     0.69693   0.76317   0.51971   0.00000  Uiso   1.00
C60    C     0.10977   0.11580   0.71718   0.00000  Uiso   1.00
C61    C     0.13874   0.16150   0.68058   0.00000  Uiso   1.00
C62    C     0.15121   0.33098   0.66870   0.00000  Uiso   1.00
C63    C     0.17784   0.34487   0.63435   0.00000  Uiso   1.00
C64    C     0.19274   0.99427   0.77750   0.00000  Uiso   1.00
C65    C     0.25059   0.02314   0.84711   0.00000  Uiso   1.00
C66    C     0.32267   0.89626   0.89436   0.00000  Uiso   1.00
C67    C     0.01507   0.00203   0.66615   0.00000  Uiso   1.00
C68    C     0.92355   0.03739   0.64214   0.00000  Uiso   1.00
C69    C     0.84605   0.91700   0.59564   0.00000  Uiso   1.00
H70    H     0.14553   0.72213   0.66047   0.00000  Uiso   1.00
H71    H     0.18958   0.90854   0.60785   0.00000  Uiso   1.00
H72    H     0.28893   0.60075   0.78624   0.00000  Uiso   1.00
H73    H     0.96194   0.61500   0.58129   0.00000  Uiso   1.00
H74    H     0.23242   0.18149   0.55910   0.00000  Uiso   1.00
H75    H     0.44190   0.53246   0.93522   0.00000  Uiso   1.00
H76    H     0.75238   0.56250   0.50306   0.00000  Uiso   1.00
H77    H     0.09915   0.23280   0.73404   0.00000  Uiso   1.00
H78    H     0.14064   0.44725   0.68546   0.00000  Uiso   1.00
H79    H     0.24000   0.13945   0.86384   0.00000  Uiso   1.00
H80    H     0.91301   0.15370   0.65890   0.00000  Uiso   1.00
H81    H     0.19271   0.61872   0.62209   0.00000  Uiso   1.00
H82    H     0.40218   0.96968   0.99821   0.00000  Uiso   1.00
H83    H     0.71266   0.99973   0.56605   0.00000  Uiso   1.00
O84    O     0.24073   0.53196   0.55733   0.00000  Uiso   1.00
O85    O     0.51554   0.68044   0.05078   0.00000  Uiso   1.00
O86    O     0.61091   0.71986   0.48380   0.00000  Uiso   1.00
N87    N     0.21736   0.25496   0.58057   0.00000  Uiso   1.00
N88    N     0.41322   0.64817   0.93223   0.00000  Uiso   1.00
N89    N     0.76858   0.67623   0.52821   0.00000  Uiso   1.00
N90    N     0.19599   0.49023   0.61447   0.00000  Uiso   1.00
N91    N     0.39185   0.88344   0.96612   0.00000  Uiso   1.00
N92    N     0.74721   0.91150   0.56210   0.00000  Uiso   1.00
C93    C     0.13490   0.66087   0.17732   0.00000  Uiso   1.00
C94    C     0.15239   0.48877   0.15893   0.00000  Uiso   1.00
C95    C     0.17901   0.47513   0.12460   0.00000  Uiso   1.00
C96    C     0.19152   0.30568   0.11266   0.00000  Uiso   1.00
C97    C     0.22080   0.06131   0.08085   0.00000  Uiso   1.00
C98    C     0.20639   0.65599   0.25585   0.00000  Uiso   1.00
C99    C     0.27839   0.78296   0.30301   0.00000  Uiso   1.00
C100   C     0.33634   0.75428   0.37266   0.00000  Uiso   1.00
C101   C     0.44940   0.76960   0.49132   0.00000  Uiso   1.00
C102   C     0.02872   0.64825   0.14450   0.00000  Uiso   1.00
C103   C     0.95135   0.76872   0.09804   0.00000  Uiso   1.00
C104   C     0.85973   0.73354   0.07395   0.00000  Uiso   1.00
C105   C     0.69693   0.73683   0.01971   0.00000  Uiso   1.00
C106   C     0.10977   0.38420   0.21718   0.00000  Uiso   1.00
C107   C     0.13874   0.33850   0.18058   0.00000  Uiso   1.00
C108   C     0.15121   0.16902   0.16870   0.00000  Uiso   1.00
C109   C     0.17784   0.15513   0.13435   0.00000  Uiso   1.00
C110   C     0.19274   0.50573   0.27750   0.00000  Uiso   1.00
C111   C     0.25059   0.47686   0.34711   0.00000  Uiso   1.00
C112   C     0.32267   0.60374   0.39436   0.00000  Uiso   1.00
C113   C     0.01507   0.49797   0.16615   0.00000  Uiso   1.00
C114   C     0.92355   0.46261   0.14214   0.00000  Uiso   1.00
C115   C     0.84605   0.58300   0.09564   0.00000  Uiso   1.00
H116   H     0.14553   0.77787   0.16047   0.00000  Uiso   1.00
H117   H     0.18958   0.59146   0.10785   0.00000  Uiso   1.00
H118   H     0.28893   0.89925   0.28624   0.00000  Uiso   1.00
H119   H     0.96194   0.88500   0.08129   0.00000  Uiso   1.00
H120   H     0.23242   0.31851   0.05910   0.00000  Uiso   1.00
H121   H     0.44190   0.96754   0.43522   0.00000  Uiso   1.00
H122   H     0.75238   0.93750   0.00306   0.00000  Uiso   1.00
H123   H     0.09915   0.26720   0.23404   0.00000  Uiso   1.00
H124   H     0.14064   0.05275   0.18546   0.00000  Uiso   1.00
H125   H     0.24000   0.36055   0.36384   0.00000  Uiso   1.00
H126   H     0.91301   0.34630   0.15890   0.00000  Uiso   1.00
H127   H     0.19271   0.88128   0.12209   0.00000  Uiso   1.00
H128   H     0.40218   0.53032   0.49821   0.00000  Uiso   1.00
H129   H     0.71266   0.50027   0.06605   0.00000  Uiso   1.00
O130   O     0.24073   0.96804   0.05733   0.00000  Uiso   1.00
O131   O     0.51554   0.81956   0.55078   0.00000  Uiso   1.00
O132   O     0.61091   0.78014   0.98380   0.00000  Uiso   1.00
N133   N     0.21736   0.24504   0.08057   0.00000  Uiso   1.00
N134   N     0.41322   0.85183   0.43223   0.00000  Uiso   1.00
N135   N     0.76858   0.82377   0.02821   0.00000  Uiso   1.00
N136   N     0.19599   0.00977   0.11447   0.00000  Uiso   1.00
N137   N     0.39185   0.61656   0.46612   0.00000  Uiso   1.00
N138   N     0.74721   0.58850   0.06210   0.00000  Uiso   1.00
C139   C     0.86510   0.16087   0.32268   0.00000  Uiso   1.00
C140   C     0.84761   0.98877   0.34107   0.00000  Uiso   1.00
C141   C     0.82099   0.97513   0.37540   0.00000  Uiso   1.00
C142   C     0.80848   0.80568   0.38734   0.00000  Uiso   1.00
C143   C     0.77920   0.56131   0.41915   0.00000  Uiso   1.00
C144   C     0.79361   0.15599   0.24415   0.00000  Uiso   1.00
C145   C     0.72161   0.28296   0.19699   0.00000  Uiso   1.00
C146   C     0.66366   0.25428   0.12734   0.00000  Uiso   1.00
C147   C     0.55060   0.26960   0.00868   0.00000  Uiso   1.00
C148   C     0.97128   0.14825   0.35550   0.00000  Uiso   1.00
C149   C     0.04865   0.26872   0.40196   0.00000  Uiso   1.00
C150   C     0.14027   0.23354   0.42605   0.00000  Uiso   1.00
C151   C     0.30307   0.23683   0.48029   0.00000  Uiso   1.00
C152   C     0.89023   0.88420   0.28282   0.00000  Uiso   1.00
C153   C     0.86126   0.83850   0.31942   0.00000  Uiso   1.00
C154   C     0.84879   0.66902   0.33130   0.00000  Uiso   1.00
C155   C     0.82216   0.65513   0.36565   0.00000  Uiso   1.00
C156   C     0.80726   0.00573   0.22250   0.00000  Uiso   1.00
C157   C     0.74941   0.97686   0.15289   0.00000  Uiso   1.00
C158   C     0.67733   0.10374   0.10564   0.00000  Uiso   1.00
C159   C     0.98493   0.99797   0.33385   0.00000  Uiso   1.00
C160   C     0.07645   0.96261   0.35786   0.00000  Uiso   1.00
C161   C     0.15395   0.08300   0.40436   0.00000  Uiso   1.00
H162   H     0.85447   0.27787   0.33953   0.00000  Uiso   1.00
H163   H     0.81042   0.09146   0.39215   0.00000  Uiso   1.00
H164   H     0.71107   0.39925   0.21376   0.00000  Uiso   1.00
H165   H     0.03806   0.38500   0.41871   0.00000  Uiso   1.00
H166   H     0.76758   0.81851   0.44090   0.00000  Uiso   1.00
H167   H     0.55810   0.46754   0.06478   0.00000  Uiso   1.00
H168   H     0.24762   0.43750   0.49694   0.00000  Uiso   1.00
H169   H     0.90085   0.76720   0.26596   0.00000  Uiso   1.00
H170   H     0.85936   0.55275   0.31454   0.00000  Uiso   1.00
H171   H     0.76000   0.86055   0.13616   0.00000  Uiso   1.00
H172   H     0.08699   0.84630   0.34110   0.00000  Uiso   1.00
H173   H     0.80729   0.38128   0.37791   0.00000  Uiso   1.00
H174   H     0.59782   0.03032   0.00179   0.00000  Uiso   1.00
H175   H     0.28734   0.00027   0.43395   0.00000  Uiso   1.00
O176   O     0.75927   0.46804   0.44267   0.00000  Uiso   1.00
O177   O     0.48446   0.31956   0.94922   0.00000  Uiso   1.00
O178   O     0.38909   0.28014   0.51620   0.00000  Uiso   1.00
N179   N     0.78264   0.74504   0.41943   0.00000  Uiso   1.00
N180   N     0.58678   0.35183   0.06777   0.00000  Uiso   1.00
N181   N     0.23142   0.32377   0.47179   0.00000  Uiso   1.00
N182   N     0.80401   0.50977   0.38553   0.00000  Uiso   1.00
N183   N     0.60815   0.11656   0.03388   0.00000  Uiso   1.00
N184   N     0.25279   0.08850   0.43790   0.00000  Uiso   1.00
