data_job_05751
_audit_creation_date              2018-12-19
_audit_creation_method            'Materials Studio'
_symmetry_space_group_name_H-M    'P1'
_symmetry_Int_Tables_number       1
_symmetry_cell_setting            triclinic
loop_
_symmetry_equiv_pos_as_xyz
  x,y,z
_cell_length_a                    11.3612
_cell_length_b                    11.3612
_cell_length_c                    66.4161
_cell_angle_alpha                 90.0000
_cell_angle_beta                  90.0000
_cell_angle_gamma                 120.0000
loop_
_atom_site_label
_atom_site_type_symbol
_atom_site_fract_x
_atom_site_fract_y
_atom_site_fract_z
_atom_site_U_iso_or_equiv
_atom_site_adp_type
_atom_site_occupancy
C1     C     0.14276   0.31082   0.30859   0.00000  Uiso   1.00
C2     C     0.29234   0.39849   0.30300   0.00000  Uiso   1.00
C3     C     0.39514   0.37144   0.30795   0.00000  Uiso   1.00
C4     C     0.52538   0.46415   0.30144   0.00000  Uiso   1.00
C5     C     0.75365   0.58275   0.29445   0.00000  Uiso   1.00
C6     C     0.10498   0.40375   0.31999   0.00000  Uiso   1.00
C7     C     0.05024   0.38108   0.33924   0.00000  Uiso   1.00
C8     C     0.02274   0.47822   0.34703   0.00000  Uiso   1.00
C9     C     0.96004   0.60491   0.36641   0.00000  Uiso   1.00
C10    C     0.06418   0.27604   0.28882   0.00000  Uiso   1.00
C11    C     0.97510   0.14600   0.28185   0.00000  Uiso   1.00
C12    C     0.91323   0.13562   0.26339   0.00000  Uiso   1.00
C13    C     0.78718   0.06403   0.23437   0.00000  Uiso   1.00
C14    C     0.19125   0.52360   0.28821   0.00000  Uiso   1.00
C15    C     0.31868   0.51407   0.29193   0.00000  Uiso   1.00
C16    C     0.44879   0.60685   0.28541   0.00000  Uiso   1.00
C17    C     0.55177   0.57993   0.29035   0.00000  Uiso   1.00
C18    C     0.13132   0.51932   0.30893   0.00000  Uiso   1.00
C19    C     0.10389   0.61650   0.31669   0.00000  Uiso   1.00
C20    C     0.04913   0.59400   0.33594   0.00000  Uiso   1.00
C21    C     0.09052   0.39161   0.27775   0.00000  Uiso   1.00
C22    C     0.02876   0.38142   0.25930   0.00000  Uiso   1.00
C23    C     0.93961   0.25140   0.25230   0.00000  Uiso   1.00
H24    H     0.12224   0.22084   0.31721   0.00000  Uiso   1.00
H25    H     0.37472   0.28199   0.31652   0.00000  Uiso   1.00
H26    H     0.02985   0.29163   0.34780   0.00000  Uiso   1.00
H27    H     0.95474   0.05659   0.29042   0.00000  Uiso   1.00
H28    H     0.66625   0.40078   0.31088   0.00000  Uiso   1.00
H29    H     0.93905   0.42109   0.37683   0.00000  Uiso   1.00
H30    H     0.78065   0.92545   0.25583   0.00000  Uiso   1.00
H31    H     0.21175   0.61358   0.27959   0.00000  Uiso   1.00
H32    H     0.46915   0.69628   0.27684   0.00000  Uiso   1.00
H33    H     0.12428   0.70592   0.30812   0.00000  Uiso   1.00
H34    H     0.04917   0.47088   0.25074   0.00000  Uiso   1.00
H35    H     0.74290   0.73703   0.27868   0.00000  Uiso   1.00
H36    H     0.01568   0.75734   0.34462   0.00000  Uiso   1.00
H37    H     0.85729   0.26171   0.22362   0.00000  Uiso   1.00
O38    O     0.87228   0.61624   0.29365   0.00000  Uiso   1.00
O39    O     0.91820   0.64287   0.38017   0.00000  Uiso   1.00
O40    O     0.71039   0.99261   0.22142   0.00000  Uiso   1.00
N41    N     0.64896   0.46855   0.30368   0.00000  Uiso   1.00
N42    N     0.96909   0.48755   0.36533   0.00000  Uiso   1.00
N43    N     0.82097   0.02417   0.25221   0.00000  Uiso   1.00
N44    N     0.69020   0.64949   0.28635   0.00000  Uiso   1.00
N45    N     0.01033   0.66848   0.34800   0.00000  Uiso   1.00
N46    N     0.86221   0.20511   0.23488   0.00000  Uiso   1.00
C47    C     0.68918   0.83194   0.97526   0.00000  Uiso   1.00
C48    C     0.60151   0.89385   0.96967   0.00000  Uiso   1.00
C49    C     0.62856   0.02370   0.97462   0.00000  Uiso   1.00
C50    C     0.53585   0.06123   0.96811   0.00000  Uiso   1.00
C51    C     0.41725   0.17090   0.96112   0.00000  Uiso   1.00
C52    C     0.59625   0.70124   0.98666   0.00000  Uiso   1.00
C53    C     0.61892   0.66915   0.00590   0.00000  Uiso   1.00
C54    C     0.52178   0.54453   0.01369   0.00000  Uiso   1.00
C55    C     0.39509   0.35513   0.03308   0.00000  Uiso   1.00
C56    C     0.72396   0.78814   0.95548   0.00000  Uiso   1.00
C57    C     0.85400   0.82910   0.94851   0.00000  Uiso   1.00
C58    C     0.86438   0.77761   0.93005   0.00000  Uiso   1.00
C59    C     0.93597   0.72315   0.90104   0.00000  Uiso   1.00
C60    C     0.47640   0.66765   0.95488   0.00000  Uiso   1.00
C61    C     0.48593   0.80461   0.95860   0.00000  Uiso   1.00
C62    C     0.39315   0.84194   0.95207   0.00000  Uiso   1.00
C63    C     0.42007   0.97184   0.95702   0.00000  Uiso   1.00
C64    C     0.48068   0.61200   0.97559   0.00000  Uiso   1.00
C65    C     0.38350   0.48739   0.98335   0.00000  Uiso   1.00
C66    C     0.40600   0.45513   0.00260   0.00000  Uiso   1.00
C67    C     0.60839   0.69891   0.94441   0.00000  Uiso   1.00
C68    C     0.61858   0.64734   0.92596   0.00000  Uiso   1.00
C69    C     0.74860   0.68821   0.91897   0.00000  Uiso   1.00
H70    H     0.77916   0.90140   0.98388   0.00000  Uiso   1.00
H71    H     0.71801   0.09273   0.98319   0.00000  Uiso   1.00
H72    H     0.70837   0.73822   0.01446   0.00000  Uiso   1.00
H73    H     0.94341   0.89815   0.95708   0.00000  Uiso   1.00
H74    H     0.59922   0.26548   0.97755   0.00000  Uiso   1.00
H75    H     0.57891   0.51796   0.04349   0.00000  Uiso   1.00
H76    H     0.07455   0.85520   0.92249   0.00000  Uiso   1.00
H77    H     0.38642   0.59817   0.94626   0.00000  Uiso   1.00
H78    H     0.30372   0.77287   0.94351   0.00000  Uiso   1.00
H79    H     0.29408   0.41836   0.97478   0.00000  Uiso   1.00
H80    H     0.52912   0.57829   0.91740   0.00000  Uiso   1.00
H81    H     0.26297   0.00586   0.94534   0.00000  Uiso   1.00
H82    H     0.24266   0.25835   0.01129   0.00000  Uiso   1.00
H83    H     0.73829   0.59559   0.89029   0.00000  Uiso   1.00
O84    O     0.38376   0.25604   0.96032   0.00000  Uiso   1.00
O85    O     0.35713   0.27533   0.04683   0.00000  Uiso   1.00
O86    O     0.00739   0.71778   0.88809   0.00000  Uiso   1.00
N87    N     0.53145   0.18041   0.97034   0.00000  Uiso   1.00
N88    N     0.51245   0.48154   0.03200   0.00000  Uiso   1.00
N89    N     0.97583   0.79680   0.91888   0.00000  Uiso   1.00
N90    N     0.35051   0.04072   0.95301   0.00000  Uiso   1.00
N91    N     0.33152   0.34185   0.01467   0.00000  Uiso   1.00
N92    N     0.79489   0.65711   0.90155   0.00000  Uiso   1.00
C93    C     0.16806   0.85724   0.64192   0.00000  Uiso   1.00
C94    C     0.10615   0.70766   0.63633   0.00000  Uiso   1.00
C95    C     0.97630   0.60486   0.64129   0.00000  Uiso   1.00
C96    C     0.93877   0.47462   0.63477   0.00000  Uiso   1.00
C97    C     0.82910   0.24635   0.62778   0.00000  Uiso   1.00
C98    C     0.29876   0.89502   0.65333   0.00000  Uiso   1.00
C99    C     0.33085   0.94976   0.67257   0.00000  Uiso   1.00
C100   C     0.45547   0.97726   0.68036   0.00000  Uiso   1.00
C101   C     0.64487   0.03996   0.69975   0.00000  Uiso   1.00
C102   C     0.21186   0.93582   0.62215   0.00000  Uiso   1.00
C103   C     0.17090   0.02490   0.61518   0.00000  Uiso   1.00
C104   C     0.22239   0.08677   0.59672   0.00000  Uiso   1.00
C105   C     0.27685   0.21282   0.56770   0.00000  Uiso   1.00
C106   C     0.33235   0.80875   0.62155   0.00000  Uiso   1.00
C107   C     0.19539   0.68132   0.62526   0.00000  Uiso   1.00
C108   C     0.15806   0.55121   0.61874   0.00000  Uiso   1.00
C109   C     0.02816   0.44823   0.62368   0.00000  Uiso   1.00
C110   C     0.38800   0.86868   0.64226   0.00000  Uiso   1.00
C111   C     0.51261   0.89611   0.65002   0.00000  Uiso   1.00
C112   C     0.54487   0.95087   0.66927   0.00000  Uiso   1.00
C113   C     0.30109   0.90948   0.61108   0.00000  Uiso   1.00
C114   C     0.35266   0.97124   0.59263   0.00000  Uiso   1.00
C115   C     0.31179   0.06039   0.58563   0.00000  Uiso   1.00
H116   H     0.09860   0.87776   0.65054   0.00000  Uiso   1.00
H117   H     0.90727   0.62528   0.64986   0.00000  Uiso   1.00
H118   H     0.26178   0.97015   0.68113   0.00000  Uiso   1.00
H119   H     0.10185   0.04526   0.62375   0.00000  Uiso   1.00
H120   H     0.73452   0.33375   0.64422   0.00000  Uiso   1.00
H121   H     0.48204   0.06095   0.71016   0.00000  Uiso   1.00
H122   H     0.14480   0.21935   0.58916   0.00000  Uiso   1.00
H123   H     0.40183   0.78825   0.61293   0.00000  Uiso   1.00
H124   H     0.22713   0.53085   0.61017   0.00000  Uiso   1.00
H125   H     0.58164   0.87572   0.64145   0.00000  Uiso   1.00
H126   H     0.42171   0.95083   0.58407   0.00000  Uiso   1.00
H127   H     0.99414   0.25710   0.61201   0.00000  Uiso   1.00
H128   H     0.74165   0.98432   0.67795   0.00000  Uiso   1.00
H129   H     0.40441   0.14271   0.55695   0.00000  Uiso   1.00
O130   O     0.74396   0.12772   0.62699   0.00000  Uiso   1.00
O131   O     0.72467   0.08180   0.71350   0.00000  Uiso   1.00
O132   O     0.28222   0.28961   0.55475   0.00000  Uiso   1.00
N133   N     0.81959   0.35104   0.63701   0.00000  Uiso   1.00
N134   N     0.51846   0.03091   0.69867   0.00000  Uiso   1.00
N135   N     0.20320   0.17903   0.58554   0.00000  Uiso   1.00
N136   N     0.95928   0.30980   0.61968   0.00000  Uiso   1.00
N137   N     0.65815   0.98967   0.68134   0.00000  Uiso   1.00
N138   N     0.34289   0.13779   0.56821   0.00000  Uiso   1.00
C139   C     0.85724   0.68918   0.80859   0.00000  Uiso   1.00
C140   C     0.70766   0.60151   0.80300   0.00000  Uiso   1.00
C141   C     0.60486   0.62856   0.80795   0.00000  Uiso   1.00
C142   C     0.47462   0.53585   0.80144   0.00000  Uiso   1.00
C143   C     0.24635   0.41725   0.79445   0.00000  Uiso   1.00
C144   C     0.89502   0.59625   0.81999   0.00000  Uiso   1.00
C145   C     0.94976   0.61892   0.83924   0.00000  Uiso   1.00
C146   C     0.97726   0.52178   0.84703   0.00000  Uiso   1.00
C147   C     0.03996   0.39509   0.86641   0.00000  Uiso   1.00
C148   C     0.93582   0.72396   0.78882   0.00000  Uiso   1.00
C149   C     0.02490   0.85400   0.78185   0.00000  Uiso   1.00
C150   C     0.08677   0.86438   0.76339   0.00000  Uiso   1.00
C151   C     0.21282   0.93597   0.73437   0.00000  Uiso   1.00
C152   C     0.80875   0.47640   0.78821   0.00000  Uiso   1.00
C153   C     0.68132   0.48593   0.79193   0.00000  Uiso   1.00
C154   C     0.55121   0.39315   0.78541   0.00000  Uiso   1.00
C155   C     0.44823   0.42007   0.79035   0.00000  Uiso   1.00
C156   C     0.86868   0.48068   0.80893   0.00000  Uiso   1.00
C157   C     0.89611   0.38350   0.81669   0.00000  Uiso   1.00
C158   C     0.95087   0.40600   0.83594   0.00000  Uiso   1.00
C159   C     0.90948   0.60839   0.77775   0.00000  Uiso   1.00
C160   C     0.97124   0.61858   0.75930   0.00000  Uiso   1.00
C161   C     0.06039   0.74860   0.75230   0.00000  Uiso   1.00
H162   H     0.87776   0.77916   0.81721   0.00000  Uiso   1.00
H163   H     0.62528   0.71801   0.81652   0.00000  Uiso   1.00
H164   H     0.97015   0.70837   0.84780   0.00000  Uiso   1.00
H165   H     0.04526   0.94341   0.79042   0.00000  Uiso   1.00
H166   H     0.33375   0.59922   0.81088   0.00000  Uiso   1.00
H167   H     0.06095   0.57891   0.87683   0.00000  Uiso   1.00
H168   H     0.21935   0.07455   0.75583   0.00000  Uiso   1.00
H169   H     0.78825   0.38642   0.77959   0.00000  Uiso   1.00
H170   H     0.53085   0.30372   0.77684   0.00000  Uiso   1.00
H171   H     0.87572   0.29408   0.80812   0.00000  Uiso   1.00
H172   H     0.95083   0.52912   0.75074   0.00000  Uiso   1.00
H173   H     0.25710   0.26297   0.77868   0.00000  Uiso   1.00
H174   H     0.98432   0.24266   0.84462   0.00000  Uiso   1.00
H175   H     0.14271   0.73829   0.72362   0.00000  Uiso   1.00
O176   O     0.12772   0.38376   0.79365   0.00000  Uiso   1.00
O177   O     0.08180   0.35713   0.88017   0.00000  Uiso   1.00
O178   O     0.28961   0.00739   0.72142   0.00000  Uiso   1.00
N179   N     0.35104   0.53145   0.80368   0.00000  Uiso   1.00
N180   N     0.03091   0.51245   0.86533   0.00000  Uiso   1.00
N181   N     0.17903   0.97583   0.75221   0.00000  Uiso   1.00
N182   N     0.30980   0.35051   0.78635   0.00000  Uiso   1.00
N183   N     0.98967   0.33152   0.84800   0.00000  Uiso   1.00
N184   N     0.13779   0.79489   0.73488   0.00000  Uiso   1.00
C185   C     0.31082   0.16806   0.47526   0.00000  Uiso   1.00
C186   C     0.39849   0.10615   0.46967   0.00000  Uiso   1.00
C187   C     0.37144   0.97630   0.47462   0.00000  Uiso   1.00
C188   C     0.46415   0.93877   0.46811   0.00000  Uiso   1.00
C189   C     0.58275   0.82910   0.46112   0.00000  Uiso   1.00
C190   C     0.40375   0.29876   0.48666   0.00000  Uiso   1.00
C191   C     0.38108   0.33085   0.50590   0.00000  Uiso   1.00
C192   C     0.47822   0.45547   0.51369   0.00000  Uiso   1.00
C193   C     0.60491   0.64487   0.53308   0.00000  Uiso   1.00
C194   C     0.27604   0.21186   0.45548   0.00000  Uiso   1.00
C195   C     0.14600   0.17090   0.44851   0.00000  Uiso   1.00
C196   C     0.13562   0.22239   0.43005   0.00000  Uiso   1.00
C197   C     0.06403   0.27685   0.40104   0.00000  Uiso   1.00
C198   C     0.52360   0.33235   0.45488   0.00000  Uiso   1.00
C199   C     0.51407   0.19539   0.45860   0.00000  Uiso   1.00
C200   C     0.60685   0.15806   0.45207   0.00000  Uiso   1.00
C201   C     0.57993   0.02816   0.45702   0.00000  Uiso   1.00
C202   C     0.51932   0.38800   0.47559   0.00000  Uiso   1.00
C203   C     0.61650   0.51261   0.48335   0.00000  Uiso   1.00
C204   C     0.59400   0.54487   0.50260   0.00000  Uiso   1.00
C205   C     0.39161   0.30109   0.44441   0.00000  Uiso   1.00
C206   C     0.38142   0.35266   0.42596   0.00000  Uiso   1.00
C207   C     0.25140   0.31179   0.41897   0.00000  Uiso   1.00
H208   H     0.22084   0.09860   0.48388   0.00000  Uiso   1.00
H209   H     0.28199   0.90727   0.48319   0.00000  Uiso   1.00
H210   H     0.29163   0.26178   0.51446   0.00000  Uiso   1.00
H211   H     0.05659   0.10185   0.45708   0.00000  Uiso   1.00
H212   H     0.40078   0.73452   0.47755   0.00000  Uiso   1.00
H213   H     0.42109   0.48204   0.54349   0.00000  Uiso   1.00
H214   H     0.92545   0.14480   0.42249   0.00000  Uiso   1.00
H215   H     0.61358   0.40183   0.44626   0.00000  Uiso   1.00
H216   H     0.69628   0.22713   0.44351   0.00000  Uiso   1.00
H217   H     0.70592   0.58164   0.47478   0.00000  Uiso   1.00
H218   H     0.47088   0.42171   0.41740   0.00000  Uiso   1.00
H219   H     0.73703   0.99414   0.44534   0.00000  Uiso   1.00
H220   H     0.75734   0.74165   0.51129   0.00000  Uiso   1.00
H221   H     0.26171   0.40441   0.39029   0.00000  Uiso   1.00
O222   O     0.61624   0.74396   0.46032   0.00000  Uiso   1.00
O223   O     0.64287   0.72467   0.54683   0.00000  Uiso   1.00
O224   O     0.99261   0.28222   0.38809   0.00000  Uiso   1.00
N225   N     0.46855   0.81959   0.47034   0.00000  Uiso   1.00
N226   N     0.48755   0.51846   0.53200   0.00000  Uiso   1.00
N227   N     0.02417   0.20320   0.41888   0.00000  Uiso   1.00
N228   N     0.64949   0.95928   0.45301   0.00000  Uiso   1.00
N229   N     0.66848   0.65815   0.51467   0.00000  Uiso   1.00
N230   N     0.20511   0.34289   0.40155   0.00000  Uiso   1.00
C231   C     0.83194   0.14276   0.14192   0.00000  Uiso   1.00
C232   C     0.89385   0.29234   0.13633   0.00000  Uiso   1.00
C233   C     0.02370   0.39514   0.14129   0.00000  Uiso   1.00
C234   C     0.06123   0.52538   0.13477   0.00000  Uiso   1.00
C235   C     0.17090   0.75365   0.12778   0.00000  Uiso   1.00
C236   C     0.70124   0.10498   0.15333   0.00000  Uiso   1.00
C237   C     0.66915   0.05024   0.17257   0.00000  Uiso   1.00
C238   C     0.54453   0.02274   0.18036   0.00000  Uiso   1.00
C239   C     0.35513   0.96004   0.19975   0.00000  Uiso   1.00
C240   C     0.78814   0.06418   0.12215   0.00000  Uiso   1.00
C241   C     0.82910   0.97510   0.11518   0.00000  Uiso   1.00
C242   C     0.77761   0.91323   0.09672   0.00000  Uiso   1.00
C243   C     0.72315   0.78718   0.06770   0.00000  Uiso   1.00
C244   C     0.66765   0.19125   0.12155   0.00000  Uiso   1.00
C245   C     0.80461   0.31868   0.12526   0.00000  Uiso   1.00
C246   C     0.84194   0.44879   0.11874   0.00000  Uiso   1.00
C247   C     0.97184   0.55177   0.12368   0.00000  Uiso   1.00
C248   C     0.61200   0.13132   0.14226   0.00000  Uiso   1.00
C249   C     0.48739   0.10389   0.15002   0.00000  Uiso   1.00
C250   C     0.45513   0.04913   0.16927   0.00000  Uiso   1.00
C251   C     0.69891   0.09052   0.11108   0.00000  Uiso   1.00
C252   C     0.64734   0.02876   0.09263   0.00000  Uiso   1.00
C253   C     0.68821   0.93961   0.08563   0.00000  Uiso   1.00
H254   H     0.90140   0.12224   0.15054   0.00000  Uiso   1.00
H255   H     0.09273   0.37472   0.14986   0.00000  Uiso   1.00
H256   H     0.73822   0.02985   0.18113   0.00000  Uiso   1.00
H257   H     0.89815   0.95474   0.12375   0.00000  Uiso   1.00
H258   H     0.26548   0.66625   0.14422   0.00000  Uiso   1.00
H259   H     0.51796   0.93905   0.21016   0.00000  Uiso   1.00
H260   H     0.85520   0.78065   0.08916   0.00000  Uiso   1.00
H261   H     0.59817   0.21175   0.11293   0.00000  Uiso   1.00
H262   H     0.77287   0.46915   0.11017   0.00000  Uiso   1.00
H263   H     0.41836   0.12428   0.14145   0.00000  Uiso   1.00
H264   H     0.57829   0.04917   0.08407   0.00000  Uiso   1.00
H265   H     0.00586   0.74290   0.11201   0.00000  Uiso   1.00
H266   H     0.25835   0.01568   0.17795   0.00000  Uiso   1.00
H267   H     0.59559   0.85729   0.05695   0.00000  Uiso   1.00
O268   O     0.25604   0.87228   0.12699   0.00000  Uiso   1.00
O269   O     0.27533   0.91820   0.21350   0.00000  Uiso   1.00
O270   O     0.71778   0.71039   0.05475   0.00000  Uiso   1.00
N271   N     0.18041   0.64896   0.13701   0.00000  Uiso   1.00
N272   N     0.48154   0.96909   0.19867   0.00000  Uiso   1.00
N273   N     0.79680   0.82097   0.08554   0.00000  Uiso   1.00
N274   N     0.04072   0.69020   0.11968   0.00000  Uiso   1.00
N275   N     0.34185   0.01033   0.18134   0.00000  Uiso   1.00
N276   N     0.65711   0.86221   0.06821   0.00000  Uiso   1.00
C277   C     0.31082   0.14276   0.35808   0.00000  Uiso   1.00
C278   C     0.39849   0.29234   0.36367   0.00000  Uiso   1.00
C279   C     0.37144   0.39514   0.35871   0.00000  Uiso   1.00
C280   C     0.46415   0.52538   0.36523   0.00000  Uiso   1.00
C281   C     0.58275   0.75365   0.37222   0.00000  Uiso   1.00
C282   C     0.40375   0.10498   0.34667   0.00000  Uiso   1.00
C283   C     0.38108   0.05024   0.32743   0.00000  Uiso   1.00
C284   C     0.47822   0.02274   0.31964   0.00000  Uiso   1.00
C285   C     0.60491   0.96004   0.30025   0.00000  Uiso   1.00
C286   C     0.27604   0.06418   0.37785   0.00000  Uiso   1.00
C287   C     0.14600   0.97510   0.38482   0.00000  Uiso   1.00
C288   C     0.13562   0.91323   0.40328   0.00000  Uiso   1.00
C289   C     0.06403   0.78718   0.43230   0.00000  Uiso   1.00
C290   C     0.52360   0.19125   0.37845   0.00000  Uiso   1.00
C291   C     0.51407   0.31868   0.37474   0.00000  Uiso   1.00
C292   C     0.60685   0.44879   0.38126   0.00000  Uiso   1.00
C293   C     0.57993   0.55177   0.37632   0.00000  Uiso   1.00
C294   C     0.51932   0.13132   0.35774   0.00000  Uiso   1.00
C295   C     0.61650   0.10389   0.34998   0.00000  Uiso   1.00
C296   C     0.59400   0.04913   0.33073   0.00000  Uiso   1.00
C297   C     0.39161   0.09052   0.38892   0.00000  Uiso   1.00
C298   C     0.38142   0.02876   0.40737   0.00000  Uiso   1.00
C299   C     0.25140   0.93961   0.41437   0.00000  Uiso   1.00
H300   H     0.22084   0.12224   0.34946   0.00000  Uiso   1.00
H301   H     0.28199   0.37472   0.35014   0.00000  Uiso   1.00
H302   H     0.29163   0.02985   0.31887   0.00000  Uiso   1.00
H303   H     0.05659   0.95474   0.37625   0.00000  Uiso   1.00
H304   H     0.40078   0.66625   0.35578   0.00000  Uiso   1.00
H305   H     0.42109   0.93905   0.28984   0.00000  Uiso   1.00
H306   H     0.92545   0.78065   0.41084   0.00000  Uiso   1.00
H307   H     0.61358   0.21175   0.38707   0.00000  Uiso   1.00
H308   H     0.69628   0.46915   0.38983   0.00000  Uiso   1.00
H309   H     0.70592   0.12428   0.35855   0.00000  Uiso   1.00
H310   H     0.47088   0.04917   0.41593   0.00000  Uiso   1.00
H311   H     0.73703   0.74290   0.38799   0.00000  Uiso   1.00
H312   H     0.75734   0.01568   0.32205   0.00000  Uiso   1.00
H313   H     0.26171   0.85729   0.44305   0.00000  Uiso   1.00
O314   O     0.61624   0.87228   0.37301   0.00000  Uiso   1.00
O315   O     0.64287   0.91820   0.28650   0.00000  Uiso   1.00
O316   O     0.99261   0.71039   0.44525   0.00000  Uiso   1.00
N317   N     0.46855   0.64896   0.36299   0.00000  Uiso   1.00
N318   N     0.48755   0.96909   0.30133   0.00000  Uiso   1.00
N319   N     0.02417   0.82097   0.41446   0.00000  Uiso   1.00
N320   N     0.64949   0.69020   0.38032   0.00000  Uiso   1.00
N321   N     0.66848   0.01033   0.31866   0.00000  Uiso   1.00
N322   N     0.20511   0.86221   0.43179   0.00000  Uiso   1.00
C323   C     0.83194   0.68918   0.69141   0.00000  Uiso   1.00
C324   C     0.89385   0.60151   0.69700   0.00000  Uiso   1.00
C325   C     0.02370   0.62856   0.69205   0.00000  Uiso   1.00
C326   C     0.06123   0.53585   0.69856   0.00000  Uiso   1.00
C327   C     0.17090   0.41725   0.70555   0.00000  Uiso   1.00
C328   C     0.70124   0.59625   0.68001   0.00000  Uiso   1.00
C329   C     0.66915   0.61892   0.66076   0.00000  Uiso   1.00
C330   C     0.54453   0.52178   0.65297   0.00000  Uiso   1.00
C331   C     0.35513   0.39509   0.63359   0.00000  Uiso   1.00
C332   C     0.78814   0.72396   0.71118   0.00000  Uiso   1.00
C333   C     0.82910   0.85400   0.71815   0.00000  Uiso   1.00
C334   C     0.77761   0.86438   0.73661   0.00000  Uiso   1.00
C335   C     0.72315   0.93597   0.76563   0.00000  Uiso   1.00
C336   C     0.66765   0.47640   0.71179   0.00000  Uiso   1.00
C337   C     0.80461   0.48593   0.70807   0.00000  Uiso   1.00
C338   C     0.84194   0.39315   0.71459   0.00000  Uiso   1.00
C339   C     0.97184   0.42007   0.70965   0.00000  Uiso   1.00
C340   C     0.61200   0.48068   0.69107   0.00000  Uiso   1.00
C341   C     0.48739   0.38350   0.68331   0.00000  Uiso   1.00
C342   C     0.45513   0.40600   0.66406   0.00000  Uiso   1.00
C343   C     0.69891   0.60839   0.72225   0.00000  Uiso   1.00
C344   C     0.64734   0.61858   0.74070   0.00000  Uiso   1.00
C345   C     0.68821   0.74860   0.74770   0.00000  Uiso   1.00
H346   H     0.90140   0.77916   0.68279   0.00000  Uiso   1.00
H347   H     0.09273   0.71801   0.68348   0.00000  Uiso   1.00
H348   H     0.73822   0.70837   0.65220   0.00000  Uiso   1.00
H349   H     0.89815   0.94341   0.70958   0.00000  Uiso   1.00
H350   H     0.26548   0.59922   0.68912   0.00000  Uiso   1.00
H351   H     0.51796   0.57891   0.62317   0.00000  Uiso   1.00
H352   H     0.85520   0.07455   0.74417   0.00000  Uiso   1.00
H353   H     0.59817   0.38642   0.72041   0.00000  Uiso   1.00
H354   H     0.77287   0.30372   0.72316   0.00000  Uiso   1.00
H355   H     0.41836   0.29408   0.69188   0.00000  Uiso   1.00
H356   H     0.57829   0.52912   0.74926   0.00000  Uiso   1.00
H357   H     0.00586   0.26297   0.72132   0.00000  Uiso   1.00
H358   H     0.25835   0.24266   0.65538   0.00000  Uiso   1.00
H359   H     0.59559   0.73829   0.77638   0.00000  Uiso   1.00
O360   O     0.25604   0.38376   0.70635   0.00000  Uiso   1.00
O361   O     0.27533   0.35713   0.61983   0.00000  Uiso   1.00
O362   O     0.71778   0.00739   0.77858   0.00000  Uiso   1.00
N363   N     0.18041   0.53145   0.69632   0.00000  Uiso   1.00
N364   N     0.48154   0.51245   0.63467   0.00000  Uiso   1.00
N365   N     0.79680   0.97583   0.74779   0.00000  Uiso   1.00
N366   N     0.04072   0.35051   0.71365   0.00000  Uiso   1.00
N367   N     0.34185   0.33152   0.65200   0.00000  Uiso   1.00
N368   N     0.65711   0.79489   0.76512   0.00000  Uiso   1.00
C369   C     0.85724   0.16806   0.02474   0.00000  Uiso   1.00
C370   C     0.70766   0.10615   0.03033   0.00000  Uiso   1.00
C371   C     0.60486   0.97630   0.02538   0.00000  Uiso   1.00
C372   C     0.47462   0.93877   0.03189   0.00000  Uiso   1.00
C373   C     0.24635   0.82910   0.03888   0.00000  Uiso   1.00
C374   C     0.89502   0.29876   0.01334   0.00000  Uiso   1.00
C375   C     0.94976   0.33085   0.99410   0.00000  Uiso   1.00
C376   C     0.97726   0.45547   0.98631   0.00000  Uiso   1.00
C377   C     0.03996   0.64487   0.96692   0.00000  Uiso   1.00
C378   C     0.93582   0.21186   0.04452   0.00000  Uiso   1.00
C379   C     0.02490   0.17090   0.05149   0.00000  Uiso   1.00
C380   C     0.08677   0.22239   0.06995   0.00000  Uiso   1.00
C381   C     0.21282   0.27685   0.09896   0.00000  Uiso   1.00
C382   C     0.80875   0.33235   0.04512   0.00000  Uiso   1.00
C383   C     0.68132   0.19539   0.04140   0.00000  Uiso   1.00
C384   C     0.55121   0.15806   0.04793   0.00000  Uiso   1.00
C385   C     0.44823   0.02816   0.04298   0.00000  Uiso   1.00
C386   C     0.86868   0.38800   0.02441   0.00000  Uiso   1.00
C387   C     0.89611   0.51261   0.01665   0.00000  Uiso   1.00
C388   C     0.95087   0.54487   0.99740   0.00000  Uiso   1.00
C389   C     0.90948   0.30109   0.05559   0.00000  Uiso   1.00
C390   C     0.97124   0.35266   0.07404   0.00000  Uiso   1.00
C391   C     0.06039   0.31179   0.08103   0.00000  Uiso   1.00
H392   H     0.87776   0.09860   0.01612   0.00000  Uiso   1.00
H393   H     0.62528   0.90727   0.01681   0.00000  Uiso   1.00
H394   H     0.97015   0.26178   0.98554   0.00000  Uiso   1.00
H395   H     0.04526   0.10185   0.04292   0.00000  Uiso   1.00
H396   H     0.33375   0.73452   0.02245   0.00000  Uiso   1.00
H397   H     0.06095   0.48204   0.95651   0.00000  Uiso   1.00
H398   H     0.21935   0.14480   0.07751   0.00000  Uiso   1.00
H399   H     0.78825   0.40183   0.05374   0.00000  Uiso   1.00
H400   H     0.53085   0.22713   0.05649   0.00000  Uiso   1.00
H401   H     0.87572   0.58164   0.02522   0.00000  Uiso   1.00
H402   H     0.95083   0.42171   0.08260   0.00000  Uiso   1.00
H403   H     0.25710   0.99414   0.05466   0.00000  Uiso   1.00
H404   H     0.98432   0.74165   0.98871   0.00000  Uiso   1.00
H405   H     0.14271   0.40441   0.10971   0.00000  Uiso   1.00
O406   O     0.12772   0.74396   0.03968   0.00000  Uiso   1.00
O407   O     0.08180   0.72467   0.95317   0.00000  Uiso   1.00
O408   O     0.28961   0.28222   0.11191   0.00000  Uiso   1.00
N409   N     0.35104   0.81959   0.02966   0.00000  Uiso   1.00
N410   N     0.03091   0.51846   0.96800   0.00000  Uiso   1.00
N411   N     0.17903   0.20320   0.08112   0.00000  Uiso   1.00
N412   N     0.30980   0.95928   0.04699   0.00000  Uiso   1.00
N413   N     0.98967   0.65815   0.98533   0.00000  Uiso   1.00
N414   N     0.13779   0.34289   0.09845   0.00000  Uiso   1.00
C415   C     0.68918   0.85724   0.85808   0.00000  Uiso   1.00
C416   C     0.60151   0.70766   0.86367   0.00000  Uiso   1.00
C417   C     0.62856   0.60486   0.85871   0.00000  Uiso   1.00
C418   C     0.53585   0.47462   0.86523   0.00000  Uiso   1.00
C419   C     0.41725   0.24635   0.87222   0.00000  Uiso   1.00
C420   C     0.59625   0.89502   0.84667   0.00000  Uiso   1.00
C421   C     0.61892   0.94976   0.82743   0.00000  Uiso   1.00
C422   C     0.52178   0.97726   0.81964   0.00000  Uiso   1.00
C423   C     0.39509   0.03996   0.80025   0.00000  Uiso   1.00
C424   C     0.72396   0.93582   0.87785   0.00000  Uiso   1.00
C425   C     0.85400   0.02490   0.88482   0.00000  Uiso   1.00
C426   C     0.86438   0.08677   0.90328   0.00000  Uiso   1.00
C427   C     0.93597   0.21282   0.93230   0.00000  Uiso   1.00
C428   C     0.47640   0.80875   0.87845   0.00000  Uiso   1.00
C429   C     0.48593   0.68132   0.87474   0.00000  Uiso   1.00
C430   C     0.39315   0.55121   0.88126   0.00000  Uiso   1.00
C431   C     0.42007   0.44823   0.87632   0.00000  Uiso   1.00
C432   C     0.48068   0.86868   0.85774   0.00000  Uiso   1.00
C433   C     0.38350   0.89611   0.84998   0.00000  Uiso   1.00
C434   C     0.40600   0.95087   0.83073   0.00000  Uiso   1.00
C435   C     0.60839   0.90948   0.88892   0.00000  Uiso   1.00
C436   C     0.61858   0.97124   0.90737   0.00000  Uiso   1.00
C437   C     0.74860   0.06039   0.91437   0.00000  Uiso   1.00
H438   H     0.77916   0.87776   0.84946   0.00000  Uiso   1.00
H439   H     0.71801   0.62528   0.85014   0.00000  Uiso   1.00
H440   H     0.70837   0.97015   0.81887   0.00000  Uiso   1.00
H441   H     0.94341   0.04526   0.87625   0.00000  Uiso   1.00
H442   H     0.59922   0.33375   0.85578   0.00000  Uiso   1.00
H443   H     0.57891   0.06095   0.78984   0.00000  Uiso   1.00
H444   H     0.07455   0.21935   0.91084   0.00000  Uiso   1.00
H445   H     0.38642   0.78825   0.88707   0.00000  Uiso   1.00
H446   H     0.30372   0.53085   0.88983   0.00000  Uiso   1.00
H447   H     0.29408   0.87572   0.85855   0.00000  Uiso   1.00
H448   H     0.52912   0.95083   0.91593   0.00000  Uiso   1.00
H449   H     0.26297   0.25710   0.88799   0.00000  Uiso   1.00
H450   H     0.24266   0.98432   0.82205   0.00000  Uiso   1.00
H451   H     0.73829   0.14271   0.94305   0.00000  Uiso   1.00
O452   O     0.38376   0.12772   0.87301   0.00000  Uiso   1.00
O453   O     0.35713   0.08180   0.78650   0.00000  Uiso   1.00
O454   O     0.00739   0.28961   0.94525   0.00000  Uiso   1.00
N455   N     0.53145   0.35104   0.86299   0.00000  Uiso   1.00
N456   N     0.51245   0.03091   0.80133   0.00000  Uiso   1.00
N457   N     0.97583   0.17903   0.91446   0.00000  Uiso   1.00
N458   N     0.35051   0.30980   0.88032   0.00000  Uiso   1.00
N459   N     0.33152   0.98967   0.81866   0.00000  Uiso   1.00
N460   N     0.79489   0.13779   0.93179   0.00000  Uiso   1.00
C461   C     0.16806   0.31082   0.19141   0.00000  Uiso   1.00
C462   C     0.10615   0.39849   0.19700   0.00000  Uiso   1.00
C463   C     0.97630   0.37144   0.19205   0.00000  Uiso   1.00
C464   C     0.93877   0.46415   0.19856   0.00000  Uiso   1.00
C465   C     0.82910   0.58275   0.20555   0.00000  Uiso   1.00
C466   C     0.29876   0.40375   0.18001   0.00000  Uiso   1.00
C467   C     0.33085   0.38108   0.16076   0.00000  Uiso   1.00
C468   C     0.45547   0.47822   0.15297   0.00000  Uiso   1.00
C469   C     0.64487   0.60491   0.13359   0.00000  Uiso   1.00
C470   C     0.21186   0.27604   0.21118   0.00000  Uiso   1.00
C471   C     0.17090   0.14600   0.21815   0.00000  Uiso   1.00
C472   C     0.22239   0.13562   0.23661   0.00000  Uiso   1.00
C473   C     0.27685   0.06403   0.26563   0.00000  Uiso   1.00
C474   C     0.33235   0.52360   0.21179   0.00000  Uiso   1.00
C475   C     0.19539   0.51407   0.20807   0.00000  Uiso   1.00
C476   C     0.15806   0.60685   0.21459   0.00000  Uiso   1.00
C477   C     0.02816   0.57993   0.20965   0.00000  Uiso   1.00
C478   C     0.38800   0.51932   0.19107   0.00000  Uiso   1.00
C479   C     0.51261   0.61650   0.18331   0.00000  Uiso   1.00
C480   C     0.54487   0.59400   0.16406   0.00000  Uiso   1.00
C481   C     0.30109   0.39161   0.22225   0.00000  Uiso   1.00
C482   C     0.35266   0.38142   0.24070   0.00000  Uiso   1.00
C483   C     0.31179   0.25140   0.24770   0.00000  Uiso   1.00
H484   H     0.09860   0.22084   0.18279   0.00000  Uiso   1.00
H485   H     0.90727   0.28199   0.18348   0.00000  Uiso   1.00
H486   H     0.26178   0.29163   0.15220   0.00000  Uiso   1.00
H487   H     0.10185   0.05659   0.20958   0.00000  Uiso   1.00
H488   H     0.73452   0.40078   0.18912   0.00000  Uiso   1.00
H489   H     0.48204   0.42109   0.12317   0.00000  Uiso   1.00
H490   H     0.14480   0.92545   0.24417   0.00000  Uiso   1.00
H491   H     0.40183   0.61358   0.22041   0.00000  Uiso   1.00
H492   H     0.22713   0.69628   0.22316   0.00000  Uiso   1.00
H493   H     0.58164   0.70592   0.19188   0.00000  Uiso   1.00
H494   H     0.42171   0.47088   0.24926   0.00000  Uiso   1.00
H495   H     0.99414   0.73703   0.22132   0.00000  Uiso   1.00
H496   H     0.74165   0.75734   0.15538   0.00000  Uiso   1.00
H497   H     0.40441   0.26171   0.27638   0.00000  Uiso   1.00
O498   O     0.74396   0.61624   0.20635   0.00000  Uiso   1.00
O499   O     0.72467   0.64287   0.11983   0.00000  Uiso   1.00
O500   O     0.28222   0.99261   0.27858   0.00000  Uiso   1.00
N501   N     0.81959   0.46855   0.19632   0.00000  Uiso   1.00
N502   N     0.51846   0.48755   0.13467   0.00000  Uiso   1.00
N503   N     0.20320   0.02417   0.24779   0.00000  Uiso   1.00
N504   N     0.95928   0.64949   0.21365   0.00000  Uiso   1.00
N505   N     0.65815   0.66848   0.15200   0.00000  Uiso   1.00
N506   N     0.34289   0.20511   0.26512   0.00000  Uiso   1.00
C507   C     0.14276   0.83194   0.52474   0.00000  Uiso   1.00
C508   C     0.29234   0.89385   0.53033   0.00000  Uiso   1.00
C509   C     0.39514   0.02370   0.52538   0.00000  Uiso   1.00
C510   C     0.52538   0.06123   0.53189   0.00000  Uiso   1.00
C511   C     0.75365   0.17090   0.53888   0.00000  Uiso   1.00
C512   C     0.10498   0.70124   0.51334   0.00000  Uiso   1.00
C513   C     0.05024   0.66915   0.49410   0.00000  Uiso   1.00
C514   C     0.02274   0.54453   0.48631   0.00000  Uiso   1.00
C515   C     0.96004   0.35513   0.46692   0.00000  Uiso   1.00
C516   C     0.06418   0.78814   0.54452   0.00000  Uiso   1.00
C517   C     0.97510   0.82910   0.55149   0.00000  Uiso   1.00
C518   C     0.91323   0.77761   0.56995   0.00000  Uiso   1.00
C519   C     0.78718   0.72315   0.59896   0.00000  Uiso   1.00
C520   C     0.19125   0.66765   0.54512   0.00000  Uiso   1.00
C521   C     0.31868   0.80461   0.54140   0.00000  Uiso   1.00
C522   C     0.44879   0.84194   0.54793   0.00000  Uiso   1.00
C523   C     0.55177   0.97184   0.54298   0.00000  Uiso   1.00
C524   C     0.13132   0.61200   0.52441   0.00000  Uiso   1.00
C525   C     0.10389   0.48739   0.51665   0.00000  Uiso   1.00
C526   C     0.04913   0.45513   0.49740   0.00000  Uiso   1.00
C527   C     0.09052   0.69891   0.55559   0.00000  Uiso   1.00
C528   C     0.02876   0.64734   0.57404   0.00000  Uiso   1.00
C529   C     0.93961   0.68821   0.58103   0.00000  Uiso   1.00
H530   H     0.12224   0.90140   0.51612   0.00000  Uiso   1.00
H531   H     0.37472   0.09273   0.51681   0.00000  Uiso   1.00
H532   H     0.02985   0.73822   0.48554   0.00000  Uiso   1.00
H533   H     0.95474   0.89815   0.54292   0.00000  Uiso   1.00
H534   H     0.66625   0.26548   0.52245   0.00000  Uiso   1.00
H535   H     0.93905   0.51796   0.45651   0.00000  Uiso   1.00
H536   H     0.78065   0.85520   0.57751   0.00000  Uiso   1.00
H537   H     0.21175   0.59817   0.55374   0.00000  Uiso   1.00
H538   H     0.46915   0.77287   0.55649   0.00000  Uiso   1.00
H539   H     0.12428   0.41836   0.52522   0.00000  Uiso   1.00
H540   H     0.04917   0.57829   0.58260   0.00000  Uiso   1.00
H541   H     0.74290   0.00586   0.55466   0.00000  Uiso   1.00
H542   H     0.01568   0.25835   0.48871   0.00000  Uiso   1.00
H543   H     0.85729   0.59559   0.60971   0.00000  Uiso   1.00
O544   O     0.87228   0.25604   0.53968   0.00000  Uiso   1.00
O545   O     0.91820   0.27533   0.45317   0.00000  Uiso   1.00
O546   O     0.71039   0.71778   0.61191   0.00000  Uiso   1.00
N547   N     0.64896   0.18041   0.52966   0.00000  Uiso   1.00
N548   N     0.96909   0.48154   0.46800   0.00000  Uiso   1.00
N549   N     0.82097   0.79680   0.58112   0.00000  Uiso   1.00
N550   N     0.69020   0.04072   0.54699   0.00000  Uiso   1.00
N551   N     0.01033   0.34185   0.48533   0.00000  Uiso   1.00
N552   N     0.86221   0.65711   0.59845   0.00000  Uiso   1.00
