data_job_01484
_audit_creation_date              2018-12-19
_audit_creation_method            'Materials Studio'
_symmetry_space_group_name_H-M    'P1'
_symmetry_Int_Tables_number       1
_symmetry_cell_setting            triclinic
loop_
_symmetry_equiv_pos_as_xyz
  x,y,z
_cell_length_a                    29.6128
_cell_length_b                    17.8518
_cell_length_c                    10.9842
_cell_angle_alpha                 90.0000
_cell_angle_beta                  68.4956
_cell_angle_gamma                 90.0000
loop_
_atom_site_label
_atom_site_type_symbol
_atom_site_fract_x
_atom_site_fract_y
_atom_site_fract_z
_atom_site_U_iso_or_equiv
_atom_site_adp_type
_atom_site_occupancy
C1     C     0.66218   0.72085   0.04627   0.00000  Uiso   1.00
C2     C     0.67270   0.66303   0.13459   0.00000  Uiso   1.00
C3     C     0.71843   0.64126   0.12884   0.00000  Uiso   1.00
C4     C     0.72037   0.58753   0.21817   0.00000  Uiso   1.00
C5     C     0.74314   0.50240   0.34131   0.00000  Uiso   1.00
C6     C     0.63092   0.68105   0.98261   0.00000  Uiso   1.00
C7     C     0.64152   0.67446   0.84908   0.00000  Uiso   1.00
C8     C     0.60828   0.63591   0.81048   0.00000  Uiso   1.00
C9     C     0.56617   0.57882   0.69767   0.00000  Uiso   1.00
C10    C     0.62956   0.77960   0.13733   0.00000  Uiso   1.00
C11    C     0.63901   0.85588   0.13388   0.00000  Uiso   1.00
C12    C     0.60462   0.90031   0.22553   0.00000  Uiso   1.00
C13    C     0.56040   0.99623   0.35295   0.00000  Uiso   1.00
C14    C     0.58431   0.66413   0.21515   0.00000  Uiso   1.00
C15    C     0.63040   0.63221   0.22631   0.00000  Uiso   1.00
C16    C     0.63228   0.57851   0.31568   0.00000  Uiso   1.00
C17    C     0.67800   0.55667   0.31007   0.00000  Uiso   1.00
C18    C     0.58863   0.65024   0.07433   0.00000  Uiso   1.00
C19    C     0.55536   0.61170   0.03592   0.00000  Uiso   1.00
C20    C     0.56591   0.60505   0.90237   0.00000  Uiso   1.00
C21    C     0.58727   0.74880   0.22906   0.00000  Uiso   1.00
C22    C     0.55286   0.79312   0.32073   0.00000  Uiso   1.00
C23    C     0.56225   0.86945   0.31742   0.00000  Uiso   1.00
H24    H     0.69511   0.74484   0.97485   0.00000  Uiso   1.00
H25    H     0.75115   0.66512   0.05783   0.00000  Uiso   1.00
H26    H     0.67425   0.69832   0.77812   0.00000  Uiso   1.00
H27    H     0.67174   0.87970   0.06288   0.00000  Uiso   1.00
H28    H     0.79463   0.56312   0.19025   0.00000  Uiso   1.00
H29    H     0.63247   0.63314   0.60046   0.00000  Uiso   1.00
H30    H     0.62719   0.01564   0.20093   0.00000  Uiso   1.00
H31    H     0.55138   0.64014   0.28656   0.00000  Uiso   1.00
H32    H     0.59954   0.55467   0.38666   0.00000  Uiso   1.00
H33    H     0.52264   0.58787   0.10694   0.00000  Uiso   1.00
H34    H     0.52013   0.76926   0.39170   0.00000  Uiso   1.00
H35    H     0.67158   0.47348   0.45713   0.00000  Uiso   1.00
H36    H     0.50942   0.54350   0.86734   0.00000  Uiso   1.00
H37    H     0.50413   0.92600   0.46781   0.00000  Uiso   1.00
O38    O     0.76738   0.46394   0.38388   0.00000  Uiso   1.00
O39    O     0.55462   0.55583   0.61010   0.00000  Uiso   1.00
O40    O     0.54770   0.05765   0.39791   0.00000  Uiso   1.00
N41    N     0.75906   0.55376   0.23934   0.00000  Uiso   1.00
N42    N     0.60745   0.61922   0.68792   0.00000  Uiso   1.00
N43    N     0.60251   0.97683   0.24929   0.00000  Uiso   1.00
N44    N     0.69285   0.50553   0.38295   0.00000  Uiso   1.00
N45    N     0.54124   0.57098   0.83153   0.00000  Uiso   1.00
N46    N     0.53630   0.92859   0.39290   0.00000  Uiso   1.00
C47    C     0.16218   0.22085   0.04627   0.00000  Uiso   1.00
C48    C     0.17270   0.16303   0.13459   0.00000  Uiso   1.00
C49    C     0.21843   0.14126   0.12884   0.00000  Uiso   1.00
C50    C     0.22037   0.08753   0.21817   0.00000  Uiso   1.00
C51    C     0.24314   0.00240   0.34131   0.00000  Uiso   1.00
C52    C     0.13092   0.18105   0.98261   0.00000  Uiso   1.00
C53    C     0.14152   0.17446   0.84908   0.00000  Uiso   1.00
C54    C     0.10828   0.13591   0.81048   0.00000  Uiso   1.00
C55    C     0.06617   0.07882   0.69767   0.00000  Uiso   1.00
C56    C     0.12956   0.27960   0.13733   0.00000  Uiso   1.00
C57    C     0.13901   0.35588   0.13388   0.00000  Uiso   1.00
C58    C     0.10462   0.40031   0.22553   0.00000  Uiso   1.00
C59    C     0.06040   0.49623   0.35295   0.00000  Uiso   1.00
C60    C     0.08431   0.16413   0.21515   0.00000  Uiso   1.00
C61    C     0.13040   0.13221   0.22631   0.00000  Uiso   1.00
C62    C     0.13228   0.07851   0.31568   0.00000  Uiso   1.00
C63    C     0.17800   0.05667   0.31007   0.00000  Uiso   1.00
C64    C     0.08863   0.15024   0.07433   0.00000  Uiso   1.00
C65    C     0.05536   0.11170   0.03592   0.00000  Uiso   1.00
C66    C     0.06591   0.10505   0.90237   0.00000  Uiso   1.00
C67    C     0.08727   0.24880   0.22906   0.00000  Uiso   1.00
C68    C     0.05286   0.29312   0.32073   0.00000  Uiso   1.00
C69    C     0.06225   0.36945   0.31742   0.00000  Uiso   1.00
H70    H     0.19511   0.24484   0.97485   0.00000  Uiso   1.00
H71    H     0.25115   0.16512   0.05783   0.00000  Uiso   1.00
H72    H     0.17425   0.19832   0.77812   0.00000  Uiso   1.00
H73    H     0.17174   0.37970   0.06288   0.00000  Uiso   1.00
H74    H     0.29463   0.06312   0.19025   0.00000  Uiso   1.00
H75    H     0.13247   0.13314   0.60046   0.00000  Uiso   1.00
H76    H     0.12719   0.51564   0.20093   0.00000  Uiso   1.00
H77    H     0.05138   0.14014   0.28656   0.00000  Uiso   1.00
H78    H     0.09954   0.05467   0.38666   0.00000  Uiso   1.00
H79    H     0.02264   0.08787   0.10694   0.00000  Uiso   1.00
H80    H     0.02013   0.26926   0.39170   0.00000  Uiso   1.00
H81    H     0.17158   0.97348   0.45713   0.00000  Uiso   1.00
H82    H     0.00942   0.04350   0.86734   0.00000  Uiso   1.00
H83    H     0.00413   0.42600   0.46781   0.00000  Uiso   1.00
O84    O     0.26738   0.96394   0.38388   0.00000  Uiso   1.00
O85    O     0.05462   0.05583   0.61010   0.00000  Uiso   1.00
O86    O     0.04770   0.55765   0.39791   0.00000  Uiso   1.00
N87    N     0.25906   0.05376   0.23934   0.00000  Uiso   1.00
N88    N     0.10745   0.11922   0.68792   0.00000  Uiso   1.00
N89    N     0.10251   0.47683   0.24929   0.00000  Uiso   1.00
N90    N     0.19285   0.00553   0.38295   0.00000  Uiso   1.00
N91    N     0.04124   0.07098   0.83153   0.00000  Uiso   1.00
N92    N     0.03630   0.42859   0.39290   0.00000  Uiso   1.00
C93    C     0.33782   0.72085   0.45373   0.00000  Uiso   1.00
C94    C     0.32730   0.66303   0.36541   0.00000  Uiso   1.00
C95    C     0.28157   0.64126   0.37116   0.00000  Uiso   1.00
C96    C     0.27963   0.58753   0.28183   0.00000  Uiso   1.00
C97    C     0.25686   0.50240   0.15869   0.00000  Uiso   1.00
C98    C     0.36908   0.68105   0.51739   0.00000  Uiso   1.00
C99    C     0.35848   0.67446   0.65092   0.00000  Uiso   1.00
C100   C     0.39172   0.63591   0.68952   0.00000  Uiso   1.00
C101   C     0.43383   0.57882   0.80233   0.00000  Uiso   1.00
C102   C     0.37044   0.77960   0.36267   0.00000  Uiso   1.00
C103   C     0.36099   0.85588   0.36612   0.00000  Uiso   1.00
C104   C     0.39538   0.90031   0.27447   0.00000  Uiso   1.00
C105   C     0.43960   0.99623   0.14705   0.00000  Uiso   1.00
C106   C     0.41569   0.66413   0.28485   0.00000  Uiso   1.00
C107   C     0.36960   0.63221   0.27369   0.00000  Uiso   1.00
C108   C     0.36772   0.57851   0.18432   0.00000  Uiso   1.00
C109   C     0.32200   0.55667   0.18993   0.00000  Uiso   1.00
C110   C     0.41137   0.65024   0.42567   0.00000  Uiso   1.00
C111   C     0.44464   0.61170   0.46408   0.00000  Uiso   1.00
C112   C     0.43409   0.60505   0.59763   0.00000  Uiso   1.00
C113   C     0.41273   0.74880   0.27094   0.00000  Uiso   1.00
C114   C     0.44714   0.79312   0.17927   0.00000  Uiso   1.00
C115   C     0.43775   0.86945   0.18258   0.00000  Uiso   1.00
H116   H     0.30489   0.74484   0.52515   0.00000  Uiso   1.00
H117   H     0.24885   0.66512   0.44217   0.00000  Uiso   1.00
H118   H     0.32575   0.69832   0.72188   0.00000  Uiso   1.00
H119   H     0.32826   0.87970   0.43712   0.00000  Uiso   1.00
H120   H     0.20537   0.56312   0.30975   0.00000  Uiso   1.00
H121   H     0.36753   0.63314   0.89954   0.00000  Uiso   1.00
H122   H     0.37281   0.01564   0.29907   0.00000  Uiso   1.00
H123   H     0.44862   0.64014   0.21344   0.00000  Uiso   1.00
H124   H     0.40046   0.55467   0.11334   0.00000  Uiso   1.00
H125   H     0.47736   0.58787   0.39306   0.00000  Uiso   1.00
H126   H     0.47987   0.76926   0.10830   0.00000  Uiso   1.00
H127   H     0.32842   0.47348   0.04287   0.00000  Uiso   1.00
H128   H     0.49058   0.54350   0.63266   0.00000  Uiso   1.00
H129   H     0.49587   0.92600   0.03219   0.00000  Uiso   1.00
O130   O     0.23262   0.46394   0.11612   0.00000  Uiso   1.00
O131   O     0.44538   0.55583   0.88990   0.00000  Uiso   1.00
O132   O     0.45230   0.05765   0.10209   0.00000  Uiso   1.00
N133   N     0.24094   0.55376   0.26066   0.00000  Uiso   1.00
N134   N     0.39255   0.61922   0.81208   0.00000  Uiso   1.00
N135   N     0.39749   0.97683   0.25071   0.00000  Uiso   1.00
N136   N     0.30715   0.50553   0.11705   0.00000  Uiso   1.00
N137   N     0.45876   0.57098   0.66847   0.00000  Uiso   1.00
N138   N     0.46370   0.92859   0.10710   0.00000  Uiso   1.00
C139   C     0.83782   0.22085   0.45373   0.00000  Uiso   1.00
C140   C     0.82730   0.16303   0.36541   0.00000  Uiso   1.00
C141   C     0.78157   0.14126   0.37116   0.00000  Uiso   1.00
C142   C     0.77963   0.08753   0.28183   0.00000  Uiso   1.00
C143   C     0.75686   0.00240   0.15869   0.00000  Uiso   1.00
C144   C     0.86908   0.18105   0.51739   0.00000  Uiso   1.00
C145   C     0.85848   0.17446   0.65092   0.00000  Uiso   1.00
C146   C     0.89172   0.13591   0.68952   0.00000  Uiso   1.00
C147   C     0.93383   0.07882   0.80233   0.00000  Uiso   1.00
C148   C     0.87044   0.27960   0.36267   0.00000  Uiso   1.00
C149   C     0.86099   0.35588   0.36612   0.00000  Uiso   1.00
C150   C     0.89538   0.40031   0.27447   0.00000  Uiso   1.00
C151   C     0.93960   0.49623   0.14705   0.00000  Uiso   1.00
C152   C     0.91569   0.16413   0.28485   0.00000  Uiso   1.00
C153   C     0.86960   0.13221   0.27369   0.00000  Uiso   1.00
C154   C     0.86772   0.07851   0.18432   0.00000  Uiso   1.00
C155   C     0.82200   0.05667   0.18993   0.00000  Uiso   1.00
C156   C     0.91137   0.15024   0.42567   0.00000  Uiso   1.00
C157   C     0.94464   0.11170   0.46408   0.00000  Uiso   1.00
C158   C     0.93409   0.10505   0.59763   0.00000  Uiso   1.00
C159   C     0.91273   0.24880   0.27094   0.00000  Uiso   1.00
C160   C     0.94714   0.29312   0.17927   0.00000  Uiso   1.00
C161   C     0.93775   0.36945   0.18258   0.00000  Uiso   1.00
H162   H     0.80489   0.24484   0.52515   0.00000  Uiso   1.00
H163   H     0.74885   0.16512   0.44217   0.00000  Uiso   1.00
H164   H     0.82575   0.19832   0.72188   0.00000  Uiso   1.00
H165   H     0.82826   0.37970   0.43712   0.00000  Uiso   1.00
H166   H     0.70537   0.06312   0.30975   0.00000  Uiso   1.00
H167   H     0.86753   0.13314   0.89954   0.00000  Uiso   1.00
H168   H     0.87281   0.51564   0.29907   0.00000  Uiso   1.00
H169   H     0.94862   0.14014   0.21344   0.00000  Uiso   1.00
H170   H     0.90046   0.05467   0.11334   0.00000  Uiso   1.00
H171   H     0.97736   0.08787   0.39306   0.00000  Uiso   1.00
H172   H     0.97987   0.26926   0.10830   0.00000  Uiso   1.00
H173   H     0.82842   0.97348   0.04287   0.00000  Uiso   1.00
H174   H     0.99058   0.04350   0.63266   0.00000  Uiso   1.00
H175   H     0.99587   0.42600   0.03219   0.00000  Uiso   1.00
O176   O     0.73262   0.96394   0.11612   0.00000  Uiso   1.00
O177   O     0.94538   0.05583   0.88990   0.00000  Uiso   1.00
O178   O     0.95230   0.55765   0.10209   0.00000  Uiso   1.00
N179   N     0.74094   0.05376   0.26066   0.00000  Uiso   1.00
N180   N     0.89255   0.11922   0.81208   0.00000  Uiso   1.00
N181   N     0.89749   0.47683   0.25071   0.00000  Uiso   1.00
N182   N     0.80715   0.00553   0.11705   0.00000  Uiso   1.00
N183   N     0.95876   0.07098   0.66847   0.00000  Uiso   1.00
N184   N     0.96370   0.42859   0.10710   0.00000  Uiso   1.00
C185   C     0.33782   0.27915   0.95373   0.00000  Uiso   1.00
C186   C     0.32730   0.33697   0.86541   0.00000  Uiso   1.00
C187   C     0.28157   0.35874   0.87116   0.00000  Uiso   1.00
C188   C     0.27963   0.41247   0.78183   0.00000  Uiso   1.00
C189   C     0.25686   0.49760   0.65869   0.00000  Uiso   1.00
C190   C     0.36908   0.31895   0.01739   0.00000  Uiso   1.00
C191   C     0.35848   0.32554   0.15092   0.00000  Uiso   1.00
C192   C     0.39172   0.36409   0.18952   0.00000  Uiso   1.00
C193   C     0.43383   0.42118   0.30233   0.00000  Uiso   1.00
C194   C     0.37044   0.22040   0.86267   0.00000  Uiso   1.00
C195   C     0.36099   0.14412   0.86612   0.00000  Uiso   1.00
C196   C     0.39538   0.09969   0.77447   0.00000  Uiso   1.00
C197   C     0.43960   0.00377   0.64705   0.00000  Uiso   1.00
C198   C     0.41569   0.33587   0.78485   0.00000  Uiso   1.00
C199   C     0.36960   0.36779   0.77369   0.00000  Uiso   1.00
C200   C     0.36772   0.42149   0.68432   0.00000  Uiso   1.00
C201   C     0.32200   0.44333   0.68993   0.00000  Uiso   1.00
C202   C     0.41137   0.34976   0.92567   0.00000  Uiso   1.00
C203   C     0.44464   0.38830   0.96408   0.00000  Uiso   1.00
C204   C     0.43409   0.39495   0.09763   0.00000  Uiso   1.00
C205   C     0.41273   0.25120   0.77094   0.00000  Uiso   1.00
C206   C     0.44714   0.20688   0.67927   0.00000  Uiso   1.00
C207   C     0.43775   0.13055   0.68258   0.00000  Uiso   1.00
H208   H     0.30489   0.25516   0.02515   0.00000  Uiso   1.00
H209   H     0.24885   0.33488   0.94217   0.00000  Uiso   1.00
H210   H     0.32575   0.30168   0.22188   0.00000  Uiso   1.00
H211   H     0.32826   0.12030   0.93712   0.00000  Uiso   1.00
H212   H     0.20537   0.43688   0.80975   0.00000  Uiso   1.00
H213   H     0.36753   0.36686   0.39954   0.00000  Uiso   1.00
H214   H     0.37281   0.98436   0.79907   0.00000  Uiso   1.00
H215   H     0.44862   0.35986   0.71344   0.00000  Uiso   1.00
H216   H     0.40046   0.44533   0.61334   0.00000  Uiso   1.00
H217   H     0.47736   0.41213   0.89306   0.00000  Uiso   1.00
H218   H     0.47987   0.23074   0.60830   0.00000  Uiso   1.00
H219   H     0.32842   0.52652   0.54287   0.00000  Uiso   1.00
H220   H     0.49058   0.45650   0.13266   0.00000  Uiso   1.00
H221   H     0.49587   0.07400   0.53219   0.00000  Uiso   1.00
O222   O     0.23262   0.53606   0.61612   0.00000  Uiso   1.00
O223   O     0.44538   0.44417   0.38990   0.00000  Uiso   1.00
O224   O     0.45230   0.94235   0.60209   0.00000  Uiso   1.00
N225   N     0.24094   0.44624   0.76066   0.00000  Uiso   1.00
N226   N     0.39255   0.38078   0.31208   0.00000  Uiso   1.00
N227   N     0.39749   0.02317   0.75071   0.00000  Uiso   1.00
N228   N     0.30715   0.49447   0.61705   0.00000  Uiso   1.00
N229   N     0.45876   0.42902   0.16847   0.00000  Uiso   1.00
N230   N     0.46370   0.07141   0.60710   0.00000  Uiso   1.00
C231   C     0.83782   0.77915   0.95373   0.00000  Uiso   1.00
C232   C     0.82730   0.83697   0.86541   0.00000  Uiso   1.00
C233   C     0.78157   0.85874   0.87116   0.00000  Uiso   1.00
C234   C     0.77963   0.91247   0.78183   0.00000  Uiso   1.00
C235   C     0.75686   0.99760   0.65869   0.00000  Uiso   1.00
C236   C     0.86908   0.81895   0.01739   0.00000  Uiso   1.00
C237   C     0.85848   0.82554   0.15092   0.00000  Uiso   1.00
C238   C     0.89172   0.86409   0.18952   0.00000  Uiso   1.00
C239   C     0.93383   0.92118   0.30233   0.00000  Uiso   1.00
C240   C     0.87044   0.72040   0.86267   0.00000  Uiso   1.00
C241   C     0.86099   0.64412   0.86612   0.00000  Uiso   1.00
C242   C     0.89538   0.59969   0.77447   0.00000  Uiso   1.00
C243   C     0.93960   0.50377   0.64705   0.00000  Uiso   1.00
C244   C     0.91569   0.83587   0.78485   0.00000  Uiso   1.00
C245   C     0.86960   0.86779   0.77369   0.00000  Uiso   1.00
C246   C     0.86772   0.92149   0.68432   0.00000  Uiso   1.00
C247   C     0.82200   0.94333   0.68993   0.00000  Uiso   1.00
C248   C     0.91137   0.84976   0.92567   0.00000  Uiso   1.00
C249   C     0.94464   0.88830   0.96408   0.00000  Uiso   1.00
C250   C     0.93409   0.89495   0.09763   0.00000  Uiso   1.00
C251   C     0.91273   0.75120   0.77094   0.00000  Uiso   1.00
C252   C     0.94714   0.70688   0.67927   0.00000  Uiso   1.00
C253   C     0.93775   0.63055   0.68258   0.00000  Uiso   1.00
H254   H     0.80489   0.75516   0.02515   0.00000  Uiso   1.00
H255   H     0.74885   0.83488   0.94217   0.00000  Uiso   1.00
H256   H     0.82575   0.80168   0.22188   0.00000  Uiso   1.00
H257   H     0.82826   0.62030   0.93712   0.00000  Uiso   1.00
H258   H     0.70537   0.93688   0.80975   0.00000  Uiso   1.00
H259   H     0.86753   0.86686   0.39954   0.00000  Uiso   1.00
H260   H     0.87281   0.48436   0.79907   0.00000  Uiso   1.00
H261   H     0.94862   0.85986   0.71344   0.00000  Uiso   1.00
H262   H     0.90046   0.94533   0.61334   0.00000  Uiso   1.00
H263   H     0.97736   0.91213   0.89306   0.00000  Uiso   1.00
H264   H     0.97987   0.73074   0.60830   0.00000  Uiso   1.00
H265   H     0.82842   0.02652   0.54287   0.00000  Uiso   1.00
H266   H     0.99058   0.95650   0.13266   0.00000  Uiso   1.00
H267   H     0.99587   0.57400   0.53219   0.00000  Uiso   1.00
O268   O     0.73262   0.03606   0.61612   0.00000  Uiso   1.00
O269   O     0.94538   0.94417   0.38990   0.00000  Uiso   1.00
O270   O     0.95230   0.44235   0.60209   0.00000  Uiso   1.00
N271   N     0.74094   0.94624   0.76066   0.00000  Uiso   1.00
N272   N     0.89255   0.88078   0.31208   0.00000  Uiso   1.00
N273   N     0.89749   0.52317   0.75071   0.00000  Uiso   1.00
N274   N     0.80715   0.99447   0.61705   0.00000  Uiso   1.00
N275   N     0.95876   0.92902   0.16847   0.00000  Uiso   1.00
N276   N     0.96370   0.57141   0.60710   0.00000  Uiso   1.00
C277   C     0.66218   0.27915   0.54627   0.00000  Uiso   1.00
C278   C     0.67270   0.33697   0.63459   0.00000  Uiso   1.00
C279   C     0.71843   0.35874   0.62884   0.00000  Uiso   1.00
C280   C     0.72037   0.41247   0.71817   0.00000  Uiso   1.00
C281   C     0.74314   0.49760   0.84131   0.00000  Uiso   1.00
C282   C     0.63092   0.31895   0.48261   0.00000  Uiso   1.00
C283   C     0.64152   0.32554   0.34908   0.00000  Uiso   1.00
C284   C     0.60828   0.36409   0.31048   0.00000  Uiso   1.00
C285   C     0.56617   0.42118   0.19767   0.00000  Uiso   1.00
C286   C     0.62956   0.22040   0.63733   0.00000  Uiso   1.00
C287   C     0.63901   0.14412   0.63388   0.00000  Uiso   1.00
C288   C     0.60462   0.09969   0.72553   0.00000  Uiso   1.00
C289   C     0.56040   0.00377   0.85295   0.00000  Uiso   1.00
C290   C     0.58431   0.33587   0.71515   0.00000  Uiso   1.00
C291   C     0.63040   0.36779   0.72631   0.00000  Uiso   1.00
C292   C     0.63228   0.42149   0.81568   0.00000  Uiso   1.00
C293   C     0.67800   0.44333   0.81007   0.00000  Uiso   1.00
C294   C     0.58863   0.34976   0.57433   0.00000  Uiso   1.00
C295   C     0.55536   0.38830   0.53592   0.00000  Uiso   1.00
C296   C     0.56591   0.39495   0.40237   0.00000  Uiso   1.00
C297   C     0.58727   0.25120   0.72906   0.00000  Uiso   1.00
C298   C     0.55286   0.20688   0.82073   0.00000  Uiso   1.00
C299   C     0.56225   0.13055   0.81742   0.00000  Uiso   1.00
H300   H     0.69511   0.25516   0.47485   0.00000  Uiso   1.00
H301   H     0.75115   0.33488   0.55783   0.00000  Uiso   1.00
H302   H     0.67425   0.30168   0.27812   0.00000  Uiso   1.00
H303   H     0.67174   0.12030   0.56288   0.00000  Uiso   1.00
H304   H     0.79463   0.43688   0.69025   0.00000  Uiso   1.00
H305   H     0.63247   0.36686   0.10046   0.00000  Uiso   1.00
H306   H     0.62719   0.98436   0.70093   0.00000  Uiso   1.00
H307   H     0.55138   0.35986   0.78656   0.00000  Uiso   1.00
H308   H     0.59954   0.44533   0.88666   0.00000  Uiso   1.00
H309   H     0.52264   0.41213   0.60694   0.00000  Uiso   1.00
H310   H     0.52013   0.23074   0.89170   0.00000  Uiso   1.00
H311   H     0.67158   0.52652   0.95713   0.00000  Uiso   1.00
H312   H     0.50942   0.45650   0.36734   0.00000  Uiso   1.00
H313   H     0.50413   0.07400   0.96781   0.00000  Uiso   1.00
O314   O     0.76738   0.53606   0.88388   0.00000  Uiso   1.00
O315   O     0.55462   0.44417   0.11010   0.00000  Uiso   1.00
O316   O     0.54770   0.94235   0.89791   0.00000  Uiso   1.00
N317   N     0.75906   0.44624   0.73934   0.00000  Uiso   1.00
N318   N     0.60745   0.38078   0.18792   0.00000  Uiso   1.00
N319   N     0.60251   0.02317   0.74929   0.00000  Uiso   1.00
N320   N     0.69285   0.49447   0.88295   0.00000  Uiso   1.00
N321   N     0.54124   0.42902   0.33153   0.00000  Uiso   1.00
N322   N     0.53630   0.07141   0.89290   0.00000  Uiso   1.00
C323   C     0.16218   0.77915   0.54627   0.00000  Uiso   1.00
C324   C     0.17270   0.83697   0.63459   0.00000  Uiso   1.00
C325   C     0.21843   0.85874   0.62884   0.00000  Uiso   1.00
C326   C     0.22037   0.91247   0.71817   0.00000  Uiso   1.00
C327   C     0.24314   0.99760   0.84131   0.00000  Uiso   1.00
C328   C     0.13092   0.81895   0.48261   0.00000  Uiso   1.00
C329   C     0.14152   0.82554   0.34908   0.00000  Uiso   1.00
C330   C     0.10828   0.86409   0.31048   0.00000  Uiso   1.00
C331   C     0.06617   0.92118   0.19767   0.00000  Uiso   1.00
C332   C     0.12956   0.72040   0.63733   0.00000  Uiso   1.00
C333   C     0.13901   0.64412   0.63388   0.00000  Uiso   1.00
C334   C     0.10462   0.59969   0.72553   0.00000  Uiso   1.00
C335   C     0.06040   0.50377   0.85295   0.00000  Uiso   1.00
C336   C     0.08431   0.83587   0.71515   0.00000  Uiso   1.00
C337   C     0.13040   0.86779   0.72631   0.00000  Uiso   1.00
C338   C     0.13228   0.92149   0.81568   0.00000  Uiso   1.00
C339   C     0.17800   0.94333   0.81007   0.00000  Uiso   1.00
C340   C     0.08863   0.84976   0.57433   0.00000  Uiso   1.00
C341   C     0.05536   0.88830   0.53592   0.00000  Uiso   1.00
C342   C     0.06591   0.89495   0.40237   0.00000  Uiso   1.00
C343   C     0.08727   0.75120   0.72906   0.00000  Uiso   1.00
C344   C     0.05286   0.70688   0.82073   0.00000  Uiso   1.00
C345   C     0.06225   0.63055   0.81742   0.00000  Uiso   1.00
H346   H     0.19511   0.75516   0.47485   0.00000  Uiso   1.00
H347   H     0.25115   0.83488   0.55783   0.00000  Uiso   1.00
H348   H     0.17425   0.80168   0.27812   0.00000  Uiso   1.00
H349   H     0.17174   0.62030   0.56288   0.00000  Uiso   1.00
H350   H     0.29463   0.93688   0.69025   0.00000  Uiso   1.00
H351   H     0.13247   0.86686   0.10046   0.00000  Uiso   1.00
H352   H     0.12719   0.48436   0.70093   0.00000  Uiso   1.00
H353   H     0.05138   0.85986   0.78656   0.00000  Uiso   1.00
H354   H     0.09954   0.94533   0.88666   0.00000  Uiso   1.00
H355   H     0.02264   0.91213   0.60694   0.00000  Uiso   1.00
H356   H     0.02013   0.73074   0.89170   0.00000  Uiso   1.00
H357   H     0.17158   0.02652   0.95713   0.00000  Uiso   1.00
H358   H     0.00942   0.95650   0.36734   0.00000  Uiso   1.00
H359   H     0.00413   0.57400   0.96781   0.00000  Uiso   1.00
O360   O     0.26738   0.03606   0.88388   0.00000  Uiso   1.00
O361   O     0.05462   0.94417   0.11010   0.00000  Uiso   1.00
O362   O     0.04770   0.44235   0.89791   0.00000  Uiso   1.00
N363   N     0.25906   0.94624   0.73934   0.00000  Uiso   1.00
N364   N     0.10745   0.88078   0.18792   0.00000  Uiso   1.00
N365   N     0.10251   0.52317   0.74929   0.00000  Uiso   1.00
N366   N     0.19285   0.99447   0.88295   0.00000  Uiso   1.00
N367   N     0.04124   0.92902   0.33153   0.00000  Uiso   1.00
N368   N     0.03630   0.57141   0.89290   0.00000  Uiso   1.00
