data_job_04266
_audit_creation_date              2018-12-19
_audit_creation_method            'Materials Studio'
_symmetry_space_group_name_H-M    'P1'
_symmetry_Int_Tables_number       1
_symmetry_cell_setting            triclinic
loop_
_symmetry_equiv_pos_as_xyz
  x,y,z
_cell_length_a                    7.2618
_cell_length_b                    12.3111
_cell_length_c                    26.9354
_cell_angle_alpha                 90.3213
_cell_angle_beta                  83.1133
_cell_angle_gamma                 73.3795
loop_
_atom_site_label
_atom_site_type_symbol
_atom_site_fract_x
_atom_site_fract_y
_atom_site_fract_z
_atom_site_U_iso_or_equiv
_atom_site_adp_type
_atom_site_occupancy
C1     C     0.88959   0.31491   0.12786   0.00000  Uiso   1.00
C2     C     0.72951   0.42000   0.14915   0.00000  Uiso   1.00
C3     C     0.75507   0.51000   0.17600   0.00000  Uiso   1.00
C4     C     0.59029   0.59815   0.19226   0.00000  Uiso   1.00
C5     C     0.36966   0.76159   0.22690   0.00000  Uiso   1.00
C6     C     0.83178   0.21352   0.14958   0.00000  Uiso   1.00
C7     C     0.94334   0.12992   0.17678   0.00000  Uiso   1.00
C8     C     0.86464   0.04426   0.19339   0.00000  Uiso   1.00
C9     C     0.80284   0.88710   0.22866   0.00000  Uiso   1.00
C10    C     0.87576   0.30881   0.07192   0.00000  Uiso   1.00
C11    C     0.02431   0.30529   0.03382   0.00000  Uiso   1.00
C12    C     0.98266   0.29982   0.98505   0.00000  Uiso   1.00
C13    C     0.98915   0.29060   0.89975   0.00000  Uiso   1.00
C14    C     0.55148   0.31142   0.10899   0.00000  Uiso   1.00
C15    C     0.54587   0.41810   0.13891   0.00000  Uiso   1.00
C16    C     0.38100   0.50614   0.15513   0.00000  Uiso   1.00
C17    C     0.40631   0.59626   0.18199   0.00000  Uiso   1.00
C18    C     0.64814   0.21163   0.13933   0.00000  Uiso   1.00
C19    C     0.56926   0.12606   0.15591   0.00000  Uiso   1.00
C20    C     0.68066   0.04236   0.18312   0.00000  Uiso   1.00
C21    C     0.69211   0.30692   0.06167   0.00000  Uiso   1.00
C22    C     0.65023   0.30144   0.01295   0.00000  Uiso   1.00
C23    C     0.79868   0.29792   0.97478   0.00000  Uiso   1.00
H24    H     0.03256   0.31638   0.13584   0.00000  Uiso   1.00
H25    H     0.89722   0.51143   0.18393   0.00000  Uiso   1.00
H26    H     0.08546   0.13140   0.18470   0.00000  Uiso   1.00
H27    H     0.16641   0.30675   0.04177   0.00000  Uiso   1.00
H28    H     0.66617   0.72683   0.23274   0.00000  Uiso   1.00
H29    H     0.06311   0.92550   0.23435   0.00000  Uiso   1.00
H30    H     0.23382   0.29525   0.93295   0.00000  Uiso   1.00
H31    H     0.40850   0.30994   0.10102   0.00000  Uiso   1.00
H32    H     0.23890   0.50465   0.14719   0.00000  Uiso   1.00
H33    H     0.42715   0.12462   0.14797   0.00000  Uiso   1.00
H34    H     0.50810   0.29997   0.00503   0.00000  Uiso   1.00
H35    H     0.13185   0.72132   0.20292   0.00000  Uiso   1.00
H36    H     0.52880   0.91999   0.20454   0.00000  Uiso   1.00
H37    H     0.69950   0.28975   0.90314   0.00000  Uiso   1.00
O38    O     0.29870   0.85226   0.24885   0.00000  Uiso   1.00
O39    O     0.81949   0.80094   0.25096   0.00000  Uiso   1.00
O40    O     0.04345   0.28605   0.85553   0.00000  Uiso   1.00
N41    N     0.56370   0.69882   0.21937   0.00000  Uiso   1.00
N42    N     0.93480   0.94964   0.22089   0.00000  Uiso   1.00
N43    N     0.09441   0.29529   0.93910   0.00000  Uiso   1.00
N44    N     0.27619   0.69586   0.20333   0.00000  Uiso   1.00
N45    N     0.64729   0.94668   0.20485   0.00000  Uiso   1.00
N46    N     0.80690   0.29233   0.92306   0.00000  Uiso   1.00
C47    C     0.93082   0.19972   0.61432   0.00000  Uiso   1.00
C48    C     0.05733   0.09381   0.63570   0.00000  Uiso   1.00
C49    C     0.99547   0.00394   0.65480   0.00000  Uiso   1.00
C50    C     0.13349   0.91494   0.67259   0.00000  Uiso   1.00
C51    C     0.30055   0.75036   0.70600   0.00000  Uiso   1.00
C52    C     0.95118   0.30022   0.64427   0.00000  Uiso   1.00
C53    C     0.80006   0.38391   0.67057   0.00000  Uiso   1.00
C54    C     0.84874   0.46868   0.69557   0.00000  Uiso   1.00
C55    C     0.85099   0.62463   0.74225   0.00000  Uiso   1.00
C56    C     0.02733   0.20633   0.56139   0.00000  Uiso   1.00
C57    C     0.94024   0.21110   0.51800   0.00000  Uiso   1.00
C58    C     0.05303   0.21684   0.47322   0.00000  Uiso   1.00
C59    C     0.17352   0.22700   0.39121   0.00000  Uiso   1.00
C60    C     0.28596   0.20147   0.61195   0.00000  Uiso   1.00
C61    C     0.25022   0.09476   0.63441   0.00000  Uiso   1.00
C62    C     0.38838   0.00587   0.65217   0.00000  Uiso   1.00
C63    C     0.32674   0.91588   0.67130   0.00000  Uiso   1.00
C64    C     0.14407   0.30118   0.64298   0.00000  Uiso   1.00
C65    C     0.19298   0.38585   0.66794   0.00000  Uiso   1.00
C66    C     0.04198   0.46964   0.69428   0.00000  Uiso   1.00
C67    C     0.22023   0.20728   0.56010   0.00000  Uiso   1.00
C68    C     0.33316   0.21303   0.51538   0.00000  Uiso   1.00
C69    C     0.24627   0.21780   0.47193   0.00000  Uiso   1.00
H70    H     0.78065   0.19898   0.61533   0.00000  Uiso   1.00
H71    H     0.84617   0.00324   0.65579   0.00000  Uiso   1.00
H72    H     0.65080   0.38316   0.67155   0.00000  Uiso   1.00
H73    H     0.79097   0.21036   0.51901   0.00000  Uiso   1.00
H74    H     0.00387   0.78665   0.70010   0.00000  Uiso   1.00
H75    H     0.59192   0.58776   0.73332   0.00000  Uiso   1.00
H76    H     0.88748   0.22339   0.41165   0.00000  Uiso   1.00
H77    H     0.43614   0.20221   0.61095   0.00000  Uiso   1.00
H78    H     0.53764   0.00663   0.65117   0.00000  Uiso   1.00
H79    H     0.34227   0.38656   0.66694   0.00000  Uiso   1.00
H80    H     0.48243   0.21376   0.51439   0.00000  Uiso   1.00
H81    H     0.56509   0.78941   0.69636   0.00000  Uiso   1.00
H82    H     0.15313   0.59053   0.72958   0.00000  Uiso   1.00
H83    H     0.44870   0.22615   0.40791   0.00000  Uiso   1.00
O84    O     0.33941   0.65934   0.72478   0.00000  Uiso   1.00
O85    O     0.79894   0.71037   0.76836   0.00000  Uiso   1.00
O86    O     0.18671   0.23232   0.34634   0.00000  Uiso   1.00
N87    N     0.12203   0.81413   0.69369   0.00000  Uiso   1.00
N88    N     0.73688   0.56311   0.72476   0.00000  Uiso   1.00
N89    N     0.01319   0.22249   0.42402   0.00000  Uiso   1.00
N90    N     0.42402   0.81562   0.69168   0.00000  Uiso   1.00
N91    N     0.03887   0.56460   0.72274   0.00000  Uiso   1.00
N92    N     0.31518   0.22397   0.42201   0.00000  Uiso   1.00
C93    C     0.11041   0.68509   0.87214   0.00000  Uiso   1.00
C94    C     0.27049   0.58000   0.85085   0.00000  Uiso   1.00
C95    C     0.24493   0.49000   0.82400   0.00000  Uiso   1.00
C96    C     0.40971   0.40185   0.80774   0.00000  Uiso   1.00
C97    C     0.63034   0.23841   0.77310   0.00000  Uiso   1.00
C98    C     0.16822   0.78648   0.85042   0.00000  Uiso   1.00
C99    C     0.05666   0.87008   0.82322   0.00000  Uiso   1.00
C100   C     0.13536   0.95574   0.80661   0.00000  Uiso   1.00
C101   C     0.19716   0.11290   0.77134   0.00000  Uiso   1.00
C102   C     0.12424   0.69119   0.92808   0.00000  Uiso   1.00
C103   C     0.97569   0.69471   0.96618   0.00000  Uiso   1.00
C104   C     0.01734   0.70018   0.01495   0.00000  Uiso   1.00
C105   C     0.01085   0.70940   0.10025   0.00000  Uiso   1.00
C106   C     0.44852   0.68858   0.89101   0.00000  Uiso   1.00
C107   C     0.45413   0.58190   0.86109   0.00000  Uiso   1.00
C108   C     0.61900   0.49386   0.84487   0.00000  Uiso   1.00
C109   C     0.59369   0.40374   0.81801   0.00000  Uiso   1.00
C110   C     0.35186   0.78837   0.86067   0.00000  Uiso   1.00
C111   C     0.43074   0.87394   0.84409   0.00000  Uiso   1.00
C112   C     0.31934   0.95764   0.81688   0.00000  Uiso   1.00
C113   C     0.30789   0.69308   0.93833   0.00000  Uiso   1.00
C114   C     0.34977   0.69856   0.98705   0.00000  Uiso   1.00
C115   C     0.20132   0.70208   0.02522   0.00000  Uiso   1.00
H116   H     0.96744   0.68362   0.86416   0.00000  Uiso   1.00
H117   H     0.10278   0.48857   0.81607   0.00000  Uiso   1.00
H118   H     0.91454   0.86860   0.81530   0.00000  Uiso   1.00
H119   H     0.83359   0.69325   0.95823   0.00000  Uiso   1.00
H120   H     0.33383   0.27317   0.76726   0.00000  Uiso   1.00
H121   H     0.93689   0.07450   0.76565   0.00000  Uiso   1.00
H122   H     0.76618   0.70475   0.06705   0.00000  Uiso   1.00
H123   H     0.59150   0.69006   0.89898   0.00000  Uiso   1.00
H124   H     0.76110   0.49535   0.85281   0.00000  Uiso   1.00
H125   H     0.57285   0.87538   0.85203   0.00000  Uiso   1.00
H126   H     0.49190   0.70003   0.99497   0.00000  Uiso   1.00
H127   H     0.86815   0.27868   0.79708   0.00000  Uiso   1.00
H128   H     0.47120   0.08001   0.79546   0.00000  Uiso   1.00
H129   H     0.30050   0.71025   0.09686   0.00000  Uiso   1.00
O130   O     0.70130   0.14774   0.75115   0.00000  Uiso   1.00
O131   O     0.18051   0.19906   0.74904   0.00000  Uiso   1.00
O132   O     0.95655   0.71395   0.14447   0.00000  Uiso   1.00
N133   N     0.43630   0.30118   0.78063   0.00000  Uiso   1.00
N134   N     0.06520   0.05036   0.77911   0.00000  Uiso   1.00
N135   N     0.90559   0.70471   0.06090   0.00000  Uiso   1.00
N136   N     0.72381   0.30414   0.79667   0.00000  Uiso   1.00
N137   N     0.35271   0.05332   0.79515   0.00000  Uiso   1.00
N138   N     0.19310   0.70767   0.07694   0.00000  Uiso   1.00
C139   C     0.06918   0.80028   0.38568   0.00000  Uiso   1.00
C140   C     0.94267   0.90619   0.36430   0.00000  Uiso   1.00
C141   C     0.00453   0.99606   0.34520   0.00000  Uiso   1.00
C142   C     0.86651   0.08506   0.32741   0.00000  Uiso   1.00
C143   C     0.69945   0.24964   0.29400   0.00000  Uiso   1.00
C144   C     0.04882   0.69978   0.35573   0.00000  Uiso   1.00
C145   C     0.19994   0.61609   0.32943   0.00000  Uiso   1.00
C146   C     0.15126   0.53132   0.30443   0.00000  Uiso   1.00
C147   C     0.14901   0.37537   0.25775   0.00000  Uiso   1.00
C148   C     0.97267   0.79367   0.43861   0.00000  Uiso   1.00
C149   C     0.05976   0.78890   0.48200   0.00000  Uiso   1.00
C150   C     0.94697   0.78316   0.52678   0.00000  Uiso   1.00
C151   C     0.82648   0.77300   0.60879   0.00000  Uiso   1.00
C152   C     0.71404   0.79853   0.38805   0.00000  Uiso   1.00
C153   C     0.74978   0.90524   0.36559   0.00000  Uiso   1.00
C154   C     0.61162   0.99413   0.34783   0.00000  Uiso   1.00
C155   C     0.67326   0.08412   0.32870   0.00000  Uiso   1.00
C156   C     0.85593   0.69882   0.35702   0.00000  Uiso   1.00
C157   C     0.80702   0.61415   0.33206   0.00000  Uiso   1.00
C158   C     0.95802   0.53036   0.30572   0.00000  Uiso   1.00
C159   C     0.77977   0.79272   0.43990   0.00000  Uiso   1.00
C160   C     0.66684   0.78697   0.48462   0.00000  Uiso   1.00
C161   C     0.75373   0.78220   0.52807   0.00000  Uiso   1.00
H162   H     0.21935   0.80102   0.38467   0.00000  Uiso   1.00
H163   H     0.15383   0.99676   0.34421   0.00000  Uiso   1.00
H164   H     0.34920   0.61684   0.32845   0.00000  Uiso   1.00
H165   H     0.20903   0.78964   0.48099   0.00000  Uiso   1.00
H166   H     0.99613   0.21335   0.29990   0.00000  Uiso   1.00
H167   H     0.40808   0.41224   0.26668   0.00000  Uiso   1.00
H168   H     0.11252   0.77661   0.58835   0.00000  Uiso   1.00
H169   H     0.56386   0.79779   0.38905   0.00000  Uiso   1.00
H170   H     0.46236   0.99337   0.34883   0.00000  Uiso   1.00
H171   H     0.65773   0.61344   0.33306   0.00000  Uiso   1.00
H172   H     0.51757   0.78624   0.48561   0.00000  Uiso   1.00
H173   H     0.43491   0.21059   0.30364   0.00000  Uiso   1.00
H174   H     0.84687   0.40947   0.27042   0.00000  Uiso   1.00
H175   H     0.55130   0.77385   0.59209   0.00000  Uiso   1.00
O176   O     0.66059   0.34066   0.27522   0.00000  Uiso   1.00
O177   O     0.20106   0.28963   0.23164   0.00000  Uiso   1.00
O178   O     0.81329   0.76768   0.65366   0.00000  Uiso   1.00
N179   N     0.87797   0.18587   0.30631   0.00000  Uiso   1.00
N180   N     0.26312   0.43689   0.27524   0.00000  Uiso   1.00
N181   N     0.98681   0.77751   0.57598   0.00000  Uiso   1.00
N182   N     0.57598   0.18438   0.30832   0.00000  Uiso   1.00
N183   N     0.96113   0.43540   0.27726   0.00000  Uiso   1.00
N184   N     0.68482   0.77603   0.57799   0.00000  Uiso   1.00
