data_job_04660
_audit_creation_date              2018-12-19
_audit_creation_method            'Materials Studio'
_symmetry_space_group_name_H-M    'P1'
_symmetry_Int_Tables_number       1
_symmetry_cell_setting            triclinic
loop_
_symmetry_equiv_pos_as_xyz
  x,y,z
_cell_length_a                    13.4993
_cell_length_b                    12.2642
_cell_length_c                    42.5178
_cell_angle_alpha                 90.0000
_cell_angle_beta                  90.0000
_cell_angle_gamma                 90.0000
loop_
_atom_site_label
_atom_site_type_symbol
_atom_site_fract_x
_atom_site_fract_y
_atom_site_fract_z
_atom_site_U_iso_or_equiv
_atom_site_adp_type
_atom_site_occupancy
C1     C     0.50947   0.68798   0.84333   0.00000  Uiso   1.00
C2     C     0.57060   0.76205   0.82204   0.00000  Uiso   1.00
C3     C     0.53591   0.85385   0.80646   0.00000  Uiso   1.00
C4     C     0.60350   0.91067   0.78810   0.00000  Uiso   1.00
C5     C     0.68339   0.03081   0.75544   0.00000  Uiso   1.00
C6     C     0.51927   0.57347   0.82970   0.00000  Uiso   1.00
C7     C     0.44140   0.50671   0.82056   0.00000  Uiso   1.00
C8     C     0.46579   0.40477   0.80865   0.00000  Uiso   1.00
C9     C     0.46598   0.23210   0.78790   0.00000  Uiso   1.00
C10    C     0.56310   0.68568   0.87489   0.00000  Uiso   1.00
C11    C     0.52209   0.71324   0.90374   0.00000  Uiso   1.00
C12    C     0.58338   0.70575   0.92988   0.00000  Uiso   1.00
C13    C     0.65163   0.70731   0.97929   0.00000  Uiso   1.00
C14    C     0.69123   0.62564   0.83843   0.00000  Uiso   1.00
C15    C     0.66932   0.72819   0.81938   0.00000  Uiso   1.00
C16    C     0.73699   0.78488   0.80104   0.00000  Uiso   1.00
C17    C     0.70240   0.87675   0.78544   0.00000  Uiso   1.00
C18    C     0.61798   0.53961   0.82704   0.00000  Uiso   1.00
C19    C     0.64249   0.43774   0.81514   0.00000  Uiso   1.00
C20    C     0.56469   0.37085   0.80599   0.00000  Uiso   1.00
C21    C     0.66182   0.65182   0.87223   0.00000  Uiso   1.00
C22    C     0.72318   0.64428   0.89833   0.00000  Uiso   1.00
C23    C     0.68228   0.67182   0.92722   0.00000  Uiso   1.00
H24    H     0.43262   0.71433   0.84540   0.00000  Uiso   1.00
H25    H     0.45950   0.88002   0.80852   0.00000  Uiso   1.00
H26    H     0.36502   0.53293   0.82262   0.00000  Uiso   1.00
H27    H     0.44570   0.73944   0.90579   0.00000  Uiso   1.00
H28    H     0.53283   0.04877   0.76645   0.00000  Uiso   1.00
H29    H     0.33361   0.31689   0.79620   0.00000  Uiso   1.00
H30    H     0.50373   0.75235   0.97158   0.00000  Uiso   1.00
H31    H     0.76809   0.59927   0.83636   0.00000  Uiso   1.00
H32    H     0.81339   0.75866   0.79899   0.00000  Uiso   1.00
H33    H     0.71890   0.41156   0.81309   0.00000  Uiso   1.00
H34    H     0.79958   0.61807   0.89626   0.00000  Uiso   1.00
H35    H     0.82006   0.95026   0.75872   0.00000  Uiso   1.00
H36    H     0.62083   0.21838   0.78847   0.00000  Uiso   1.00
H37    H     0.79096   0.65384   0.96384   0.00000  Uiso   1.00
O38    O     0.70018   0.10642   0.73815   0.00000  Uiso   1.00
O39    O     0.43880   0.14622   0.77719   0.00000  Uiso   1.00
O40    O     0.66200   0.71753   0.00727   0.00000  Uiso   1.00
N41    N     0.59422   0.00373   0.76977   0.00000  Uiso   1.00
N42    N     0.40795   0.31947   0.79757   0.00000  Uiso   1.00
N43    N     0.56700   0.72656   0.96154   0.00000  Uiso   1.00
N44    N     0.74877   0.95072   0.76560   0.00000  Uiso   1.00
N45    N     0.56251   0.26647   0.79341   0.00000  Uiso   1.00
N46    N     0.72155   0.67355   0.95737   0.00000  Uiso   1.00
C47    C     0.51432   0.94387   0.14999   0.00000  Uiso   1.00
C48    C     0.44801   0.02940   0.16530   0.00000  Uiso   1.00
C49    C     0.47861   0.13035   0.17640   0.00000  Uiso   1.00
C50    C     0.40661   0.19690   0.18963   0.00000  Uiso   1.00
C51    C     0.31872   0.33474   0.21311   0.00000  Uiso   1.00
C52    C     0.50138   0.84015   0.16934   0.00000  Uiso   1.00
C53    C     0.57686   0.78198   0.18381   0.00000  Uiso   1.00
C54    C     0.54978   0.68921   0.20044   0.00000  Uiso   1.00
C55    C     0.54476   0.53320   0.23016   0.00000  Uiso   1.00
C56    C     0.46864   0.92004   0.11792   0.00000  Uiso   1.00
C57    C     0.51659   0.92901   0.08916   0.00000  Uiso   1.00
C58    C     0.46194   0.90347   0.06249   0.00000  Uiso   1.00
C59    C     0.40608   0.87150   0.01238   0.00000  Uiso   1.00
C60    C     0.33202   0.88255   0.15377   0.00000  Uiso   1.00
C61    C     0.34899   0.99608   0.16736   0.00000  Uiso   1.00
C62    C     0.27692   0.06250   0.18057   0.00000  Uiso   1.00
C63    C     0.30741   0.16353   0.19168   0.00000  Uiso   1.00
C64    C     0.40237   0.80684   0.17139   0.00000  Uiso   1.00
C65    C     0.37517   0.71413   0.18799   0.00000  Uiso   1.00
C66    C     0.45058   0.65584   0.20249   0.00000  Uiso   1.00
C67    C     0.36962   0.88673   0.11997   0.00000  Uiso   1.00
C68    C     0.31489   0.86116   0.09334   0.00000  Uiso   1.00
C69    C     0.36274   0.87010   0.06455   0.00000  Uiso   1.00
H70    H     0.59141   0.96980   0.14839   0.00000  Uiso   1.00
H71    H     0.55525   0.15609   0.17481   0.00000  Uiso   1.00
H72    H     0.65348   0.80777   0.18222   0.00000  Uiso   1.00
H73    H     0.59321   0.95479   0.08758   0.00000  Uiso   1.00
H74    H     0.47150   0.34792   0.20501   0.00000  Uiso   1.00
H75    H     0.67863   0.61345   0.22063   0.00000  Uiso   1.00
H76    H     0.55155   0.92346   0.02106   0.00000  Uiso   1.00
H77    H     0.25493   0.85661   0.15536   0.00000  Uiso   1.00
H78    H     0.20030   0.03670   0.18216   0.00000  Uiso   1.00
H79    H     0.29853   0.68837   0.18957   0.00000  Uiso   1.00
H80    H     0.23827   0.83539   0.09494   0.00000  Uiso   1.00
H81    H     0.18341   0.25102   0.21098   0.00000  Uiso   1.00
H82    H     0.39054   0.51654   0.22660   0.00000  Uiso   1.00
H83    H     0.26346   0.82655   0.02703   0.00000  Uiso   1.00
O84    O     0.29760   0.41997   0.22550   0.00000  Uiso   1.00
O85    O     0.56935   0.45635   0.24600   0.00000  Uiso   1.00
O86    O     0.40262   0.86308   0.98417   0.00000  Uiso   1.00
N87    N     0.41119   0.30041   0.20273   0.00000  Uiso   1.00
N88    N     0.60485   0.61373   0.21734   0.00000  Uiso   1.00
N89    N     0.48604   0.90353   0.03076   0.00000  Uiso   1.00
N90    N     0.25617   0.24827   0.20594   0.00000  Uiso   1.00
N91    N     0.44983   0.56159   0.22055   0.00000  Uiso   1.00
N92    N     0.33102   0.85139   0.03397   0.00000  Uiso   1.00
C93    C     0.49053   0.31202   0.34333   0.00000  Uiso   1.00
C94    C     0.42940   0.23795   0.32204   0.00000  Uiso   1.00
C95    C     0.46409   0.14615   0.30646   0.00000  Uiso   1.00
C96    C     0.39650   0.08933   0.28810   0.00000  Uiso   1.00
C97    C     0.31661   0.96919   0.25544   0.00000  Uiso   1.00
C98    C     0.48073   0.42653   0.32970   0.00000  Uiso   1.00
C99    C     0.55860   0.49329   0.32056   0.00000  Uiso   1.00
C100   C     0.53421   0.59523   0.30865   0.00000  Uiso   1.00
C101   C     0.53402   0.76790   0.28790   0.00000  Uiso   1.00
C102   C     0.43690   0.31432   0.37489   0.00000  Uiso   1.00
C103   C     0.47791   0.28676   0.40374   0.00000  Uiso   1.00
C104   C     0.41662   0.29425   0.42988   0.00000  Uiso   1.00
C105   C     0.34837   0.29269   0.47929   0.00000  Uiso   1.00
C106   C     0.30877   0.37436   0.33843   0.00000  Uiso   1.00
C107   C     0.33068   0.27181   0.31938   0.00000  Uiso   1.00
C108   C     0.26301   0.21512   0.30104   0.00000  Uiso   1.00
C109   C     0.29760   0.12325   0.28544   0.00000  Uiso   1.00
C110   C     0.38202   0.46039   0.32704   0.00000  Uiso   1.00
C111   C     0.35751   0.56226   0.31514   0.00000  Uiso   1.00
C112   C     0.43531   0.62915   0.30599   0.00000  Uiso   1.00
C113   C     0.33818   0.34818   0.37223   0.00000  Uiso   1.00
C114   C     0.27682   0.35572   0.39833   0.00000  Uiso   1.00
C115   C     0.31772   0.32818   0.42722   0.00000  Uiso   1.00
H116   H     0.56738   0.28567   0.34540   0.00000  Uiso   1.00
H117   H     0.54050   0.11998   0.30852   0.00000  Uiso   1.00
H118   H     0.63498   0.46707   0.32262   0.00000  Uiso   1.00
H119   H     0.55430   0.26056   0.40579   0.00000  Uiso   1.00
H120   H     0.46717   0.95123   0.26645   0.00000  Uiso   1.00
H121   H     0.66639   0.68311   0.29620   0.00000  Uiso   1.00
H122   H     0.49627   0.24765   0.47158   0.00000  Uiso   1.00
H123   H     0.23191   0.40073   0.33636   0.00000  Uiso   1.00
H124   H     0.18661   0.24134   0.29899   0.00000  Uiso   1.00
H125   H     0.28110   0.58844   0.31309   0.00000  Uiso   1.00
H126   H     0.20042   0.38193   0.39626   0.00000  Uiso   1.00
H127   H     0.17994   0.04974   0.25872   0.00000  Uiso   1.00
H128   H     0.37917   0.78162   0.28847   0.00000  Uiso   1.00
H129   H     0.20904   0.34616   0.46384   0.00000  Uiso   1.00
O130   O     0.29982   0.89358   0.23815   0.00000  Uiso   1.00
O131   O     0.56120   0.85378   0.27719   0.00000  Uiso   1.00
O132   O     0.33800   0.28247   0.50727   0.00000  Uiso   1.00
N133   N     0.40578   0.99627   0.26977   0.00000  Uiso   1.00
N134   N     0.59205   0.68053   0.29757   0.00000  Uiso   1.00
N135   N     0.43300   0.27344   0.46154   0.00000  Uiso   1.00
N136   N     0.25123   0.04928   0.26560   0.00000  Uiso   1.00
N137   N     0.43749   0.73353   0.29341   0.00000  Uiso   1.00
N138   N     0.27845   0.32645   0.45737   0.00000  Uiso   1.00
C139   C     0.48568   0.05613   0.64999   0.00000  Uiso   1.00
C140   C     0.55199   0.97060   0.66530   0.00000  Uiso   1.00
C141   C     0.52139   0.86965   0.67640   0.00000  Uiso   1.00
C142   C     0.59339   0.80310   0.68963   0.00000  Uiso   1.00
C143   C     0.68128   0.66526   0.71311   0.00000  Uiso   1.00
C144   C     0.49862   0.15985   0.66934   0.00000  Uiso   1.00
C145   C     0.42314   0.21802   0.68381   0.00000  Uiso   1.00
C146   C     0.45022   0.31079   0.70044   0.00000  Uiso   1.00
C147   C     0.45524   0.46680   0.73016   0.00000  Uiso   1.00
C148   C     0.53136   0.07996   0.61792   0.00000  Uiso   1.00
C149   C     0.48341   0.07099   0.58916   0.00000  Uiso   1.00
C150   C     0.53806   0.09653   0.56249   0.00000  Uiso   1.00
C151   C     0.59392   0.12850   0.51238   0.00000  Uiso   1.00
C152   C     0.66798   0.11745   0.65377   0.00000  Uiso   1.00
C153   C     0.65101   0.00392   0.66736   0.00000  Uiso   1.00
C154   C     0.72308   0.93750   0.68057   0.00000  Uiso   1.00
C155   C     0.69259   0.83647   0.69168   0.00000  Uiso   1.00
C156   C     0.59763   0.19316   0.67139   0.00000  Uiso   1.00
C157   C     0.62483   0.28587   0.68799   0.00000  Uiso   1.00
C158   C     0.54942   0.34416   0.70249   0.00000  Uiso   1.00
C159   C     0.63038   0.11327   0.61997   0.00000  Uiso   1.00
C160   C     0.68511   0.13884   0.59334   0.00000  Uiso   1.00
C161   C     0.63726   0.12990   0.56455   0.00000  Uiso   1.00
H162   H     0.40859   0.03020   0.64839   0.00000  Uiso   1.00
H163   H     0.44475   0.84391   0.67481   0.00000  Uiso   1.00
H164   H     0.34652   0.19223   0.68222   0.00000  Uiso   1.00
H165   H     0.40679   0.04521   0.58758   0.00000  Uiso   1.00
H166   H     0.52850   0.65208   0.70501   0.00000  Uiso   1.00
H167   H     0.32137   0.38655   0.72063   0.00000  Uiso   1.00
H168   H     0.44845   0.07654   0.52106   0.00000  Uiso   1.00
H169   H     0.74507   0.14339   0.65536   0.00000  Uiso   1.00
H170   H     0.79970   0.96330   0.68216   0.00000  Uiso   1.00
H171   H     0.70147   0.31163   0.68957   0.00000  Uiso   1.00
H172   H     0.76173   0.16461   0.59494   0.00000  Uiso   1.00
H173   H     0.81659   0.74898   0.71098   0.00000  Uiso   1.00
H174   H     0.60946   0.48346   0.72660   0.00000  Uiso   1.00
H175   H     0.73654   0.17345   0.52703   0.00000  Uiso   1.00
O176   O     0.70240   0.58003   0.72550   0.00000  Uiso   1.00
O177   O     0.43065   0.54365   0.74600   0.00000  Uiso   1.00
O178   O     0.59738   0.13692   0.48417   0.00000  Uiso   1.00
N179   N     0.58881   0.69959   0.70273   0.00000  Uiso   1.00
N180   N     0.39515   0.38627   0.71734   0.00000  Uiso   1.00
N181   N     0.51396   0.09647   0.53076   0.00000  Uiso   1.00
N182   N     0.74383   0.75173   0.70594   0.00000  Uiso   1.00
N183   N     0.55017   0.43841   0.72055   0.00000  Uiso   1.00
N184   N     0.66898   0.14861   0.53397   0.00000  Uiso   1.00
C185   C     0.00947   0.81202   0.84333   0.00000  Uiso   1.00
C186   C     0.07060   0.73795   0.82204   0.00000  Uiso   1.00
C187   C     0.03591   0.64615   0.80646   0.00000  Uiso   1.00
C188   C     0.10350   0.58933   0.78810   0.00000  Uiso   1.00
C189   C     0.18339   0.46919   0.75544   0.00000  Uiso   1.00
C190   C     0.01927   0.92653   0.82970   0.00000  Uiso   1.00
C191   C     0.94140   0.99329   0.82056   0.00000  Uiso   1.00
C192   C     0.96579   0.09523   0.80865   0.00000  Uiso   1.00
C193   C     0.96598   0.26790   0.78790   0.00000  Uiso   1.00
C194   C     0.06310   0.81432   0.87489   0.00000  Uiso   1.00
C195   C     0.02209   0.78676   0.90374   0.00000  Uiso   1.00
C196   C     0.08338   0.79425   0.92988   0.00000  Uiso   1.00
C197   C     0.15163   0.79269   0.97929   0.00000  Uiso   1.00
C198   C     0.19123   0.87436   0.83843   0.00000  Uiso   1.00
C199   C     0.16932   0.77181   0.81938   0.00000  Uiso   1.00
C200   C     0.23699   0.71512   0.80104   0.00000  Uiso   1.00
C201   C     0.20240   0.62325   0.78544   0.00000  Uiso   1.00
C202   C     0.11798   0.96039   0.82704   0.00000  Uiso   1.00
C203   C     0.14249   0.06226   0.81514   0.00000  Uiso   1.00
C204   C     0.06469   0.12915   0.80599   0.00000  Uiso   1.00
C205   C     0.16182   0.84818   0.87223   0.00000  Uiso   1.00
C206   C     0.22318   0.85572   0.89833   0.00000  Uiso   1.00
C207   C     0.18228   0.82818   0.92722   0.00000  Uiso   1.00
H208   H     0.93262   0.78567   0.84540   0.00000  Uiso   1.00
H209   H     0.95950   0.61998   0.80852   0.00000  Uiso   1.00
H210   H     0.86502   0.96707   0.82262   0.00000  Uiso   1.00
H211   H     0.94570   0.76056   0.90579   0.00000  Uiso   1.00
H212   H     0.03283   0.45123   0.76645   0.00000  Uiso   1.00
H213   H     0.83361   0.18311   0.79620   0.00000  Uiso   1.00
H214   H     0.00373   0.74765   0.97158   0.00000  Uiso   1.00
H215   H     0.26809   0.90073   0.83636   0.00000  Uiso   1.00
H216   H     0.31339   0.74134   0.79899   0.00000  Uiso   1.00
H217   H     0.21890   0.08844   0.81309   0.00000  Uiso   1.00
H218   H     0.29958   0.88193   0.89626   0.00000  Uiso   1.00
H219   H     0.32006   0.54974   0.75872   0.00000  Uiso   1.00
H220   H     0.12083   0.28162   0.78847   0.00000  Uiso   1.00
H221   H     0.29096   0.84616   0.96384   0.00000  Uiso   1.00
O222   O     0.20018   0.39358   0.73815   0.00000  Uiso   1.00
O223   O     0.93880   0.35378   0.77719   0.00000  Uiso   1.00
O224   O     0.16200   0.78247   0.00727   0.00000  Uiso   1.00
N225   N     0.09422   0.49627   0.76977   0.00000  Uiso   1.00
N226   N     0.90795   0.18053   0.79757   0.00000  Uiso   1.00
N227   N     0.06700   0.77344   0.96154   0.00000  Uiso   1.00
N228   N     0.24877   0.54928   0.76560   0.00000  Uiso   1.00
N229   N     0.06251   0.23353   0.79341   0.00000  Uiso   1.00
N230   N     0.22155   0.82645   0.95737   0.00000  Uiso   1.00
C231   C     0.01432   0.55613   0.14999   0.00000  Uiso   1.00
C232   C     0.94801   0.47060   0.16530   0.00000  Uiso   1.00
C233   C     0.97861   0.36965   0.17640   0.00000  Uiso   1.00
C234   C     0.90661   0.30310   0.18963   0.00000  Uiso   1.00
C235   C     0.81872   0.16526   0.21311   0.00000  Uiso   1.00
C236   C     0.00138   0.65985   0.16934   0.00000  Uiso   1.00
C237   C     0.07686   0.71802   0.18381   0.00000  Uiso   1.00
C238   C     0.04978   0.81079   0.20044   0.00000  Uiso   1.00
C239   C     0.04476   0.96680   0.23016   0.00000  Uiso   1.00
C240   C     0.96864   0.57996   0.11792   0.00000  Uiso   1.00
C241   C     0.01659   0.57099   0.08916   0.00000  Uiso   1.00
C242   C     0.96194   0.59653   0.06249   0.00000  Uiso   1.00
C243   C     0.90608   0.62850   0.01238   0.00000  Uiso   1.00
C244   C     0.83202   0.61745   0.15377   0.00000  Uiso   1.00
C245   C     0.84899   0.50392   0.16736   0.00000  Uiso   1.00
C246   C     0.77692   0.43750   0.18057   0.00000  Uiso   1.00
C247   C     0.80741   0.33647   0.19168   0.00000  Uiso   1.00
C248   C     0.90237   0.69316   0.17139   0.00000  Uiso   1.00
C249   C     0.87517   0.78587   0.18799   0.00000  Uiso   1.00
C250   C     0.95058   0.84416   0.20249   0.00000  Uiso   1.00
C251   C     0.86962   0.61327   0.11997   0.00000  Uiso   1.00
C252   C     0.81489   0.63884   0.09334   0.00000  Uiso   1.00
C253   C     0.86274   0.62990   0.06455   0.00000  Uiso   1.00
H254   H     0.09141   0.53020   0.14839   0.00000  Uiso   1.00
H255   H     0.05525   0.34391   0.17481   0.00000  Uiso   1.00
H256   H     0.15348   0.69223   0.18222   0.00000  Uiso   1.00
H257   H     0.09321   0.54521   0.08758   0.00000  Uiso   1.00
H258   H     0.97150   0.15208   0.20501   0.00000  Uiso   1.00
H259   H     0.17863   0.88655   0.22063   0.00000  Uiso   1.00
H260   H     0.05155   0.57654   0.02106   0.00000  Uiso   1.00
H261   H     0.75493   0.64339   0.15536   0.00000  Uiso   1.00
H262   H     0.70030   0.46330   0.18216   0.00000  Uiso   1.00
H263   H     0.79853   0.81163   0.18957   0.00000  Uiso   1.00
H264   H     0.73827   0.66461   0.09494   0.00000  Uiso   1.00
H265   H     0.68341   0.24898   0.21098   0.00000  Uiso   1.00
H266   H     0.89054   0.98346   0.22660   0.00000  Uiso   1.00
H267   H     0.76346   0.67345   0.02703   0.00000  Uiso   1.00
O268   O     0.79760   0.08003   0.22550   0.00000  Uiso   1.00
O269   O     0.06935   0.04365   0.24600   0.00000  Uiso   1.00
O270   O     0.90262   0.63692   0.98417   0.00000  Uiso   1.00
N271   N     0.91119   0.19959   0.20273   0.00000  Uiso   1.00
N272   N     0.10485   0.88627   0.21734   0.00000  Uiso   1.00
N273   N     0.98604   0.59647   0.03076   0.00000  Uiso   1.00
N274   N     0.75617   0.25173   0.20594   0.00000  Uiso   1.00
N275   N     0.94983   0.93841   0.22055   0.00000  Uiso   1.00
N276   N     0.83102   0.64861   0.03397   0.00000  Uiso   1.00
C277   C     0.99053   0.18798   0.34333   0.00000  Uiso   1.00
C278   C     0.92940   0.26205   0.32204   0.00000  Uiso   1.00
C279   C     0.96409   0.35385   0.30646   0.00000  Uiso   1.00
C280   C     0.89650   0.41067   0.28810   0.00000  Uiso   1.00
C281   C     0.81661   0.53081   0.25544   0.00000  Uiso   1.00
C282   C     0.98073   0.07347   0.32970   0.00000  Uiso   1.00
C283   C     0.05860   0.00671   0.32056   0.00000  Uiso   1.00
C284   C     0.03421   0.90477   0.30865   0.00000  Uiso   1.00
C285   C     0.03402   0.73210   0.28790   0.00000  Uiso   1.00
C286   C     0.93690   0.18568   0.37489   0.00000  Uiso   1.00
C287   C     0.97791   0.21324   0.40374   0.00000  Uiso   1.00
C288   C     0.91662   0.20575   0.42988   0.00000  Uiso   1.00
C289   C     0.84837   0.20731   0.47929   0.00000  Uiso   1.00
C290   C     0.80877   0.12564   0.33843   0.00000  Uiso   1.00
C291   C     0.83068   0.22819   0.31938   0.00000  Uiso   1.00
C292   C     0.76301   0.28488   0.30104   0.00000  Uiso   1.00
C293   C     0.79760   0.37675   0.28544   0.00000  Uiso   1.00
C294   C     0.88202   0.03961   0.32704   0.00000  Uiso   1.00
C295   C     0.85751   0.93774   0.31514   0.00000  Uiso   1.00
C296   C     0.93531   0.87085   0.30599   0.00000  Uiso   1.00
C297   C     0.83818   0.15182   0.37223   0.00000  Uiso   1.00
C298   C     0.77682   0.14428   0.39833   0.00000  Uiso   1.00
C299   C     0.81772   0.17182   0.42722   0.00000  Uiso   1.00
H300   H     0.06738   0.21433   0.34540   0.00000  Uiso   1.00
H301   H     0.04050   0.38002   0.30852   0.00000  Uiso   1.00
H302   H     0.13498   0.03293   0.32262   0.00000  Uiso   1.00
H303   H     0.05430   0.23944   0.40579   0.00000  Uiso   1.00
H304   H     0.96717   0.54877   0.26645   0.00000  Uiso   1.00
H305   H     0.16639   0.81689   0.29620   0.00000  Uiso   1.00
H306   H     0.99627   0.25235   0.47158   0.00000  Uiso   1.00
H307   H     0.73191   0.09927   0.33636   0.00000  Uiso   1.00
H308   H     0.68661   0.25866   0.29899   0.00000  Uiso   1.00
H309   H     0.78110   0.91156   0.31309   0.00000  Uiso   1.00
H310   H     0.70042   0.11807   0.39626   0.00000  Uiso   1.00
H311   H     0.67994   0.45026   0.25872   0.00000  Uiso   1.00
H312   H     0.87917   0.71838   0.28847   0.00000  Uiso   1.00
H313   H     0.70904   0.15384   0.46384   0.00000  Uiso   1.00
O314   O     0.79982   0.60642   0.23815   0.00000  Uiso   1.00
O315   O     0.06120   0.64622   0.27719   0.00000  Uiso   1.00
O316   O     0.83800   0.21753   0.50727   0.00000  Uiso   1.00
N317   N     0.90578   0.50373   0.26977   0.00000  Uiso   1.00
N318   N     0.09205   0.81947   0.29757   0.00000  Uiso   1.00
N319   N     0.93300   0.22656   0.46154   0.00000  Uiso   1.00
N320   N     0.75123   0.45072   0.26560   0.00000  Uiso   1.00
N321   N     0.93749   0.76647   0.29341   0.00000  Uiso   1.00
N322   N     0.77845   0.17355   0.45737   0.00000  Uiso   1.00
C323   C     0.98568   0.44387   0.64999   0.00000  Uiso   1.00
C324   C     0.05199   0.52940   0.66530   0.00000  Uiso   1.00
C325   C     0.02139   0.63035   0.67640   0.00000  Uiso   1.00
C326   C     0.09339   0.69690   0.68963   0.00000  Uiso   1.00
C327   C     0.18128   0.83474   0.71311   0.00000  Uiso   1.00
C328   C     0.99862   0.34015   0.66934   0.00000  Uiso   1.00
C329   C     0.92314   0.28198   0.68381   0.00000  Uiso   1.00
C330   C     0.95022   0.18921   0.70044   0.00000  Uiso   1.00
C331   C     0.95524   0.03320   0.73016   0.00000  Uiso   1.00
C332   C     0.03136   0.42004   0.61792   0.00000  Uiso   1.00
C333   C     0.98341   0.42901   0.58916   0.00000  Uiso   1.00
C334   C     0.03806   0.40347   0.56249   0.00000  Uiso   1.00
C335   C     0.09392   0.37150   0.51238   0.00000  Uiso   1.00
C336   C     0.16798   0.38255   0.65377   0.00000  Uiso   1.00
C337   C     0.15101   0.49608   0.66736   0.00000  Uiso   1.00
C338   C     0.22308   0.56250   0.68057   0.00000  Uiso   1.00
C339   C     0.19259   0.66353   0.69168   0.00000  Uiso   1.00
C340   C     0.09763   0.30684   0.67139   0.00000  Uiso   1.00
C341   C     0.12483   0.21413   0.68799   0.00000  Uiso   1.00
C342   C     0.04942   0.15584   0.70249   0.00000  Uiso   1.00
C343   C     0.13038   0.38673   0.61997   0.00000  Uiso   1.00
C344   C     0.18511   0.36116   0.59334   0.00000  Uiso   1.00
C345   C     0.13726   0.37010   0.56455   0.00000  Uiso   1.00
H346   H     0.90859   0.46980   0.64839   0.00000  Uiso   1.00
H347   H     0.94475   0.65609   0.67481   0.00000  Uiso   1.00
H348   H     0.84652   0.30777   0.68222   0.00000  Uiso   1.00
H349   H     0.90679   0.45479   0.58758   0.00000  Uiso   1.00
H350   H     0.02850   0.84792   0.70501   0.00000  Uiso   1.00
H351   H     0.82137   0.11345   0.72063   0.00000  Uiso   1.00
H352   H     0.94845   0.42346   0.52106   0.00000  Uiso   1.00
H353   H     0.24507   0.35661   0.65536   0.00000  Uiso   1.00
H354   H     0.29970   0.53670   0.68216   0.00000  Uiso   1.00
H355   H     0.20147   0.18837   0.68957   0.00000  Uiso   1.00
H356   H     0.26173   0.33539   0.59494   0.00000  Uiso   1.00
H357   H     0.31659   0.75102   0.71098   0.00000  Uiso   1.00
H358   H     0.10946   0.01654   0.72660   0.00000  Uiso   1.00
H359   H     0.23654   0.32655   0.52703   0.00000  Uiso   1.00
O360   O     0.20240   0.91997   0.72550   0.00000  Uiso   1.00
O361   O     0.93065   0.95635   0.74600   0.00000  Uiso   1.00
O362   O     0.09738   0.36308   0.48417   0.00000  Uiso   1.00
N363   N     0.08881   0.80041   0.70273   0.00000  Uiso   1.00
N364   N     0.89515   0.11373   0.71734   0.00000  Uiso   1.00
N365   N     0.01396   0.40353   0.53076   0.00000  Uiso   1.00
N366   N     0.24383   0.74827   0.70594   0.00000  Uiso   1.00
N367   N     0.05017   0.06159   0.72055   0.00000  Uiso   1.00
N368   N     0.16898   0.35139   0.53397   0.00000  Uiso   1.00
