data_job_01940
_audit_creation_date              2018-12-19
_audit_creation_method            'Materials Studio'
_symmetry_space_group_name_H-M    'P1'
_symmetry_Int_Tables_number       1
_symmetry_cell_setting            triclinic
loop_
_symmetry_equiv_pos_as_xyz
  x,y,z
_cell_length_a                    19.6617
_cell_length_b                    13.6974
_cell_length_c                    18.1834
_cell_angle_alpha                 90.0000
_cell_angle_beta                  142.3339
_cell_angle_gamma                 90.0000
loop_
_atom_site_label
_atom_site_type_symbol
_atom_site_fract_x
_atom_site_fract_y
_atom_site_fract_z
_atom_site_U_iso_or_equiv
_atom_site_adp_type
_atom_site_occupancy
C1     C     0.95991   0.01646   0.62126   0.00000  Uiso   1.00
C2     C     0.06418   0.03625   0.75595   0.00000  Uiso   1.00
C3     C     0.13799   0.11289   0.80851   0.00000  Uiso   1.00
C4     C     0.22838   0.11830   0.93327   0.00000  Uiso   1.00
C5     C     0.38790   0.15947   0.13182   0.00000  Uiso   1.00
C6     C     0.97210   0.91271   0.60238   0.00000  Uiso   1.00
C7     C     0.96848   0.88547   0.52580   0.00000  Uiso   1.00
C8     C     0.98134   0.78687   0.52128   0.00000  Uiso   1.00
C9     C     0.99782   0.63622   0.48134   0.00000  Uiso   1.00
C10    C     0.86351   0.01360   0.59326   0.00000  Uiso   1.00
C11    C     0.76857   0.07118   0.50899   0.00000  Uiso   1.00
C12    C     0.69000   0.05750   0.49677   0.00000  Uiso   1.00
C13    C     0.53788   0.06351   0.44268   0.00000  Uiso   1.00
C14    C     0.98917   0.88977   0.74938   0.00000  Uiso   1.00
C15    C     0.08007   0.96744   0.82553   0.00000  Uiso   1.00
C16    C     0.17037   0.97273   0.95025   0.00000  Uiso   1.00
C17    C     0.24430   0.04937   0.00299   0.00000  Uiso   1.00
C18    C     0.98799   0.84389   0.67196   0.00000  Uiso   1.00
C19    C     0.00085   0.74531   0.66755   0.00000  Uiso   1.00
C20    C     0.99726   0.71793   0.59100   0.00000  Uiso   1.00
C21    C     0.87941   0.94479   0.66285   0.00000  Uiso   1.00
C22    C     0.80096   0.93101   0.65075   0.00000  Uiso   1.00
C23    C     0.70592   0.98857   0.56649   0.00000  Uiso   1.00
H24    H     0.94754   0.07003   0.56708   0.00000  Uiso   1.00
H25    H     0.12567   0.16613   0.75462   0.00000  Uiso   1.00
H26    H     0.95617   0.93874   0.47195   0.00000  Uiso   1.00
H27    H     0.75631   0.12442   0.45516   0.00000  Uiso   1.00
H28    H     0.33020   0.24230   0.99323   0.00000  Uiso   1.00
H29    H     0.97276   0.76284   0.39718   0.00000  Uiso   1.00
H30    H     0.55130   0.15438   0.36176   0.00000  Uiso   1.00
H31    H     0.00154   0.83619   0.80356   0.00000  Uiso   1.00
H32    H     0.18265   0.91947   0.00408   0.00000  Uiso   1.00
H33    H     0.01314   0.69208   0.72141   0.00000  Uiso   1.00
H34    H     0.81328   0.87776   0.70461   0.00000  Uiso   1.00
H35    H     0.37644   0.04210   0.19571   0.00000  Uiso   1.00
H36    H     0.01900   0.56263   0.59965   0.00000  Uiso   1.00
H37    H     0.59754   0.95418   0.56423   0.00000  Uiso   1.00
O38    O     0.47150   0.20118   0.22211   0.00000  Uiso   1.00
O39    O     0.00253   0.57214   0.44010   0.00000  Uiso   1.00
O40    O     0.44959   0.08584   0.39363   0.00000  Uiso   1.00
N41    N     0.31622   0.18377   0.01337   0.00000  Uiso   1.00
N42    N     0.98205   0.73550   0.45611   0.00000  Uiso   1.00
N43    N     0.58800   0.10154   0.42296   0.00000  Uiso   1.00
N44    N     0.34110   0.07604   0.12231   0.00000  Uiso   1.00
N45    N     0.00693   0.62777   0.56506   0.00000  Uiso   1.00
N46    N     0.61289   0.99382   0.53191   0.00000  Uiso   1.00
C47    C     0.04009   0.51646   0.87874   0.00000  Uiso   1.00
C48    C     0.93582   0.53625   0.74405   0.00000  Uiso   1.00
C49    C     0.86201   0.61289   0.69149   0.00000  Uiso   1.00
C50    C     0.77162   0.61830   0.56673   0.00000  Uiso   1.00
C51    C     0.61210   0.65947   0.36818   0.00000  Uiso   1.00
C52    C     0.02790   0.41271   0.89762   0.00000  Uiso   1.00
C53    C     0.03152   0.38547   0.97420   0.00000  Uiso   1.00
C54    C     0.01866   0.28687   0.97872   0.00000  Uiso   1.00
C55    C     0.00218   0.13622   0.01866   0.00000  Uiso   1.00
C56    C     0.13649   0.51360   0.90674   0.00000  Uiso   1.00
C57    C     0.23143   0.57118   0.99101   0.00000  Uiso   1.00
C58    C     0.31000   0.55750   0.00323   0.00000  Uiso   1.00
C59    C     0.46212   0.56351   0.05732   0.00000  Uiso   1.00
C60    C     0.01083   0.38977   0.75062   0.00000  Uiso   1.00
C61    C     0.91993   0.46744   0.67447   0.00000  Uiso   1.00
C62    C     0.82963   0.47273   0.54975   0.00000  Uiso   1.00
C63    C     0.75570   0.54937   0.49701   0.00000  Uiso   1.00
C64    C     0.01201   0.34389   0.82804   0.00000  Uiso   1.00
C65    C     0.99915   0.24531   0.83245   0.00000  Uiso   1.00
C66    C     0.00274   0.21793   0.90900   0.00000  Uiso   1.00
C67    C     0.12059   0.44479   0.83715   0.00000  Uiso   1.00
C68    C     0.19904   0.43101   0.84925   0.00000  Uiso   1.00
C69    C     0.29408   0.48857   0.93351   0.00000  Uiso   1.00
H70    H     0.05246   0.57003   0.93292   0.00000  Uiso   1.00
H71    H     0.87433   0.66613   0.74538   0.00000  Uiso   1.00
H72    H     0.04383   0.43874   0.02805   0.00000  Uiso   1.00
H73    H     0.24369   0.62442   0.04484   0.00000  Uiso   1.00
H74    H     0.66980   0.74230   0.50677   0.00000  Uiso   1.00
H75    H     0.02724   0.26284   0.10282   0.00000  Uiso   1.00
H76    H     0.44870   0.65438   0.13824   0.00000  Uiso   1.00
H77    H     0.99846   0.33619   0.69644   0.00000  Uiso   1.00
H78    H     0.81735   0.41947   0.49592   0.00000  Uiso   1.00
H79    H     0.98686   0.19208   0.77859   0.00000  Uiso   1.00
H80    H     0.18672   0.37776   0.79539   0.00000  Uiso   1.00
H81    H     0.62356   0.54210   0.30429   0.00000  Uiso   1.00
H82    H     0.98100   0.06263   0.90035   0.00000  Uiso   1.00
H83    H     0.40246   0.45418   0.93577   0.00000  Uiso   1.00
O84    O     0.52850   0.70118   0.27789   0.00000  Uiso   1.00
O85    O     0.99747   0.07214   0.05990   0.00000  Uiso   1.00
O86    O     0.55041   0.58584   0.10637   0.00000  Uiso   1.00
N87    N     0.68378   0.68377   0.48663   0.00000  Uiso   1.00
N88    N     0.01795   0.23550   0.04389   0.00000  Uiso   1.00
N89    N     0.41200   0.60154   0.07704   0.00000  Uiso   1.00
N90    N     0.65890   0.57604   0.37769   0.00000  Uiso   1.00
N91    N     0.99307   0.12777   0.93494   0.00000  Uiso   1.00
N92    N     0.38711   0.49382   0.96809   0.00000  Uiso   1.00
C93    C     0.04009   0.98354   0.37874   0.00000  Uiso   1.00
C94    C     0.93582   0.96375   0.24405   0.00000  Uiso   1.00
C95    C     0.86201   0.88711   0.19149   0.00000  Uiso   1.00
C96    C     0.77162   0.88170   0.06673   0.00000  Uiso   1.00
C97    C     0.61210   0.84053   0.86818   0.00000  Uiso   1.00
C98    C     0.02790   0.08729   0.39762   0.00000  Uiso   1.00
C99    C     0.03152   0.11453   0.47420   0.00000  Uiso   1.00
C100   C     0.01866   0.21313   0.47872   0.00000  Uiso   1.00
C101   C     0.00218   0.36378   0.51866   0.00000  Uiso   1.00
C102   C     0.13649   0.98640   0.40674   0.00000  Uiso   1.00
C103   C     0.23143   0.92882   0.49101   0.00000  Uiso   1.00
C104   C     0.31000   0.94250   0.50323   0.00000  Uiso   1.00
C105   C     0.46212   0.93649   0.55732   0.00000  Uiso   1.00
C106   C     0.01083   0.11023   0.25062   0.00000  Uiso   1.00
C107   C     0.91993   0.03256   0.17447   0.00000  Uiso   1.00
C108   C     0.82963   0.02727   0.04975   0.00000  Uiso   1.00
C109   C     0.75570   0.95063   0.99701   0.00000  Uiso   1.00
C110   C     0.01201   0.15611   0.32804   0.00000  Uiso   1.00
C111   C     0.99915   0.25469   0.33245   0.00000  Uiso   1.00
C112   C     0.00274   0.28207   0.40900   0.00000  Uiso   1.00
C113   C     0.12059   0.05521   0.33715   0.00000  Uiso   1.00
C114   C     0.19904   0.06899   0.34925   0.00000  Uiso   1.00
C115   C     0.29408   0.01143   0.43351   0.00000  Uiso   1.00
H116   H     0.05246   0.92997   0.43292   0.00000  Uiso   1.00
H117   H     0.87433   0.83387   0.24538   0.00000  Uiso   1.00
H118   H     0.04383   0.06126   0.52805   0.00000  Uiso   1.00
H119   H     0.24369   0.87558   0.54484   0.00000  Uiso   1.00
H120   H     0.66980   0.75770   0.00677   0.00000  Uiso   1.00
H121   H     0.02724   0.23716   0.60282   0.00000  Uiso   1.00
H122   H     0.44870   0.84562   0.63824   0.00000  Uiso   1.00
H123   H     0.99846   0.16381   0.19644   0.00000  Uiso   1.00
H124   H     0.81735   0.08053   0.99592   0.00000  Uiso   1.00
H125   H     0.98686   0.30792   0.27859   0.00000  Uiso   1.00
H126   H     0.18672   0.12224   0.29539   0.00000  Uiso   1.00
H127   H     0.62356   0.95790   0.80429   0.00000  Uiso   1.00
H128   H     0.98100   0.43737   0.40035   0.00000  Uiso   1.00
H129   H     0.40246   0.04582   0.43577   0.00000  Uiso   1.00
O130   O     0.52850   0.79882   0.77789   0.00000  Uiso   1.00
O131   O     0.99747   0.42786   0.55990   0.00000  Uiso   1.00
O132   O     0.55041   0.91416   0.60637   0.00000  Uiso   1.00
N133   N     0.68378   0.81623   0.98663   0.00000  Uiso   1.00
N134   N     0.01795   0.26450   0.54389   0.00000  Uiso   1.00
N135   N     0.41200   0.89846   0.57704   0.00000  Uiso   1.00
N136   N     0.65890   0.92396   0.87769   0.00000  Uiso   1.00
N137   N     0.99307   0.37223   0.43494   0.00000  Uiso   1.00
N138   N     0.38711   0.00618   0.46809   0.00000  Uiso   1.00
C139   C     0.95991   0.48354   0.12126   0.00000  Uiso   1.00
C140   C     0.06418   0.46375   0.25595   0.00000  Uiso   1.00
C141   C     0.13799   0.38711   0.30851   0.00000  Uiso   1.00
C142   C     0.22838   0.38170   0.43327   0.00000  Uiso   1.00
C143   C     0.38790   0.34053   0.63182   0.00000  Uiso   1.00
C144   C     0.97210   0.58729   0.10238   0.00000  Uiso   1.00
C145   C     0.96848   0.61453   0.02580   0.00000  Uiso   1.00
C146   C     0.98134   0.71313   0.02128   0.00000  Uiso   1.00
C147   C     0.99782   0.86378   0.98134   0.00000  Uiso   1.00
C148   C     0.86351   0.48640   0.09326   0.00000  Uiso   1.00
C149   C     0.76857   0.42882   0.00899   0.00000  Uiso   1.00
C150   C     0.69000   0.44250   0.99677   0.00000  Uiso   1.00
C151   C     0.53788   0.43649   0.94268   0.00000  Uiso   1.00
C152   C     0.98917   0.61023   0.24938   0.00000  Uiso   1.00
C153   C     0.08007   0.53256   0.32553   0.00000  Uiso   1.00
C154   C     0.17037   0.52727   0.45025   0.00000  Uiso   1.00
C155   C     0.24430   0.45063   0.50299   0.00000  Uiso   1.00
C156   C     0.98799   0.65611   0.17196   0.00000  Uiso   1.00
C157   C     0.00085   0.75469   0.16755   0.00000  Uiso   1.00
C158   C     0.99726   0.78207   0.09100   0.00000  Uiso   1.00
C159   C     0.87941   0.55521   0.16285   0.00000  Uiso   1.00
C160   C     0.80096   0.56899   0.15075   0.00000  Uiso   1.00
C161   C     0.70592   0.51143   0.06649   0.00000  Uiso   1.00
H162   H     0.94754   0.42997   0.06708   0.00000  Uiso   1.00
H163   H     0.12567   0.33387   0.25462   0.00000  Uiso   1.00
H164   H     0.95617   0.56126   0.97195   0.00000  Uiso   1.00
H165   H     0.75631   0.37558   0.95516   0.00000  Uiso   1.00
H166   H     0.33020   0.25770   0.49323   0.00000  Uiso   1.00
H167   H     0.97276   0.73716   0.89718   0.00000  Uiso   1.00
H168   H     0.55130   0.34562   0.86176   0.00000  Uiso   1.00
H169   H     0.00154   0.66381   0.30356   0.00000  Uiso   1.00
H170   H     0.18265   0.58053   0.50408   0.00000  Uiso   1.00
H171   H     0.01314   0.80792   0.22141   0.00000  Uiso   1.00
H172   H     0.81328   0.62224   0.20461   0.00000  Uiso   1.00
H173   H     0.37644   0.45790   0.69571   0.00000  Uiso   1.00
H174   H     0.01900   0.93737   0.09965   0.00000  Uiso   1.00
H175   H     0.59754   0.54582   0.06423   0.00000  Uiso   1.00
O176   O     0.47150   0.29882   0.72211   0.00000  Uiso   1.00
O177   O     0.00253   0.92786   0.94010   0.00000  Uiso   1.00
O178   O     0.44959   0.41416   0.89363   0.00000  Uiso   1.00
N179   N     0.31622   0.31623   0.51337   0.00000  Uiso   1.00
N180   N     0.98205   0.76450   0.95611   0.00000  Uiso   1.00
N181   N     0.58800   0.39846   0.92296   0.00000  Uiso   1.00
N182   N     0.34110   0.42396   0.62231   0.00000  Uiso   1.00
N183   N     0.00693   0.87223   0.06506   0.00000  Uiso   1.00
N184   N     0.61289   0.50618   0.03191   0.00000  Uiso   1.00
