data_job_01774
_audit_creation_date              2018-12-19
_audit_creation_method            'Materials Studio'
_symmetry_space_group_name_H-M    'P1'
_symmetry_Int_Tables_number       1
_symmetry_cell_setting            triclinic
loop_
_symmetry_equiv_pos_as_xyz
  x,y,z
_cell_length_a                    19.5805
_cell_length_b                    15.3553
_cell_length_c                    7.7584
_cell_angle_alpha                 90.0000
_cell_angle_beta                  90.0000
_cell_angle_gamma                 90.0000
loop_
_atom_site_label
_atom_site_type_symbol
_atom_site_fract_x
_atom_site_fract_y
_atom_site_fract_z
_atom_site_U_iso_or_equiv
_atom_site_adp_type
_atom_site_occupancy
C1     C     0.46956   0.19229   0.25151   0.00000  Uiso   1.00
C2     C     0.43544   0.15112   0.09474   0.00000  Uiso   1.00
C3     C     0.39356   0.07822   0.09682   0.00000  Uiso   1.00
C4     C     0.36732   0.05072   0.93973   0.00000  Uiso   1.00
C5     C     0.31206   0.98009   0.71964   0.00000  Uiso   1.00
C6     C     0.54585   0.19398   0.21208   0.00000  Uiso   1.00
C7     C     0.59679   0.15714   0.31284   0.00000  Uiso   1.00
C8     C     0.66349   0.16574   0.25454   0.00000  Uiso   1.00
C9     C     0.77964   0.16172   0.21670   0.00000  Uiso   1.00
C10    C     0.44651   0.28714   0.25399   0.00000  Uiso   1.00
C11    C     0.41394   0.32862   0.39001   0.00000  Uiso   1.00
C12    C     0.39702   0.41566   0.36701   0.00000  Uiso   1.00
C13    C     0.35894   0.55627   0.39424   0.00000  Uiso   1.00
C14    C     0.49744   0.27310   0.96883   0.00000  Uiso   1.00
C15    C     0.45059   0.19501   0.94119   0.00000  Uiso   1.00
C16    C     0.42440   0.16762   0.78406   0.00000  Uiso   1.00
C17    C     0.38249   0.09470   0.78590   0.00000  Uiso   1.00
C18    C     0.56099   0.23787   0.05854   0.00000  Uiso   1.00
C19    C     0.62763   0.24654   0.00008   0.00000  Uiso   1.00
C20    C     0.67866   0.20971   0.10072   0.00000  Uiso   1.00
C21    C     0.46165   0.33103   0.10045   0.00000  Uiso   1.00
C22    C     0.44478   0.41802   0.07724   0.00000  Uiso   1.00
C23    C     0.41219   0.45963   0.21319   0.00000  Uiso   1.00
H24    H     0.45778   0.15812   0.37105   0.00000  Uiso   1.00
H25    H     0.38186   0.04427   0.21567   0.00000  Uiso   1.00
H26    H     0.58506   0.12318   0.43167   0.00000  Uiso   1.00
H27    H     0.40223   0.29464   0.50881   0.00000  Uiso   1.00
H28    H     0.30438   0.93738   0.97567   0.00000  Uiso   1.00
H29    H     0.73284   0.10380   0.43115   0.00000  Uiso   1.00
H30    H     0.34732   0.46535   0.59383   0.00000  Uiso   1.00
H31    H     0.50924   0.30727   0.84928   0.00000  Uiso   1.00
H32    H     0.43613   0.20160   0.66526   0.00000  Uiso   1.00
H33    H     0.63933   0.28051   0.88126   0.00000  Uiso   1.00
H34    H     0.45651   0.45197   0.95840   0.00000  Uiso   1.00
H35    H     0.34844   0.06507   0.52894   0.00000  Uiso   1.00
H36    H     0.77690   0.23150   0.98442   0.00000  Uiso   1.00
H37    H     0.39138   0.59305   0.14709   0.00000  Uiso   1.00
O38    O     0.27741   0.92900   0.64066   0.00000  Uiso   1.00
O39    O     0.83953   0.14736   0.23824   0.00000  Uiso   1.00
O40    O     0.33374   0.62170   0.45167   0.00000  Uiso   1.00
N41    N     0.32477   0.98194   0.89579   0.00000  Uiso   1.00
N42    N     0.72535   0.13752   0.32162   0.00000  Uiso   1.00
N43    N     0.36494   0.47555   0.47373   0.00000  Uiso   1.00
N44    N     0.34848   0.05065   0.65541   0.00000  Uiso   1.00
N45    N     0.74906   0.20624   0.08124   0.00000  Uiso   1.00
N46    N     0.38865   0.54426   0.23335   0.00000  Uiso   1.00
C47    C     0.53044   0.80771   0.25151   0.00000  Uiso   1.00
C48    C     0.56456   0.84888   0.09474   0.00000  Uiso   1.00
C49    C     0.60644   0.92178   0.09682   0.00000  Uiso   1.00
C50    C     0.63268   0.94928   0.93973   0.00000  Uiso   1.00
C51    C     0.68794   0.01991   0.71964   0.00000  Uiso   1.00
C52    C     0.45415   0.80602   0.21208   0.00000  Uiso   1.00
C53    C     0.40321   0.84286   0.31284   0.00000  Uiso   1.00
C54    C     0.33651   0.83426   0.25454   0.00000  Uiso   1.00
C55    C     0.22036   0.83828   0.21670   0.00000  Uiso   1.00
C56    C     0.55349   0.71286   0.25399   0.00000  Uiso   1.00
C57    C     0.58606   0.67138   0.39001   0.00000  Uiso   1.00
C58    C     0.60298   0.58434   0.36701   0.00000  Uiso   1.00
C59    C     0.64106   0.44373   0.39424   0.00000  Uiso   1.00
C60    C     0.50256   0.72690   0.96883   0.00000  Uiso   1.00
C61    C     0.54941   0.80499   0.94119   0.00000  Uiso   1.00
C62    C     0.57560   0.83238   0.78406   0.00000  Uiso   1.00
C63    C     0.61751   0.90530   0.78590   0.00000  Uiso   1.00
C64    C     0.43901   0.76213   0.05854   0.00000  Uiso   1.00
C65    C     0.37237   0.75346   0.00008   0.00000  Uiso   1.00
C66    C     0.32134   0.79029   0.10072   0.00000  Uiso   1.00
C67    C     0.53835   0.66897   0.10045   0.00000  Uiso   1.00
C68    C     0.55522   0.58198   0.07724   0.00000  Uiso   1.00
C69    C     0.58781   0.54037   0.21319   0.00000  Uiso   1.00
H70    H     0.54222   0.84188   0.37105   0.00000  Uiso   1.00
H71    H     0.61814   0.95573   0.21567   0.00000  Uiso   1.00
H72    H     0.41494   0.87682   0.43167   0.00000  Uiso   1.00
H73    H     0.59777   0.70536   0.50881   0.00000  Uiso   1.00
H74    H     0.69562   0.06262   0.97567   0.00000  Uiso   1.00
H75    H     0.26716   0.89620   0.43115   0.00000  Uiso   1.00
H76    H     0.65268   0.53465   0.59383   0.00000  Uiso   1.00
H77    H     0.49076   0.69273   0.84928   0.00000  Uiso   1.00
H78    H     0.56387   0.79840   0.66526   0.00000  Uiso   1.00
H79    H     0.36067   0.71949   0.88126   0.00000  Uiso   1.00
H80    H     0.54349   0.54803   0.95840   0.00000  Uiso   1.00
H81    H     0.65156   0.93493   0.52894   0.00000  Uiso   1.00
H82    H     0.22310   0.76850   0.98442   0.00000  Uiso   1.00
H83    H     0.60862   0.40695   0.14709   0.00000  Uiso   1.00
O84    O     0.72259   0.07100   0.64066   0.00000  Uiso   1.00
O85    O     0.16047   0.85264   0.23824   0.00000  Uiso   1.00
O86    O     0.66626   0.37830   0.45167   0.00000  Uiso   1.00
N87    N     0.67523   0.01806   0.89579   0.00000  Uiso   1.00
N88    N     0.27465   0.86248   0.32162   0.00000  Uiso   1.00
N89    N     0.63506   0.52445   0.47373   0.00000  Uiso   1.00
N90    N     0.65152   0.94935   0.65541   0.00000  Uiso   1.00
N91    N     0.25094   0.79376   0.08124   0.00000  Uiso   1.00
N92    N     0.61135   0.45574   0.23335   0.00000  Uiso   1.00
C93    C     0.03044   0.69229   0.74849   0.00000  Uiso   1.00
C94    C     0.06456   0.65112   0.90526   0.00000  Uiso   1.00
C95    C     0.10644   0.57822   0.90318   0.00000  Uiso   1.00
C96    C     0.13268   0.55072   0.06027   0.00000  Uiso   1.00
C97    C     0.18794   0.48009   0.28036   0.00000  Uiso   1.00
C98    C     0.95415   0.69398   0.78792   0.00000  Uiso   1.00
C99    C     0.90321   0.65714   0.68716   0.00000  Uiso   1.00
C100   C     0.83651   0.66574   0.74546   0.00000  Uiso   1.00
C101   C     0.72036   0.66172   0.78330   0.00000  Uiso   1.00
C102   C     0.05349   0.78714   0.74601   0.00000  Uiso   1.00
C103   C     0.08606   0.82862   0.60999   0.00000  Uiso   1.00
C104   C     0.10298   0.91566   0.63299   0.00000  Uiso   1.00
C105   C     0.14106   0.05627   0.60576   0.00000  Uiso   1.00
C106   C     0.00256   0.77310   0.03117   0.00000  Uiso   1.00
C107   C     0.04941   0.69501   0.05881   0.00000  Uiso   1.00
C108   C     0.07560   0.66762   0.21594   0.00000  Uiso   1.00
C109   C     0.11751   0.59470   0.21410   0.00000  Uiso   1.00
C110   C     0.93901   0.73787   0.94146   0.00000  Uiso   1.00
C111   C     0.87237   0.74654   0.99992   0.00000  Uiso   1.00
C112   C     0.82134   0.70971   0.89928   0.00000  Uiso   1.00
C113   C     0.03835   0.83103   0.89955   0.00000  Uiso   1.00
C114   C     0.05522   0.91802   0.92276   0.00000  Uiso   1.00
C115   C     0.08781   0.95963   0.78681   0.00000  Uiso   1.00
H116   H     0.04222   0.65812   0.62895   0.00000  Uiso   1.00
H117   H     0.11814   0.54427   0.78433   0.00000  Uiso   1.00
H118   H     0.91494   0.62318   0.56833   0.00000  Uiso   1.00
H119   H     0.09777   0.79464   0.49119   0.00000  Uiso   1.00
H120   H     0.19562   0.43738   0.02433   0.00000  Uiso   1.00
H121   H     0.76716   0.60380   0.56885   0.00000  Uiso   1.00
H122   H     0.15268   0.96535   0.40617   0.00000  Uiso   1.00
H123   H     0.99076   0.80727   0.15072   0.00000  Uiso   1.00
H124   H     0.06387   0.70160   0.33474   0.00000  Uiso   1.00
H125   H     0.86067   0.78051   0.11874   0.00000  Uiso   1.00
H126   H     0.04349   0.95197   0.04160   0.00000  Uiso   1.00
H127   H     0.15156   0.56507   0.47106   0.00000  Uiso   1.00
H128   H     0.72310   0.73150   0.01558   0.00000  Uiso   1.00
H129   H     0.10862   0.09305   0.85291   0.00000  Uiso   1.00
O130   O     0.22259   0.42900   0.35934   0.00000  Uiso   1.00
O131   O     0.66047   0.64736   0.76176   0.00000  Uiso   1.00
O132   O     0.16626   0.12170   0.54833   0.00000  Uiso   1.00
N133   N     0.17523   0.48194   0.10421   0.00000  Uiso   1.00
N134   N     0.77465   0.63752   0.67838   0.00000  Uiso   1.00
N135   N     0.13506   0.97555   0.52627   0.00000  Uiso   1.00
N136   N     0.15152   0.55065   0.34459   0.00000  Uiso   1.00
N137   N     0.75094   0.70624   0.91876   0.00000  Uiso   1.00
N138   N     0.11135   0.04426   0.76665   0.00000  Uiso   1.00
C139   C     0.96956   0.30771   0.74849   0.00000  Uiso   1.00
C140   C     0.93544   0.34888   0.90526   0.00000  Uiso   1.00
C141   C     0.89356   0.42178   0.90318   0.00000  Uiso   1.00
C142   C     0.86732   0.44928   0.06027   0.00000  Uiso   1.00
C143   C     0.81206   0.51991   0.28036   0.00000  Uiso   1.00
C144   C     0.04585   0.30602   0.78792   0.00000  Uiso   1.00
C145   C     0.09679   0.34286   0.68716   0.00000  Uiso   1.00
C146   C     0.16349   0.33426   0.74546   0.00000  Uiso   1.00
C147   C     0.27964   0.33829   0.78330   0.00000  Uiso   1.00
C148   C     0.94651   0.21286   0.74601   0.00000  Uiso   1.00
C149   C     0.91394   0.17138   0.60999   0.00000  Uiso   1.00
C150   C     0.89702   0.08434   0.63299   0.00000  Uiso   1.00
C151   C     0.85894   0.94373   0.60576   0.00000  Uiso   1.00
C152   C     0.99744   0.22690   0.03117   0.00000  Uiso   1.00
C153   C     0.95059   0.30499   0.05881   0.00000  Uiso   1.00
C154   C     0.92440   0.33238   0.21594   0.00000  Uiso   1.00
C155   C     0.88249   0.40530   0.21410   0.00000  Uiso   1.00
C156   C     0.06099   0.26213   0.94146   0.00000  Uiso   1.00
C157   C     0.12763   0.25346   0.99992   0.00000  Uiso   1.00
C158   C     0.17866   0.29029   0.89928   0.00000  Uiso   1.00
C159   C     0.96165   0.16897   0.89955   0.00000  Uiso   1.00
C160   C     0.94478   0.08198   0.92276   0.00000  Uiso   1.00
C161   C     0.91219   0.04037   0.78681   0.00000  Uiso   1.00
H162   H     0.95778   0.34188   0.62895   0.00000  Uiso   1.00
H163   H     0.88186   0.45573   0.78433   0.00000  Uiso   1.00
H164   H     0.08506   0.37682   0.56833   0.00000  Uiso   1.00
H165   H     0.90223   0.20536   0.49119   0.00000  Uiso   1.00
H166   H     0.80438   0.56262   0.02433   0.00000  Uiso   1.00
H167   H     0.23284   0.39620   0.56885   0.00000  Uiso   1.00
H168   H     0.84732   0.03465   0.40617   0.00000  Uiso   1.00
H169   H     0.00924   0.19273   0.15072   0.00000  Uiso   1.00
H170   H     0.93613   0.29840   0.33474   0.00000  Uiso   1.00
H171   H     0.13933   0.21949   0.11874   0.00000  Uiso   1.00
H172   H     0.95651   0.04803   0.04160   0.00000  Uiso   1.00
H173   H     0.84844   0.43493   0.47106   0.00000  Uiso   1.00
H174   H     0.27690   0.26850   0.01558   0.00000  Uiso   1.00
H175   H     0.89138   0.90695   0.85291   0.00000  Uiso   1.00
O176   O     0.77741   0.57100   0.35934   0.00000  Uiso   1.00
O177   O     0.33953   0.35264   0.76176   0.00000  Uiso   1.00
O178   O     0.83374   0.87830   0.54833   0.00000  Uiso   1.00
N179   N     0.82477   0.51806   0.10421   0.00000  Uiso   1.00
N180   N     0.22535   0.36248   0.67838   0.00000  Uiso   1.00
N181   N     0.86494   0.02445   0.52627   0.00000  Uiso   1.00
N182   N     0.84848   0.44935   0.34459   0.00000  Uiso   1.00
N183   N     0.24906   0.29376   0.91876   0.00000  Uiso   1.00
N184   N     0.88865   0.95574   0.76665   0.00000  Uiso   1.00
