data_job_03263
_audit_creation_date              2018-12-19
_audit_creation_method            'Materials Studio'
_symmetry_space_group_name_H-M    'P1'
_symmetry_Int_Tables_number       1
_symmetry_cell_setting            triclinic
loop_
_symmetry_equiv_pos_as_xyz
  x,y,z
_cell_length_a                    10.2483
_cell_length_b                    14.3771
_cell_length_c                    18.3311
_cell_angle_alpha                 68.4954
_cell_angle_beta                  92.7330
_cell_angle_gamma                 76.4109
loop_
_atom_site_label
_atom_site_type_symbol
_atom_site_fract_x
_atom_site_fract_y
_atom_site_fract_z
_atom_site_U_iso_or_equiv
_atom_site_adp_type
_atom_site_occupancy
C1     C     0.62194   0.06266   0.16456   0.00000  Uiso   1.00
C2     C     0.69196   0.06100   0.09332   0.00000  Uiso   1.00
C3     C     0.72995   0.97640   0.07195   0.00000  Uiso   1.00
C4     C     0.79284   0.99060   0.00475   0.00000  Uiso   1.00
C5     C     0.89799   0.97350   0.90087   0.00000  Uiso   1.00
C6     C     0.71233   0.09620   0.21303   0.00000  Uiso   1.00
C7     C     0.76741   0.04118   0.29233   0.00000  Uiso   1.00
C8     C     0.84743   0.08502   0.32591   0.00000  Uiso   1.00
C9     C     0.98410   0.12259   0.40790   0.00000  Uiso   1.00
C10    C     0.49179   0.15116   0.13160   0.00000  Uiso   1.00
C11    C     0.36145   0.14237   0.14244   0.00000  Uiso   1.00
C12    C     0.25578   0.23249   0.10748   0.00000  Uiso   1.00
C13    C     0.05004   0.35540   0.06303   0.00000  Uiso   1.00
C14    C     0.66607   0.23834   0.08321   0.00000  Uiso   1.00
C15    C     0.71594   0.15643   0.04913   0.00000  Uiso   1.00
C16    C     0.77878   0.17077   0.98195   0.00000  Uiso   1.00
C17    C     0.81685   0.08619   0.96049   0.00000  Uiso   1.00
C18    C     0.73630   0.19162   0.16885   0.00000  Uiso   1.00
C19    C     0.81624   0.23555   0.20232   0.00000  Uiso   1.00
C20    C     0.87144   0.18061   0.28164   0.00000  Uiso   1.00
C21    C     0.51575   0.24658   0.08741   0.00000  Uiso   1.00
C22    C     0.41027   0.33674   0.05243   0.00000  Uiso   1.00
C23    C     0.27980   0.32809   0.06321   0.00000  Uiso   1.00
H24    H     0.60328   0.98837   0.19897   0.00000  Uiso   1.00
H25    H     0.71140   0.90256   0.10617   0.00000  Uiso   1.00
H26    H     0.74884   0.96734   0.32651   0.00000  Uiso   1.00
H27    H     0.34294   0.06851   0.17664   0.00000  Uiso   1.00
H28    H     0.84188   0.84950   0.98381   0.00000  Uiso   1.00
H29    H     0.92079   0.98611   0.44841   0.00000  Uiso   1.00
H30    H     0.06486   0.19945   0.13239   0.00000  Uiso   1.00
H31    H     0.68473   0.31263   0.04881   0.00000  Uiso   1.00
H32    H     0.79731   0.24462   0.94777   0.00000  Uiso   1.00
H33    H     0.83476   0.30940   0.16811   0.00000  Uiso   1.00
H34    H     0.42886   0.41057   0.01824   0.00000  Uiso   1.00
H35    H     0.91162   0.12712   0.85525   0.00000  Uiso   1.00
H36    H     0.99052   0.26374   0.31986   0.00000  Uiso   1.00
H37    H     0.13460   0.47708   0.00383   0.00000  Uiso   1.00
O38    O     0.94938   0.93771   0.85578   0.00000  Uiso   1.00
O39    O     0.05288   0.11695   0.46533   0.00000  Uiso   1.00
O40    O     0.92993   0.39684   0.05071   0.00000  Uiso   1.00
N41    N     0.84281   0.92418   0.96741   0.00000  Uiso   1.00
N42    N     0.91661   0.05189   0.40179   0.00000  Uiso   1.00
N43    N     0.11639   0.25135   0.10635   0.00000  Uiso   1.00
N44    N     0.88034   0.07356   0.89823   0.00000  Uiso   1.00
N45    N     0.95413   0.20128   0.33261   0.00000  Uiso   1.00
N46    N     0.15392   0.40074   0.03717   0.00000  Uiso   1.00
C47    C     0.37806   0.93734   0.83544   0.00000  Uiso   1.00
C48    C     0.30804   0.93900   0.90668   0.00000  Uiso   1.00
C49    C     0.27005   0.02360   0.92805   0.00000  Uiso   1.00
C50    C     0.20716   0.00940   0.99525   0.00000  Uiso   1.00
C51    C     0.10201   0.02650   0.09913   0.00000  Uiso   1.00
C52    C     0.28767   0.90380   0.78697   0.00000  Uiso   1.00
C53    C     0.23259   0.95882   0.70767   0.00000  Uiso   1.00
C54    C     0.15257   0.91498   0.67409   0.00000  Uiso   1.00
C55    C     0.01590   0.87741   0.59210   0.00000  Uiso   1.00
C56    C     0.50821   0.84884   0.86840   0.00000  Uiso   1.00
C57    C     0.63855   0.85763   0.85756   0.00000  Uiso   1.00
C58    C     0.74422   0.76751   0.89252   0.00000  Uiso   1.00
C59    C     0.94996   0.64460   0.93697   0.00000  Uiso   1.00
C60    C     0.33393   0.76166   0.91679   0.00000  Uiso   1.00
C61    C     0.28406   0.84357   0.95087   0.00000  Uiso   1.00
C62    C     0.22122   0.82923   0.01805   0.00000  Uiso   1.00
C63    C     0.18315   0.91381   0.03951   0.00000  Uiso   1.00
C64    C     0.26370   0.80838   0.83115   0.00000  Uiso   1.00
C65    C     0.18376   0.76445   0.79768   0.00000  Uiso   1.00
C66    C     0.12856   0.81939   0.71836   0.00000  Uiso   1.00
C67    C     0.48425   0.75342   0.91259   0.00000  Uiso   1.00
C68    C     0.58973   0.66326   0.94757   0.00000  Uiso   1.00
C69    C     0.72020   0.67191   0.93679   0.00000  Uiso   1.00
H70    H     0.39672   0.01163   0.80103   0.00000  Uiso   1.00
H71    H     0.28860   0.09744   0.89383   0.00000  Uiso   1.00
H72    H     0.25116   0.03266   0.67349   0.00000  Uiso   1.00
H73    H     0.65706   0.93149   0.82336   0.00000  Uiso   1.00
H74    H     0.15812   0.15050   0.01619   0.00000  Uiso   1.00
H75    H     0.07921   0.01389   0.55159   0.00000  Uiso   1.00
H76    H     0.93514   0.80055   0.86761   0.00000  Uiso   1.00
H77    H     0.31527   0.68737   0.95119   0.00000  Uiso   1.00
H78    H     0.20269   0.75538   0.05223   0.00000  Uiso   1.00
H79    H     0.16524   0.69060   0.83189   0.00000  Uiso   1.00
H80    H     0.57114   0.58943   0.98176   0.00000  Uiso   1.00
H81    H     0.08838   0.87288   0.14475   0.00000  Uiso   1.00
H82    H     0.00948   0.73626   0.68014   0.00000  Uiso   1.00
H83    H     0.86540   0.52292   0.99617   0.00000  Uiso   1.00
O84    O     0.05062   0.06229   0.14422   0.00000  Uiso   1.00
O85    O     0.94712   0.88305   0.53467   0.00000  Uiso   1.00
O86    O     0.07007   0.60316   0.94929   0.00000  Uiso   1.00
N87    N     0.15719   0.07582   0.03259   0.00000  Uiso   1.00
N88    N     0.08339   0.94811   0.59821   0.00000  Uiso   1.00
N89    N     0.88361   0.74865   0.89365   0.00000  Uiso   1.00
N90    N     0.11966   0.92644   0.10177   0.00000  Uiso   1.00
N91    N     0.04587   0.79872   0.66739   0.00000  Uiso   1.00
N92    N     0.84608   0.59926   0.96283   0.00000  Uiso   1.00
