data_job_01907
_audit_creation_date              2018-12-19
_audit_creation_method            'Materials Studio'
_symmetry_space_group_name_H-M    'P1'
_symmetry_Int_Tables_number       1
_symmetry_cell_setting            triclinic
loop_
_symmetry_equiv_pos_as_xyz
  x,y,z
_cell_length_a                    12.4834
_cell_length_b                    12.4834
_cell_length_c                    31.2031
_cell_angle_alpha                 90.0000
_cell_angle_beta                  90.0000
_cell_angle_gamma                 120.0000
loop_
_atom_site_label
_atom_site_type_symbol
_atom_site_fract_x
_atom_site_fract_y
_atom_site_fract_z
_atom_site_U_iso_or_equiv
_atom_site_adp_type
_atom_site_occupancy
C1     C     0.26688   0.11506   0.03709   0.00000  Uiso   1.00
C2     C     0.32837   0.06473   0.00739   0.00000  Uiso   1.00
C3     C     0.30718   0.04426   0.96370   0.00000  Uiso   1.00
C4     C     0.37260   0.99777   0.94220   0.00000  Uiso   1.00
C5     C     0.45533   0.92338   0.89282   0.00000  Uiso   1.00
C6     C     0.20584   0.01936   0.07260   0.00000  Uiso   1.00
C7     C     0.08163   0.96076   0.08375   0.00000  Uiso   1.00
C8     C     0.04390   0.87609   0.11716   0.00000  Uiso   1.00
C9     C     0.93641   0.73133   0.16905   0.00000  Uiso   1.00
C10    C     0.37185   0.22943   0.05836   0.00000  Uiso   1.00
C11    C     0.38721   0.34747   0.05754   0.00000  Uiso   1.00
C12    C     0.48925   0.43967   0.07896   0.00000  Uiso   1.00
C13    C     0.63952   0.62109   0.10873   0.00000  Uiso   1.00
C14    C     0.42074   0.06889   0.07660   0.00000  Uiso   1.00
C15    C     0.41194   0.03965   0.02885   0.00000  Uiso   1.00
C16    C     0.47741   0.99319   0.00741   0.00000  Uiso   1.00
C17    C     0.45633   0.97266   0.96370   0.00000  Uiso   1.00
C18    C     0.28940   0.99428   0.09406   0.00000  Uiso   1.00
C19    C     0.25185   0.90969   0.12746   0.00000  Uiso   1.00
C20    C     0.12762   0.85097   0.13866   0.00000  Uiso   1.00
C21    C     0.45543   0.20436   0.07982   0.00000  Uiso   1.00
C22    C     0.55745   0.29640   0.10125   0.00000  Uiso   1.00
C23    C     0.57297   0.41455   0.10046   0.00000  Uiso   1.00
H24    H     0.20181   0.13457   0.02039   0.00000  Uiso   1.00
H25    H     0.24249   0.06367   0.94711   0.00000  Uiso   1.00
H26    H     0.01698   0.98019   0.06714   0.00000  Uiso   1.00
H27    H     0.32253   0.36684   0.04093   0.00000  Uiso   1.00
H28    H     0.32442   0.97395   0.87533   0.00000  Uiso   1.00
H29    H     0.84892   0.79797   0.12844   0.00000  Uiso   1.00
H30    H     0.49322   0.61330   0.07317   0.00000  Uiso   1.00
H31    H     0.48580   0.04937   0.09331   0.00000  Uiso   1.00
H32    H     0.54208   0.97379   0.02402   0.00000  Uiso   1.00
H33    H     0.31655   0.89031   0.14406   0.00000  Uiso   1.00
H34    H     0.62210   0.27696   0.11785   0.00000  Uiso   1.00
H35    H     0.56757   0.90100   0.93776   0.00000  Uiso   1.00
H36    H     0.09206   0.72502   0.19087   0.00000  Uiso   1.00
H37    H     0.73636   0.54035   0.13560   0.00000  Uiso   1.00
O38    O     0.47786   0.88926   0.85965   0.00000  Uiso   1.00
O39    O     0.85402   0.65840   0.19174   0.00000  Uiso   1.00
O40    O     0.69933   0.72808   0.11922   0.00000  Uiso   1.00
N41    N     0.37394   0.96718   0.89952   0.00000  Uiso   1.00
N42    N     0.92937   0.80263   0.13617   0.00000  Uiso   1.00
N43    N     0.53172   0.56489   0.08450   0.00000  Uiso   1.00
N44    N     0.50478   0.92793   0.93312   0.00000  Uiso   1.00
N45    N     0.06021   0.76338   0.16976   0.00000  Uiso   1.00
N46    N     0.66255   0.52564   0.11810   0.00000  Uiso   1.00
C47    C     0.88494   0.15182   0.70376   0.00000  Uiso   1.00
C48    C     0.93527   0.26364   0.67405   0.00000  Uiso   1.00
C49    C     0.95574   0.26292   0.63037   0.00000  Uiso   1.00
C50    C     0.00223   0.37483   0.60887   0.00000  Uiso   1.00
C51    C     0.07662   0.53195   0.55948   0.00000  Uiso   1.00
C52    C     0.98064   0.18648   0.73927   0.00000  Uiso   1.00
C53    C     0.03924   0.12087   0.75042   0.00000  Uiso   1.00
C54    C     0.12391   0.16781   0.78383   0.00000  Uiso   1.00
C55    C     0.26867   0.20508   0.83571   0.00000  Uiso   1.00
C56    C     0.77057   0.14242   0.72502   0.00000  Uiso   1.00
C57    C     0.65253   0.03974   0.72421   0.00000  Uiso   1.00
C58    C     0.56033   0.04958   0.74563   0.00000  Uiso   1.00
C59    C     0.37891   0.01843   0.77540   0.00000  Uiso   1.00
C60    C     0.93111   0.35184   0.74327   0.00000  Uiso   1.00
C61    C     0.96035   0.37229   0.69551   0.00000  Uiso   1.00
C62    C     0.00681   0.48423   0.67408   0.00000  Uiso   1.00
C63    C     0.02734   0.48367   0.63036   0.00000  Uiso   1.00
C64    C     0.00572   0.29512   0.76073   0.00000  Uiso   1.00
C65    C     0.09031   0.34217   0.79413   0.00000  Uiso   1.00
C66    C     0.14903   0.27665   0.80532   0.00000  Uiso   1.00
C67    C     0.79564   0.25106   0.74648   0.00000  Uiso   1.00
C68    C     0.70360   0.26105   0.76791   0.00000  Uiso   1.00
C69    C     0.58545   0.15842   0.76713   0.00000  Uiso   1.00
H70    H     0.86543   0.06724   0.68705   0.00000  Uiso   1.00
H71    H     0.93633   0.17883   0.61377   0.00000  Uiso   1.00
H72    H     0.01981   0.03679   0.73381   0.00000  Uiso   1.00
H73    H     0.63316   0.95569   0.70760   0.00000  Uiso   1.00
H74    H     0.02605   0.35047   0.54199   0.00000  Uiso   1.00
H75    H     0.20203   0.05095   0.79511   0.00000  Uiso   1.00
H76    H     0.38670   0.87992   0.73984   0.00000  Uiso   1.00
H77    H     0.95063   0.43643   0.75997   0.00000  Uiso   1.00
H78    H     0.02621   0.56829   0.69069   0.00000  Uiso   1.00
H79    H     0.10969   0.42624   0.81073   0.00000  Uiso   1.00
H80    H     0.72304   0.34514   0.78452   0.00000  Uiso   1.00
H81    H     0.09900   0.66657   0.60442   0.00000  Uiso   1.00
H82    H     0.27498   0.36704   0.85754   0.00000  Uiso   1.00
H83    H     0.45965   0.19602   0.80227   0.00000  Uiso   1.00
O84    O     0.11074   0.58860   0.52632   0.00000  Uiso   1.00
O85    O     0.34160   0.19563   0.85840   0.00000  Uiso   1.00
O86    O     0.27192   0.97124   0.78588   0.00000  Uiso   1.00
N87    N     0.03282   0.40676   0.56619   0.00000  Uiso   1.00
N88    N     0.19737   0.12674   0.80284   0.00000  Uiso   1.00
N89    N     0.43511   0.96683   0.75117   0.00000  Uiso   1.00
N90    N     0.07207   0.57685   0.59978   0.00000  Uiso   1.00
N91    N     0.23662   0.29683   0.83643   0.00000  Uiso   1.00
N92    N     0.47436   0.13692   0.78476   0.00000  Uiso   1.00
C93    C     0.84818   0.73312   0.37042   0.00000  Uiso   1.00
C94    C     0.73636   0.67163   0.34072   0.00000  Uiso   1.00
C95    C     0.73708   0.69282   0.29703   0.00000  Uiso   1.00
C96    C     0.62517   0.62740   0.27553   0.00000  Uiso   1.00
C97    C     0.46805   0.54467   0.22615   0.00000  Uiso   1.00
C98    C     0.81352   0.79416   0.40594   0.00000  Uiso   1.00
C99    C     0.87913   0.91837   0.41709   0.00000  Uiso   1.00
C100   C     0.83219   0.95610   0.45049   0.00000  Uiso   1.00
C101   C     0.79492   0.06359   0.50238   0.00000  Uiso   1.00
C102   C     0.85758   0.62815   0.39169   0.00000  Uiso   1.00
C103   C     0.96026   0.61279   0.39087   0.00000  Uiso   1.00
C104   C     0.95042   0.51075   0.41230   0.00000  Uiso   1.00
C105   C     0.98157   0.36048   0.44206   0.00000  Uiso   1.00
C106   C     0.64816   0.57926   0.40993   0.00000  Uiso   1.00
C107   C     0.62771   0.58806   0.36218   0.00000  Uiso   1.00
C108   C     0.51577   0.52259   0.34074   0.00000  Uiso   1.00
C109   C     0.51633   0.54367   0.29703   0.00000  Uiso   1.00
C110   C     0.70488   0.71060   0.42740   0.00000  Uiso   1.00
C111   C     0.65783   0.74815   0.46080   0.00000  Uiso   1.00
C112   C     0.72335   0.87238   0.47199   0.00000  Uiso   1.00
C113   C     0.74894   0.54457   0.41315   0.00000  Uiso   1.00
C114   C     0.73895   0.44255   0.43458   0.00000  Uiso   1.00
C115   C     0.84158   0.42703   0.43379   0.00000  Uiso   1.00
H116   H     0.93276   0.79819   0.35372   0.00000  Uiso   1.00
H117   H     0.82117   0.75751   0.28044   0.00000  Uiso   1.00
H118   H     0.96321   0.98302   0.40048   0.00000  Uiso   1.00
H119   H     0.04431   0.67747   0.37426   0.00000  Uiso   1.00
H120   H     0.64953   0.67558   0.20866   0.00000  Uiso   1.00
H121   H     0.94905   0.15108   0.46178   0.00000  Uiso   1.00
H122   H     0.12008   0.50678   0.40650   0.00000  Uiso   1.00
H123   H     0.56357   0.51420   0.42664   0.00000  Uiso   1.00
H124   H     0.43171   0.45792   0.35736   0.00000  Uiso   1.00
H125   H     0.57376   0.68345   0.47740   0.00000  Uiso   1.00
H126   H     0.65486   0.37790   0.45118   0.00000  Uiso   1.00
H127   H     0.33343   0.43243   0.27109   0.00000  Uiso   1.00
H128   H     0.63296   0.90794   0.52421   0.00000  Uiso   1.00
H129   H     0.80398   0.26364   0.46893   0.00000  Uiso   1.00
O130   O     0.41140   0.52214   0.19298   0.00000  Uiso   1.00
O131   O     0.80437   0.14598   0.52507   0.00000  Uiso   1.00
O132   O     0.02876   0.30067   0.45255   0.00000  Uiso   1.00
N133   N     0.59324   0.62606   0.23286   0.00000  Uiso   1.00
N134   N     0.87326   0.07063   0.46950   0.00000  Uiso   1.00
N135   N     0.03317   0.46828   0.41784   0.00000  Uiso   1.00
N136   N     0.42315   0.49522   0.26645   0.00000  Uiso   1.00
N137   N     0.70317   0.93979   0.50310   0.00000  Uiso   1.00
N138   N     0.86308   0.33745   0.45143   0.00000  Uiso   1.00
C139   C     0.11506   0.26688   0.96291   0.00000  Uiso   1.00
C140   C     0.06473   0.32837   0.99261   0.00000  Uiso   1.00
C141   C     0.04426   0.30718   0.03630   0.00000  Uiso   1.00
C142   C     0.99777   0.37260   0.05780   0.00000  Uiso   1.00
C143   C     0.92338   0.45533   0.10718   0.00000  Uiso   1.00
C144   C     0.01936   0.20584   0.92740   0.00000  Uiso   1.00
C145   C     0.96076   0.08163   0.91625   0.00000  Uiso   1.00
C146   C     0.87609   0.04390   0.88284   0.00000  Uiso   1.00
C147   C     0.73133   0.93641   0.83095   0.00000  Uiso   1.00
C148   C     0.22943   0.37185   0.94164   0.00000  Uiso   1.00
C149   C     0.34747   0.38721   0.94246   0.00000  Uiso   1.00
C150   C     0.43967   0.48925   0.92104   0.00000  Uiso   1.00
C151   C     0.62109   0.63952   0.89127   0.00000  Uiso   1.00
C152   C     0.06889   0.42074   0.92340   0.00000  Uiso   1.00
C153   C     0.03965   0.41194   0.97115   0.00000  Uiso   1.00
C154   C     0.99319   0.47741   0.99259   0.00000  Uiso   1.00
C155   C     0.97266   0.45633   0.03630   0.00000  Uiso   1.00
C156   C     0.99428   0.28940   0.90594   0.00000  Uiso   1.00
C157   C     0.90969   0.25185   0.87254   0.00000  Uiso   1.00
C158   C     0.85097   0.12762   0.86134   0.00000  Uiso   1.00
C159   C     0.20436   0.45543   0.92018   0.00000  Uiso   1.00
C160   C     0.29640   0.55745   0.89875   0.00000  Uiso   1.00
C161   C     0.41455   0.57297   0.89954   0.00000  Uiso   1.00
H162   H     0.13457   0.20181   0.97961   0.00000  Uiso   1.00
H163   H     0.06367   0.24249   0.05289   0.00000  Uiso   1.00
H164   H     0.98019   0.01698   0.93286   0.00000  Uiso   1.00
H165   H     0.36684   0.32253   0.95907   0.00000  Uiso   1.00
H166   H     0.97395   0.32442   0.12467   0.00000  Uiso   1.00
H167   H     0.79797   0.84892   0.87156   0.00000  Uiso   1.00
H168   H     0.61330   0.49322   0.92683   0.00000  Uiso   1.00
H169   H     0.04937   0.48580   0.90669   0.00000  Uiso   1.00
H170   H     0.97379   0.54208   0.97598   0.00000  Uiso   1.00
H171   H     0.89031   0.31655   0.85594   0.00000  Uiso   1.00
H172   H     0.27696   0.62210   0.88215   0.00000  Uiso   1.00
H173   H     0.90100   0.56757   0.06224   0.00000  Uiso   1.00
H174   H     0.72502   0.09206   0.80913   0.00000  Uiso   1.00
H175   H     0.54035   0.73636   0.86440   0.00000  Uiso   1.00
O176   O     0.88926   0.47786   0.14035   0.00000  Uiso   1.00
O177   O     0.65840   0.85402   0.80826   0.00000  Uiso   1.00
O178   O     0.72808   0.69933   0.88078   0.00000  Uiso   1.00
N179   N     0.96718   0.37394   0.10048   0.00000  Uiso   1.00
N180   N     0.80263   0.92937   0.86383   0.00000  Uiso   1.00
N181   N     0.56489   0.53172   0.91550   0.00000  Uiso   1.00
N182   N     0.92793   0.50478   0.06688   0.00000  Uiso   1.00
N183   N     0.76338   0.06021   0.83024   0.00000  Uiso   1.00
N184   N     0.52564   0.66255   0.88190   0.00000  Uiso   1.00
C185   C     0.15182   0.88494   0.29624   0.00000  Uiso   1.00
C186   C     0.26364   0.93527   0.32595   0.00000  Uiso   1.00
C187   C     0.26292   0.95574   0.36963   0.00000  Uiso   1.00
C188   C     0.37483   0.00223   0.39113   0.00000  Uiso   1.00
C189   C     0.53195   0.07662   0.44052   0.00000  Uiso   1.00
C190   C     0.18648   0.98064   0.26073   0.00000  Uiso   1.00
C191   C     0.12087   0.03924   0.24958   0.00000  Uiso   1.00
C192   C     0.16781   0.12391   0.21617   0.00000  Uiso   1.00
C193   C     0.20508   0.26867   0.16429   0.00000  Uiso   1.00
C194   C     0.14242   0.77057   0.27498   0.00000  Uiso   1.00
C195   C     0.03974   0.65253   0.27579   0.00000  Uiso   1.00
C196   C     0.04958   0.56033   0.25437   0.00000  Uiso   1.00
C197   C     0.01843   0.37891   0.22460   0.00000  Uiso   1.00
C198   C     0.35184   0.93111   0.25673   0.00000  Uiso   1.00
C199   C     0.37229   0.96035   0.30449   0.00000  Uiso   1.00
C200   C     0.48423   0.00681   0.32592   0.00000  Uiso   1.00
C201   C     0.48367   0.02734   0.36964   0.00000  Uiso   1.00
C202   C     0.29512   0.00572   0.23927   0.00000  Uiso   1.00
C203   C     0.34217   0.09031   0.20587   0.00000  Uiso   1.00
C204   C     0.27665   0.14903   0.19468   0.00000  Uiso   1.00
C205   C     0.25106   0.79564   0.25352   0.00000  Uiso   1.00
C206   C     0.26105   0.70360   0.23209   0.00000  Uiso   1.00
C207   C     0.15842   0.58545   0.23287   0.00000  Uiso   1.00
H208   H     0.06724   0.86543   0.31295   0.00000  Uiso   1.00
H209   H     0.17883   0.93633   0.38623   0.00000  Uiso   1.00
H210   H     0.03679   0.01981   0.26619   0.00000  Uiso   1.00
H211   H     0.95569   0.63316   0.29240   0.00000  Uiso   1.00
H212   H     0.35047   0.02605   0.45801   0.00000  Uiso   1.00
H213   H     0.05095   0.20203   0.20489   0.00000  Uiso   1.00
H214   H     0.87992   0.38670   0.26016   0.00000  Uiso   1.00
H215   H     0.43643   0.95063   0.24003   0.00000  Uiso   1.00
H216   H     0.56829   0.02621   0.30931   0.00000  Uiso   1.00
H217   H     0.42624   0.10969   0.18927   0.00000  Uiso   1.00
H218   H     0.34514   0.72304   0.21548   0.00000  Uiso   1.00
H219   H     0.66657   0.09900   0.39558   0.00000  Uiso   1.00
H220   H     0.36704   0.27498   0.14246   0.00000  Uiso   1.00
H221   H     0.19602   0.45965   0.19773   0.00000  Uiso   1.00
O222   O     0.58860   0.11074   0.47368   0.00000  Uiso   1.00
O223   O     0.19563   0.34160   0.14160   0.00000  Uiso   1.00
O224   O     0.97124   0.27192   0.21412   0.00000  Uiso   1.00
N225   N     0.40676   0.03282   0.43381   0.00000  Uiso   1.00
N226   N     0.12674   0.19737   0.19716   0.00000  Uiso   1.00
N227   N     0.96683   0.43511   0.24883   0.00000  Uiso   1.00
N228   N     0.57685   0.07207   0.40022   0.00000  Uiso   1.00
N229   N     0.29683   0.23662   0.16357   0.00000  Uiso   1.00
N230   N     0.13692   0.47436   0.21524   0.00000  Uiso   1.00
C231   C     0.73312   0.84818   0.62958   0.00000  Uiso   1.00
C232   C     0.67163   0.73636   0.65928   0.00000  Uiso   1.00
C233   C     0.69282   0.73708   0.70297   0.00000  Uiso   1.00
C234   C     0.62740   0.62517   0.72447   0.00000  Uiso   1.00
C235   C     0.54467   0.46805   0.77385   0.00000  Uiso   1.00
C236   C     0.79416   0.81352   0.59406   0.00000  Uiso   1.00
C237   C     0.91837   0.87913   0.58291   0.00000  Uiso   1.00
C238   C     0.95610   0.83219   0.54951   0.00000  Uiso   1.00
C239   C     0.06359   0.79492   0.49762   0.00000  Uiso   1.00
C240   C     0.62815   0.85758   0.60831   0.00000  Uiso   1.00
C241   C     0.61279   0.96026   0.60913   0.00000  Uiso   1.00
C242   C     0.51075   0.95042   0.58770   0.00000  Uiso   1.00
C243   C     0.36048   0.98157   0.55794   0.00000  Uiso   1.00
C244   C     0.57926   0.64816   0.59007   0.00000  Uiso   1.00
C245   C     0.58806   0.62771   0.63782   0.00000  Uiso   1.00
C246   C     0.52259   0.51577   0.65926   0.00000  Uiso   1.00
C247   C     0.54367   0.51633   0.70297   0.00000  Uiso   1.00
C248   C     0.71060   0.70488   0.57260   0.00000  Uiso   1.00
C249   C     0.74815   0.65783   0.53920   0.00000  Uiso   1.00
C250   C     0.87238   0.72335   0.52801   0.00000  Uiso   1.00
C251   C     0.54457   0.74894   0.58685   0.00000  Uiso   1.00
C252   C     0.44255   0.73895   0.56542   0.00000  Uiso   1.00
C253   C     0.42703   0.84158   0.56621   0.00000  Uiso   1.00
H254   H     0.79819   0.93276   0.64628   0.00000  Uiso   1.00
H255   H     0.75751   0.82117   0.71956   0.00000  Uiso   1.00
H256   H     0.98302   0.96321   0.59952   0.00000  Uiso   1.00
H257   H     0.67747   0.04431   0.62573   0.00000  Uiso   1.00
H258   H     0.67558   0.64953   0.79134   0.00000  Uiso   1.00
H259   H     0.15108   0.94905   0.53822   0.00000  Uiso   1.00
H260   H     0.50678   0.12008   0.59350   0.00000  Uiso   1.00
H261   H     0.51420   0.56357   0.57336   0.00000  Uiso   1.00
H262   H     0.45792   0.43171   0.64264   0.00000  Uiso   1.00
H263   H     0.68345   0.57376   0.52260   0.00000  Uiso   1.00
H264   H     0.37790   0.65486   0.54882   0.00000  Uiso   1.00
H265   H     0.43243   0.33343   0.72891   0.00000  Uiso   1.00
H266   H     0.90794   0.63296   0.47579   0.00000  Uiso   1.00
H267   H     0.26364   0.80398   0.53107   0.00000  Uiso   1.00
O268   O     0.52214   0.41140   0.80702   0.00000  Uiso   1.00
O269   O     0.14598   0.80437   0.47493   0.00000  Uiso   1.00
O270   O     0.30067   0.02876   0.54745   0.00000  Uiso   1.00
N271   N     0.62606   0.59324   0.76714   0.00000  Uiso   1.00
N272   N     0.07063   0.87326   0.53050   0.00000  Uiso   1.00
N273   N     0.46828   0.03317   0.58216   0.00000  Uiso   1.00
N274   N     0.49522   0.42315   0.73355   0.00000  Uiso   1.00
N275   N     0.93979   0.70317   0.49690   0.00000  Uiso   1.00
N276   N     0.33745   0.86308   0.54857   0.00000  Uiso   1.00
