data_job_01153
_audit_creation_date              2018-12-19
_audit_creation_method            'Materials Studio'
_symmetry_space_group_name_H-M    'P1'
_symmetry_Int_Tables_number       1
_symmetry_cell_setting            triclinic
loop_
_symmetry_equiv_pos_as_xyz
  x,y,z
_cell_length_a                    19.2821
_cell_length_b                    14.6693
_cell_length_c                    20.7624
_cell_angle_alpha                 90.0000
_cell_angle_beta                  90.0000
_cell_angle_gamma                 90.0000
loop_
_atom_site_label
_atom_site_type_symbol
_atom_site_fract_x
_atom_site_fract_y
_atom_site_fract_z
_atom_site_U_iso_or_equiv
_atom_site_adp_type
_atom_site_occupancy
C1     C     0.42423   0.87977   0.41690   0.00000  Uiso   1.00
C2     C     0.47046   0.81069   0.38271   0.00000  Uiso   1.00
C3     C     0.53196   0.83023   0.35085   0.00000  Uiso   1.00
C4     C     0.56663   0.75751   0.32264   0.00000  Uiso   1.00
C5     C     0.64233   0.66378   0.26899   0.00000  Uiso   1.00
C6     C     0.35262   0.87036   0.38645   0.00000  Uiso   1.00
C7     C     0.31504   0.94009   0.35776   0.00000  Uiso   1.00
C8     C     0.25050   0.91761   0.33271   0.00000  Uiso   1.00
C9     C     0.14324   0.91655   0.28492   0.00000  Uiso   1.00
C10    C     0.41686   0.84597   0.48601   0.00000  Uiso   1.00
C11    C     0.43328   0.89518   0.54102   0.00000  Uiso   1.00
C12    C     0.42282   0.85217   0.59979   0.00000  Uiso   1.00
C13    C     0.41531   0.81322   0.70657   0.00000  Uiso   1.00
C14    C     0.37644   0.71589   0.42345   0.00000  Uiso   1.00
C15    C     0.44449   0.72167   0.38627   0.00000  Uiso   1.00
C16    C     0.47908   0.64891   0.35810   0.00000  Uiso   1.00
C17    C     0.54062   0.66833   0.32621   0.00000  Uiso   1.00
C18    C     0.32666   0.78135   0.39001   0.00000  Uiso   1.00
C19    C     0.26216   0.75877   0.36501   0.00000  Uiso   1.00
C20    C     0.22449   0.82843   0.33627   0.00000  Uiso   1.00
C21    C     0.39090   0.75695   0.48957   0.00000  Uiso   1.00
C22    C     0.38040   0.71385   0.54827   0.00000  Uiso   1.00
C23    C     0.39681   0.76299   0.60336   0.00000  Uiso   1.00
H24    H     0.44444   0.94908   0.41412   0.00000  Uiso   1.00
H25    H     0.55203   0.89913   0.34810   0.00000  Uiso   1.00
H26    H     0.33514   0.00897   0.35502   0.00000  Uiso   1.00
H27    H     0.45337   0.96406   0.53825   0.00000  Uiso   1.00
H28    H     0.65985   0.80449   0.27646   0.00000  Uiso   1.00
H29    H     0.20252   0.03611   0.29105   0.00000  Uiso   1.00
H30    H     0.45183   0.94142   0.67743   0.00000  Uiso   1.00
H31    H     0.35622   0.64658   0.42622   0.00000  Uiso   1.00
H32    H     0.45897   0.58003   0.36086   0.00000  Uiso   1.00
H33    H     0.24208   0.68987   0.36777   0.00000  Uiso   1.00
H34    H     0.36031   0.64497   0.55100   0.00000  Uiso   1.00
H35    H     0.58432   0.54550   0.28681   0.00000  Uiso   1.00
H36    H     0.12698   0.77712   0.30140   0.00000  Uiso   1.00
H37    H     0.37630   0.68243   0.68779   0.00000  Uiso   1.00
O38    O     0.69126   0.63668   0.23840   0.00000  Uiso   1.00
O39    O     0.09125   0.94055   0.25756   0.00000  Uiso   1.00
O40    O     0.41835   0.81632   0.76448   0.00000  Uiso   1.00
N41    N     0.62798   0.75267   0.28788   0.00000  Uiso   1.00
N42    N     0.20040   0.96922   0.30151   0.00000  Uiso   1.00
N43    N     0.43347   0.88070   0.66275   0.00000  Uiso   1.00
N44    N     0.58734   0.61331   0.29345   0.00000  Uiso   1.00
N45    N     0.15976   0.82985   0.30708   0.00000  Uiso   1.00
N46    N     0.39283   0.74134   0.66832   0.00000  Uiso   1.00
C47    C     0.07577   0.62023   0.91690   0.00000  Uiso   1.00
C48    C     0.02954   0.68931   0.88271   0.00000  Uiso   1.00
C49    C     0.96804   0.66977   0.85085   0.00000  Uiso   1.00
C50    C     0.93337   0.74249   0.82264   0.00000  Uiso   1.00
C51    C     0.85767   0.83622   0.76899   0.00000  Uiso   1.00
C52    C     0.14738   0.62964   0.88645   0.00000  Uiso   1.00
C53    C     0.18496   0.55991   0.85776   0.00000  Uiso   1.00
C54    C     0.24950   0.58239   0.83271   0.00000  Uiso   1.00
C55    C     0.35676   0.58345   0.78492   0.00000  Uiso   1.00
C56    C     0.08314   0.65403   0.98601   0.00000  Uiso   1.00
C57    C     0.06672   0.60482   0.04102   0.00000  Uiso   1.00
C58    C     0.07718   0.64783   0.09979   0.00000  Uiso   1.00
C59    C     0.08469   0.68678   0.20657   0.00000  Uiso   1.00
C60    C     0.12356   0.78411   0.92345   0.00000  Uiso   1.00
C61    C     0.05551   0.77833   0.88627   0.00000  Uiso   1.00
C62    C     0.02092   0.85109   0.85810   0.00000  Uiso   1.00
C63    C     0.95938   0.83167   0.82621   0.00000  Uiso   1.00
C64    C     0.17334   0.71865   0.89001   0.00000  Uiso   1.00
C65    C     0.23784   0.74123   0.86501   0.00000  Uiso   1.00
C66    C     0.27551   0.67157   0.83627   0.00000  Uiso   1.00
C67    C     0.10910   0.74305   0.98957   0.00000  Uiso   1.00
C68    C     0.11960   0.78615   0.04827   0.00000  Uiso   1.00
C69    C     0.10319   0.73701   0.10336   0.00000  Uiso   1.00
H70    H     0.05556   0.55092   0.91412   0.00000  Uiso   1.00
H71    H     0.94797   0.60087   0.84810   0.00000  Uiso   1.00
H72    H     0.16486   0.49103   0.85502   0.00000  Uiso   1.00
H73    H     0.04663   0.53594   0.03825   0.00000  Uiso   1.00
H74    H     0.84015   0.69551   0.77646   0.00000  Uiso   1.00
H75    H     0.29748   0.46389   0.79105   0.00000  Uiso   1.00
H76    H     0.04817   0.55858   0.17743   0.00000  Uiso   1.00
H77    H     0.14378   0.85342   0.92622   0.00000  Uiso   1.00
H78    H     0.04103   0.91997   0.86086   0.00000  Uiso   1.00
H79    H     0.25792   0.81013   0.86777   0.00000  Uiso   1.00
H80    H     0.13969   0.85503   0.05100   0.00000  Uiso   1.00
H81    H     0.91568   0.95450   0.78681   0.00000  Uiso   1.00
H82    H     0.37302   0.72288   0.80140   0.00000  Uiso   1.00
H83    H     0.12370   0.81757   0.18779   0.00000  Uiso   1.00
O84    O     0.80874   0.86332   0.73840   0.00000  Uiso   1.00
O85    O     0.40875   0.55945   0.75756   0.00000  Uiso   1.00
O86    O     0.08165   0.68368   0.26448   0.00000  Uiso   1.00
N87    N     0.87202   0.74733   0.78788   0.00000  Uiso   1.00
N88    N     0.29960   0.53078   0.80151   0.00000  Uiso   1.00
N89    N     0.06653   0.61930   0.16275   0.00000  Uiso   1.00
N90    N     0.91266   0.88669   0.79345   0.00000  Uiso   1.00
N91    N     0.34024   0.67015   0.80708   0.00000  Uiso   1.00
N92    N     0.10717   0.75866   0.16832   0.00000  Uiso   1.00
C93    C     0.57577   0.87977   0.08310   0.00000  Uiso   1.00
C94    C     0.52954   0.81069   0.11729   0.00000  Uiso   1.00
C95    C     0.46804   0.83023   0.14915   0.00000  Uiso   1.00
C96    C     0.43337   0.75751   0.17736   0.00000  Uiso   1.00
C97    C     0.35767   0.66378   0.23101   0.00000  Uiso   1.00
C98    C     0.64738   0.87036   0.11355   0.00000  Uiso   1.00
C99    C     0.68496   0.94009   0.14224   0.00000  Uiso   1.00
C100   C     0.74950   0.91761   0.16729   0.00000  Uiso   1.00
C101   C     0.85676   0.91655   0.21508   0.00000  Uiso   1.00
C102   C     0.58314   0.84597   0.01399   0.00000  Uiso   1.00
C103   C     0.56672   0.89518   0.95898   0.00000  Uiso   1.00
C104   C     0.57718   0.85217   0.90021   0.00000  Uiso   1.00
C105   C     0.58469   0.81322   0.79343   0.00000  Uiso   1.00
C106   C     0.62356   0.71589   0.07655   0.00000  Uiso   1.00
C107   C     0.55551   0.72167   0.11373   0.00000  Uiso   1.00
C108   C     0.52092   0.64891   0.14190   0.00000  Uiso   1.00
C109   C     0.45938   0.66833   0.17379   0.00000  Uiso   1.00
C110   C     0.67334   0.78135   0.10999   0.00000  Uiso   1.00
C111   C     0.73784   0.75877   0.13499   0.00000  Uiso   1.00
C112   C     0.77551   0.82843   0.16373   0.00000  Uiso   1.00
C113   C     0.60910   0.75695   0.01043   0.00000  Uiso   1.00
C114   C     0.61960   0.71385   0.95173   0.00000  Uiso   1.00
C115   C     0.60319   0.76299   0.89664   0.00000  Uiso   1.00
H116   H     0.55556   0.94908   0.08588   0.00000  Uiso   1.00
H117   H     0.44797   0.89913   0.15190   0.00000  Uiso   1.00
H118   H     0.66486   0.00897   0.14498   0.00000  Uiso   1.00
H119   H     0.54663   0.96406   0.96175   0.00000  Uiso   1.00
H120   H     0.34015   0.80449   0.22354   0.00000  Uiso   1.00
H121   H     0.79748   0.03611   0.20895   0.00000  Uiso   1.00
H122   H     0.54817   0.94142   0.82257   0.00000  Uiso   1.00
H123   H     0.64378   0.64658   0.07378   0.00000  Uiso   1.00
H124   H     0.54103   0.58003   0.13914   0.00000  Uiso   1.00
H125   H     0.75792   0.68987   0.13223   0.00000  Uiso   1.00
H126   H     0.63969   0.64497   0.94900   0.00000  Uiso   1.00
H127   H     0.41568   0.54550   0.21319   0.00000  Uiso   1.00
H128   H     0.87302   0.77712   0.19860   0.00000  Uiso   1.00
H129   H     0.62370   0.68243   0.81221   0.00000  Uiso   1.00
O130   O     0.30874   0.63668   0.26160   0.00000  Uiso   1.00
O131   O     0.90875   0.94055   0.24244   0.00000  Uiso   1.00
O132   O     0.58165   0.81632   0.73552   0.00000  Uiso   1.00
N133   N     0.37202   0.75267   0.21212   0.00000  Uiso   1.00
N134   N     0.79960   0.96922   0.19849   0.00000  Uiso   1.00
N135   N     0.56653   0.88070   0.83725   0.00000  Uiso   1.00
N136   N     0.41266   0.61331   0.20655   0.00000  Uiso   1.00
N137   N     0.84024   0.82985   0.19292   0.00000  Uiso   1.00
N138   N     0.60717   0.74134   0.83168   0.00000  Uiso   1.00
C139   C     0.92423   0.62023   0.58310   0.00000  Uiso   1.00
C140   C     0.97046   0.68931   0.61729   0.00000  Uiso   1.00
C141   C     0.03196   0.66977   0.64915   0.00000  Uiso   1.00
C142   C     0.06663   0.74249   0.67736   0.00000  Uiso   1.00
C143   C     0.14233   0.83622   0.73101   0.00000  Uiso   1.00
C144   C     0.85262   0.62964   0.61355   0.00000  Uiso   1.00
C145   C     0.81504   0.55991   0.64224   0.00000  Uiso   1.00
C146   C     0.75050   0.58239   0.66729   0.00000  Uiso   1.00
C147   C     0.64324   0.58345   0.71508   0.00000  Uiso   1.00
C148   C     0.91686   0.65403   0.51399   0.00000  Uiso   1.00
C149   C     0.93328   0.60482   0.45898   0.00000  Uiso   1.00
C150   C     0.92282   0.64783   0.40021   0.00000  Uiso   1.00
C151   C     0.91531   0.68678   0.29343   0.00000  Uiso   1.00
C152   C     0.87644   0.78411   0.57655   0.00000  Uiso   1.00
C153   C     0.94449   0.77833   0.61373   0.00000  Uiso   1.00
C154   C     0.97908   0.85109   0.64190   0.00000  Uiso   1.00
C155   C     0.04062   0.83167   0.67379   0.00000  Uiso   1.00
C156   C     0.82666   0.71865   0.60999   0.00000  Uiso   1.00
C157   C     0.76216   0.74123   0.63499   0.00000  Uiso   1.00
C158   C     0.72449   0.67157   0.66373   0.00000  Uiso   1.00
C159   C     0.89090   0.74305   0.51043   0.00000  Uiso   1.00
C160   C     0.88040   0.78615   0.45173   0.00000  Uiso   1.00
C161   C     0.89681   0.73701   0.39664   0.00000  Uiso   1.00
H162   H     0.94444   0.55092   0.58588   0.00000  Uiso   1.00
H163   H     0.05203   0.60087   0.65190   0.00000  Uiso   1.00
H164   H     0.83514   0.49103   0.64498   0.00000  Uiso   1.00
H165   H     0.95337   0.53594   0.46175   0.00000  Uiso   1.00
H166   H     0.15985   0.69551   0.72354   0.00000  Uiso   1.00
H167   H     0.70252   0.46389   0.70895   0.00000  Uiso   1.00
H168   H     0.95183   0.55858   0.32257   0.00000  Uiso   1.00
H169   H     0.85622   0.85342   0.57378   0.00000  Uiso   1.00
H170   H     0.95897   0.91997   0.63914   0.00000  Uiso   1.00
H171   H     0.74208   0.81013   0.63223   0.00000  Uiso   1.00
H172   H     0.86031   0.85503   0.44900   0.00000  Uiso   1.00
H173   H     0.08432   0.95450   0.71319   0.00000  Uiso   1.00
H174   H     0.62698   0.72288   0.69860   0.00000  Uiso   1.00
H175   H     0.87630   0.81757   0.31221   0.00000  Uiso   1.00
O176   O     0.19126   0.86332   0.76160   0.00000  Uiso   1.00
O177   O     0.59125   0.55945   0.74244   0.00000  Uiso   1.00
O178   O     0.91835   0.68368   0.23552   0.00000  Uiso   1.00
N179   N     0.12798   0.74733   0.71212   0.00000  Uiso   1.00
N180   N     0.70040   0.53078   0.69849   0.00000  Uiso   1.00
N181   N     0.93347   0.61930   0.33725   0.00000  Uiso   1.00
N182   N     0.08734   0.88669   0.70655   0.00000  Uiso   1.00
N183   N     0.65976   0.67015   0.69292   0.00000  Uiso   1.00
N184   N     0.89283   0.75866   0.33168   0.00000  Uiso   1.00
C185   C     0.57577   0.12023   0.58310   0.00000  Uiso   1.00
C186   C     0.52954   0.18931   0.61729   0.00000  Uiso   1.00
C187   C     0.46804   0.16977   0.64915   0.00000  Uiso   1.00
C188   C     0.43337   0.24249   0.67736   0.00000  Uiso   1.00
C189   C     0.35767   0.33622   0.73101   0.00000  Uiso   1.00
C190   C     0.64738   0.12964   0.61355   0.00000  Uiso   1.00
C191   C     0.68496   0.05991   0.64224   0.00000  Uiso   1.00
C192   C     0.74950   0.08239   0.66729   0.00000  Uiso   1.00
C193   C     0.85676   0.08345   0.71508   0.00000  Uiso   1.00
C194   C     0.58314   0.15403   0.51399   0.00000  Uiso   1.00
C195   C     0.56672   0.10482   0.45898   0.00000  Uiso   1.00
C196   C     0.57718   0.14783   0.40021   0.00000  Uiso   1.00
C197   C     0.58469   0.18678   0.29343   0.00000  Uiso   1.00
C198   C     0.62356   0.28411   0.57655   0.00000  Uiso   1.00
C199   C     0.55551   0.27833   0.61373   0.00000  Uiso   1.00
C200   C     0.52092   0.35109   0.64190   0.00000  Uiso   1.00
C201   C     0.45938   0.33167   0.67379   0.00000  Uiso   1.00
C202   C     0.67334   0.21865   0.60999   0.00000  Uiso   1.00
C203   C     0.73784   0.24123   0.63499   0.00000  Uiso   1.00
C204   C     0.77551   0.17157   0.66373   0.00000  Uiso   1.00
C205   C     0.60910   0.24305   0.51043   0.00000  Uiso   1.00
C206   C     0.61960   0.28615   0.45173   0.00000  Uiso   1.00
C207   C     0.60319   0.23701   0.39664   0.00000  Uiso   1.00
H208   H     0.55556   0.05092   0.58588   0.00000  Uiso   1.00
H209   H     0.44797   0.10087   0.65190   0.00000  Uiso   1.00
H210   H     0.66486   0.99103   0.64498   0.00000  Uiso   1.00
H211   H     0.54663   0.03594   0.46175   0.00000  Uiso   1.00
H212   H     0.34015   0.19551   0.72354   0.00000  Uiso   1.00
H213   H     0.79748   0.96389   0.70895   0.00000  Uiso   1.00
H214   H     0.54817   0.05858   0.32257   0.00000  Uiso   1.00
H215   H     0.64378   0.35342   0.57378   0.00000  Uiso   1.00
H216   H     0.54103   0.41997   0.63914   0.00000  Uiso   1.00
H217   H     0.75792   0.31013   0.63223   0.00000  Uiso   1.00
H218   H     0.63969   0.35503   0.44900   0.00000  Uiso   1.00
H219   H     0.41568   0.45450   0.71319   0.00000  Uiso   1.00
H220   H     0.87302   0.22288   0.69860   0.00000  Uiso   1.00
H221   H     0.62370   0.31757   0.31221   0.00000  Uiso   1.00
O222   O     0.30874   0.36332   0.76160   0.00000  Uiso   1.00
O223   O     0.90875   0.05945   0.74244   0.00000  Uiso   1.00
O224   O     0.58165   0.18368   0.23552   0.00000  Uiso   1.00
N225   N     0.37202   0.24733   0.71212   0.00000  Uiso   1.00
N226   N     0.79960   0.03078   0.69849   0.00000  Uiso   1.00
N227   N     0.56653   0.11930   0.33725   0.00000  Uiso   1.00
N228   N     0.41266   0.38669   0.70655   0.00000  Uiso   1.00
N229   N     0.84024   0.17015   0.69292   0.00000  Uiso   1.00
N230   N     0.60717   0.25866   0.33168   0.00000  Uiso   1.00
C231   C     0.92423   0.37977   0.08310   0.00000  Uiso   1.00
C232   C     0.97046   0.31069   0.11729   0.00000  Uiso   1.00
C233   C     0.03196   0.33023   0.14915   0.00000  Uiso   1.00
C234   C     0.06663   0.25751   0.17736   0.00000  Uiso   1.00
C235   C     0.14233   0.16378   0.23101   0.00000  Uiso   1.00
C236   C     0.85262   0.37036   0.11355   0.00000  Uiso   1.00
C237   C     0.81504   0.44009   0.14224   0.00000  Uiso   1.00
C238   C     0.75050   0.41761   0.16729   0.00000  Uiso   1.00
C239   C     0.64324   0.41655   0.21508   0.00000  Uiso   1.00
C240   C     0.91686   0.34597   0.01399   0.00000  Uiso   1.00
C241   C     0.93328   0.39518   0.95898   0.00000  Uiso   1.00
C242   C     0.92282   0.35217   0.90021   0.00000  Uiso   1.00
C243   C     0.91531   0.31322   0.79343   0.00000  Uiso   1.00
C244   C     0.87644   0.21589   0.07655   0.00000  Uiso   1.00
C245   C     0.94449   0.22167   0.11373   0.00000  Uiso   1.00
C246   C     0.97908   0.14891   0.14190   0.00000  Uiso   1.00
C247   C     0.04062   0.16833   0.17379   0.00000  Uiso   1.00
C248   C     0.82666   0.28135   0.10999   0.00000  Uiso   1.00
C249   C     0.76216   0.25877   0.13499   0.00000  Uiso   1.00
C250   C     0.72449   0.32843   0.16373   0.00000  Uiso   1.00
C251   C     0.89090   0.25695   0.01043   0.00000  Uiso   1.00
C252   C     0.88040   0.21385   0.95173   0.00000  Uiso   1.00
C253   C     0.89681   0.26299   0.89664   0.00000  Uiso   1.00
H254   H     0.94444   0.44908   0.08588   0.00000  Uiso   1.00
H255   H     0.05203   0.39913   0.15190   0.00000  Uiso   1.00
H256   H     0.83514   0.50897   0.14498   0.00000  Uiso   1.00
H257   H     0.95337   0.46406   0.96175   0.00000  Uiso   1.00
H258   H     0.15985   0.30449   0.22354   0.00000  Uiso   1.00
H259   H     0.70252   0.53611   0.20895   0.00000  Uiso   1.00
H260   H     0.95183   0.44142   0.82257   0.00000  Uiso   1.00
H261   H     0.85622   0.14658   0.07378   0.00000  Uiso   1.00
H262   H     0.95897   0.08003   0.13914   0.00000  Uiso   1.00
H263   H     0.74208   0.18987   0.13223   0.00000  Uiso   1.00
H264   H     0.86031   0.14497   0.94900   0.00000  Uiso   1.00
H265   H     0.08432   0.04550   0.21319   0.00000  Uiso   1.00
H266   H     0.62698   0.27712   0.19860   0.00000  Uiso   1.00
H267   H     0.87630   0.18243   0.81221   0.00000  Uiso   1.00
O268   O     0.19126   0.13668   0.26160   0.00000  Uiso   1.00
O269   O     0.59125   0.44055   0.24244   0.00000  Uiso   1.00
O270   O     0.91835   0.31632   0.73552   0.00000  Uiso   1.00
N271   N     0.12798   0.25267   0.21212   0.00000  Uiso   1.00
N272   N     0.70040   0.46922   0.19849   0.00000  Uiso   1.00
N273   N     0.93347   0.38070   0.83725   0.00000  Uiso   1.00
N274   N     0.08734   0.11331   0.20655   0.00000  Uiso   1.00
N275   N     0.65976   0.32985   0.19292   0.00000  Uiso   1.00
N276   N     0.89283   0.24134   0.83168   0.00000  Uiso   1.00
C277   C     0.42423   0.12023   0.91690   0.00000  Uiso   1.00
C278   C     0.47046   0.18931   0.88271   0.00000  Uiso   1.00
C279   C     0.53196   0.16977   0.85085   0.00000  Uiso   1.00
C280   C     0.56663   0.24249   0.82264   0.00000  Uiso   1.00
C281   C     0.64233   0.33622   0.76899   0.00000  Uiso   1.00
C282   C     0.35262   0.12964   0.88645   0.00000  Uiso   1.00
C283   C     0.31504   0.05991   0.85776   0.00000  Uiso   1.00
C284   C     0.25050   0.08239   0.83271   0.00000  Uiso   1.00
C285   C     0.14324   0.08345   0.78492   0.00000  Uiso   1.00
C286   C     0.41686   0.15403   0.98601   0.00000  Uiso   1.00
C287   C     0.43328   0.10482   0.04102   0.00000  Uiso   1.00
C288   C     0.42282   0.14783   0.09979   0.00000  Uiso   1.00
C289   C     0.41531   0.18678   0.20657   0.00000  Uiso   1.00
C290   C     0.37644   0.28411   0.92345   0.00000  Uiso   1.00
C291   C     0.44449   0.27833   0.88627   0.00000  Uiso   1.00
C292   C     0.47908   0.35109   0.85810   0.00000  Uiso   1.00
C293   C     0.54062   0.33167   0.82621   0.00000  Uiso   1.00
C294   C     0.32666   0.21865   0.89001   0.00000  Uiso   1.00
C295   C     0.26216   0.24123   0.86501   0.00000  Uiso   1.00
C296   C     0.22449   0.17157   0.83627   0.00000  Uiso   1.00
C297   C     0.39090   0.24305   0.98957   0.00000  Uiso   1.00
C298   C     0.38040   0.28615   0.04827   0.00000  Uiso   1.00
C299   C     0.39681   0.23701   0.10336   0.00000  Uiso   1.00
H300   H     0.44444   0.05092   0.91412   0.00000  Uiso   1.00
H301   H     0.55203   0.10087   0.84810   0.00000  Uiso   1.00
H302   H     0.33514   0.99103   0.85502   0.00000  Uiso   1.00
H303   H     0.45337   0.03594   0.03825   0.00000  Uiso   1.00
H304   H     0.65985   0.19551   0.77646   0.00000  Uiso   1.00
H305   H     0.20252   0.96389   0.79105   0.00000  Uiso   1.00
H306   H     0.45183   0.05858   0.17743   0.00000  Uiso   1.00
H307   H     0.35622   0.35342   0.92622   0.00000  Uiso   1.00
H308   H     0.45897   0.41997   0.86086   0.00000  Uiso   1.00
H309   H     0.24208   0.31013   0.86777   0.00000  Uiso   1.00
H310   H     0.36031   0.35503   0.05100   0.00000  Uiso   1.00
H311   H     0.58432   0.45450   0.78681   0.00000  Uiso   1.00
H312   H     0.12698   0.22288   0.80140   0.00000  Uiso   1.00
H313   H     0.37630   0.31757   0.18779   0.00000  Uiso   1.00
O314   O     0.69126   0.36332   0.73840   0.00000  Uiso   1.00
O315   O     0.09125   0.05945   0.75756   0.00000  Uiso   1.00
O316   O     0.41835   0.18368   0.26448   0.00000  Uiso   1.00
N317   N     0.62798   0.24733   0.78788   0.00000  Uiso   1.00
N318   N     0.20040   0.03078   0.80151   0.00000  Uiso   1.00
N319   N     0.43347   0.11930   0.16275   0.00000  Uiso   1.00
N320   N     0.58734   0.38669   0.79345   0.00000  Uiso   1.00
N321   N     0.15976   0.17015   0.80708   0.00000  Uiso   1.00
N322   N     0.39283   0.25866   0.16832   0.00000  Uiso   1.00
C323   C     0.07577   0.37977   0.41690   0.00000  Uiso   1.00
C324   C     0.02954   0.31069   0.38271   0.00000  Uiso   1.00
C325   C     0.96804   0.33023   0.35085   0.00000  Uiso   1.00
C326   C     0.93337   0.25751   0.32264   0.00000  Uiso   1.00
C327   C     0.85767   0.16378   0.26899   0.00000  Uiso   1.00
C328   C     0.14738   0.37036   0.38645   0.00000  Uiso   1.00
C329   C     0.18496   0.44009   0.35776   0.00000  Uiso   1.00
C330   C     0.24950   0.41761   0.33271   0.00000  Uiso   1.00
C331   C     0.35676   0.41655   0.28492   0.00000  Uiso   1.00
C332   C     0.08314   0.34597   0.48601   0.00000  Uiso   1.00
C333   C     0.06672   0.39518   0.54102   0.00000  Uiso   1.00
C334   C     0.07718   0.35217   0.59979   0.00000  Uiso   1.00
C335   C     0.08469   0.31322   0.70657   0.00000  Uiso   1.00
C336   C     0.12356   0.21589   0.42345   0.00000  Uiso   1.00
C337   C     0.05551   0.22167   0.38627   0.00000  Uiso   1.00
C338   C     0.02092   0.14891   0.35810   0.00000  Uiso   1.00
C339   C     0.95938   0.16833   0.32621   0.00000  Uiso   1.00
C340   C     0.17334   0.28135   0.39001   0.00000  Uiso   1.00
C341   C     0.23784   0.25877   0.36501   0.00000  Uiso   1.00
C342   C     0.27551   0.32843   0.33627   0.00000  Uiso   1.00
C343   C     0.10910   0.25695   0.48957   0.00000  Uiso   1.00
C344   C     0.11960   0.21385   0.54827   0.00000  Uiso   1.00
C345   C     0.10319   0.26299   0.60336   0.00000  Uiso   1.00
H346   H     0.05556   0.44908   0.41412   0.00000  Uiso   1.00
H347   H     0.94797   0.39913   0.34810   0.00000  Uiso   1.00
H348   H     0.16486   0.50897   0.35502   0.00000  Uiso   1.00
H349   H     0.04663   0.46406   0.53825   0.00000  Uiso   1.00
H350   H     0.84015   0.30449   0.27646   0.00000  Uiso   1.00
H351   H     0.29748   0.53611   0.29105   0.00000  Uiso   1.00
H352   H     0.04817   0.44142   0.67743   0.00000  Uiso   1.00
H353   H     0.14378   0.14658   0.42622   0.00000  Uiso   1.00
H354   H     0.04103   0.08003   0.36086   0.00000  Uiso   1.00
H355   H     0.25792   0.18987   0.36777   0.00000  Uiso   1.00
H356   H     0.13969   0.14497   0.55100   0.00000  Uiso   1.00
H357   H     0.91568   0.04550   0.28681   0.00000  Uiso   1.00
H358   H     0.37302   0.27712   0.30140   0.00000  Uiso   1.00
H359   H     0.12370   0.18243   0.68779   0.00000  Uiso   1.00
O360   O     0.80874   0.13668   0.23840   0.00000  Uiso   1.00
O361   O     0.40875   0.44055   0.25756   0.00000  Uiso   1.00
O362   O     0.08165   0.31632   0.76448   0.00000  Uiso   1.00
N363   N     0.87202   0.25267   0.28788   0.00000  Uiso   1.00
N364   N     0.29960   0.46922   0.30151   0.00000  Uiso   1.00
N365   N     0.06653   0.38070   0.66275   0.00000  Uiso   1.00
N366   N     0.91266   0.11331   0.29345   0.00000  Uiso   1.00
N367   N     0.34024   0.32985   0.30708   0.00000  Uiso   1.00
N368   N     0.10717   0.24134   0.66832   0.00000  Uiso   1.00
