data_job_06734
_audit_creation_date              2018-12-19
_audit_creation_method            'Materials Studio'
_symmetry_space_group_name_H-M    'P1'
_symmetry_Int_Tables_number       1
_symmetry_cell_setting            triclinic
loop_
_symmetry_equiv_pos_as_xyz
  x,y,z
_cell_length_a                    23.4422
_cell_length_b                    23.1007
_cell_length_c                    23.0650
_cell_angle_alpha                 92.6122
_cell_angle_beta                  93.0525
_cell_angle_gamma                 93.1782
loop_
_atom_site_label
_atom_site_type_symbol
_atom_site_fract_x
_atom_site_fract_y
_atom_site_fract_z
_atom_site_U_iso_or_equiv
_atom_site_adp_type
_atom_site_occupancy
C1     C     0.17001   0.75464   0.65521   0.00000  Uiso   1.00
C2     C     0.11260   0.77132   0.62869   0.00000  Uiso   1.00
C3     C     0.09577   0.82751   0.62278   0.00000  Uiso   1.00
C4     C     0.04154   0.83365   0.59739   0.00000  Uiso   1.00
C5     C     0.95786   0.86691   0.55909   0.00000  Uiso   1.00
C6     C     0.15610   0.71510   0.70434   0.00000  Uiso   1.00
C7     C     0.17585   0.72400   0.76203   0.00000  Uiso   1.00
C8     C     0.15824   0.68281   0.80032   0.00000  Uiso   1.00
C9     C     0.14214   0.62875   0.87946   0.00000  Uiso   1.00
C10    C     0.19585   0.71651   0.60891   0.00000  Uiso   1.00
C11    C     0.24902   0.72659   0.58638   0.00000  Uiso   1.00
C12    C     0.26489   0.68658   0.54434   0.00000  Uiso   1.00
C13    C     0.31049   0.63472   0.47531   0.00000  Uiso   1.00
C14    C     0.10364   0.66564   0.62063   0.00000  Uiso   1.00
C15    C     0.07655   0.72298   0.60991   0.00000  Uiso   1.00
C16    C     0.02233   0.72904   0.58452   0.00000  Uiso   1.00
C17    C     0.00542   0.78522   0.57857   0.00000  Uiso   1.00
C18    C     0.12005   0.66676   0.68556   0.00000  Uiso   1.00
C19    C     0.10241   0.62554   0.72377   0.00000  Uiso   1.00
C20    C     0.12213   0.63438   0.78150   0.00000  Uiso   1.00
C21    C     0.15980   0.66817   0.59013   0.00000  Uiso   1.00
C22    C     0.17558   0.62813   0.54812   0.00000  Uiso   1.00
C23    C     0.22877   0.63815   0.52552   0.00000  Uiso   1.00
H24    H     0.19808   0.79227   0.66984   0.00000  Uiso   1.00
H25    H     0.12368   0.86490   0.63732   0.00000  Uiso   1.00
H26    H     0.20376   0.76141   0.77655   0.00000  Uiso   1.00
H27    H     0.27691   0.76401   0.60093   0.00000  Uiso   1.00
H28    H     0.02528   0.92411   0.59301   0.00000  Uiso   1.00
H29    H     0.19414   0.70588   0.88658   0.00000  Uiso   1.00
H30    H     0.34841   0.71135   0.51624   0.00000  Uiso   1.00
H31    H     0.07557   0.62801   0.60601   0.00000  Uiso   1.00
H32    H     0.99444   0.69163   0.56999   0.00000  Uiso   1.00
H33    H     0.07452   0.58814   0.70922   0.00000  Uiso   1.00
H34    H     0.14767   0.59073   0.53359   0.00000  Uiso   1.00
H35    H     0.92039   0.78347   0.53836   0.00000  Uiso   1.00
H36    H     0.08925   0.56524   0.83193   0.00000  Uiso   1.00
H37    H     0.24351   0.57071   0.46159   0.00000  Uiso   1.00
O38    O     0.92167   0.89861   0.54316   0.00000  Uiso   1.00
O39    O     0.14321   0.61230   0.92830   0.00000  Uiso   1.00
O40    O     0.34561   0.61947   0.44243   0.00000  Uiso   1.00
N41    N     0.01173   0.88228   0.58508   0.00000  Uiso   1.00
N42    N     0.16960   0.67826   0.85955   0.00000  Uiso   1.00
N43    N     0.31383   0.68336   0.51332   0.00000  Uiso   1.00
N44    N     0.95529   0.80660   0.55567   0.00000  Uiso   1.00
N45    N     0.11315   0.60258   0.83014   0.00000  Uiso   1.00
N46    N     0.25739   0.60768   0.48392   0.00000  Uiso   1.00
C47    C     0.76101   0.04875   0.78548   0.00000  Uiso   1.00
C48    C     0.73350   0.99188   0.80460   0.00000  Uiso   1.00
C49    C     0.72960   0.97594   0.86160   0.00000  Uiso   1.00
C50    C     0.70284   0.92209   0.87003   0.00000  Uiso   1.00
C51    C     0.66349   0.83934   0.90685   0.00000  Uiso   1.00
C52    C     0.80667   0.03190   0.74418   0.00000  Uiso   1.00
C53    C     0.86431   0.04961   0.75039   0.00000  Uiso   1.00
C54    C     0.89914   0.02945   0.70795   0.00000  Uiso   1.00
C55    C     0.97340   0.00887   0.65095   0.00000  Uiso   1.00
C56    C     0.71505   0.07634   0.74843   0.00000  Uiso   1.00
C57    C     0.69565   0.13143   0.75821   0.00000  Uiso   1.00
C58    C     0.65334   0.14868   0.71934   0.00000  Uiso   1.00
C59    C     0.58533   0.19709   0.66895   0.00000  Uiso   1.00
C60    C     0.72040   0.98144   0.69906   0.00000  Uiso   1.00
C61    C     0.71144   0.95532   0.75766   0.00000  Uiso   1.00
C62    C     0.68467   0.90148   0.76600   0.00000  Uiso   1.00
C63    C     0.68073   0.88547   0.82301   0.00000  Uiso   1.00
C64    C     0.78462   0.99534   0.69724   0.00000  Uiso   1.00
C65    C     0.81937   0.97515   0.65478   0.00000  Uiso   1.00
C66    C     0.87704   0.99283   0.66092   0.00000  Uiso   1.00
C67    C     0.69298   0.03978   0.70150   0.00000  Uiso   1.00
C68    C     0.65071   0.05696   0.66260   0.00000  Uiso   1.00
C69    C     0.63124   0.11206   0.67231   0.00000  Uiso   1.00
H70    H     0.77819   0.07721   0.82202   0.00000  Uiso   1.00
H71    H     0.74669   0.00424   0.89791   0.00000  Uiso   1.00
H72    H     0.88137   0.07791   0.78671   0.00000  Uiso   1.00
H73    H     0.71273   0.15970   0.79453   0.00000  Uiso   1.00
H74    H     0.70205   0.90722   0.96136   0.00000  Uiso   1.00
H75    H     0.98602   0.06256   0.72688   0.00000  Uiso   1.00
H76    H     0.63042   0.23504   0.74336   0.00000  Uiso   1.00
H77    H     0.70322   0.95298   0.66252   0.00000  Uiso   1.00
H78    H     0.66760   0.87320   0.72966   0.00000  Uiso   1.00
H79    H     0.80228   0.94687   0.61846   0.00000  Uiso   1.00
H80    H     0.63364   0.02866   0.62628   0.00000  Uiso   1.00
H81    H     0.63786   0.80086   0.82480   0.00000  Uiso   1.00
H82    H     0.92184   0.95621   0.59032   0.00000  Uiso   1.00
H83    H     0.56623   0.12868   0.60681   0.00000  Uiso   1.00
O84    O     0.64789   0.80379   0.94013   0.00000  Uiso   1.00
O85    O     0.02045   0.00760   0.63249   0.00000  Uiso   1.00
O86    O     0.55390   0.23389   0.65412   0.00000  Uiso   1.00
N87    N     0.69182   0.89314   0.92001   0.00000  Uiso   1.00
N88    N     0.95732   0.03837   0.70078   0.00000  Uiso   1.00
N89    N     0.62487   0.19963   0.71619   0.00000  Uiso   1.00
N90    N     0.65728   0.83591   0.84653   0.00000  Uiso   1.00
N91    N     0.92278   0.98114   0.62730   0.00000  Uiso   1.00
N92    N     0.59033   0.14240   0.64271   0.00000  Uiso   1.00
C93    C     0.88617   0.63085   0.09168   0.00000  Uiso   1.00
C94    C     0.90506   0.60274   0.03529   0.00000  Uiso   1.00
C95    C     0.96124   0.59738   0.02062   0.00000  Uiso   1.00
C96    C     0.96959   0.57030   0.96701   0.00000  Uiso   1.00
C97    C     0.00594   0.52987   0.88515   0.00000  Uiso   1.00
C98    C     0.84720   0.67843   0.07380   0.00000  Uiso   1.00
C99    C     0.85473   0.73671   0.09151   0.00000  Uiso   1.00
C100   C     0.81436   0.77334   0.07032   0.00000  Uiso   1.00
C101   C     0.76086   0.85041   0.04828   0.00000  Uiso   1.00
C102   C     0.84796   0.58496   0.11858   0.00000  Uiso   1.00
C103   C     0.85611   0.56465   0.17395   0.00000  Uiso   1.00
C104   C     0.81637   0.52259   0.19046   0.00000  Uiso   1.00
C105   C     0.76405   0.45453   0.23795   0.00000  Uiso   1.00
C106   C     0.80110   0.59229   0.02256   0.00000  Uiso   1.00
C107   C     0.85885   0.58180   0.99775   0.00000  Uiso   1.00
C108   C     0.86711   0.55472   0.94414   0.00000  Uiso   1.00
C109   C     0.92329   0.54932   0.92939   0.00000  Uiso   1.00
C110   C     0.80099   0.65749   0.03626   0.00000  Uiso   1.00
C111   C     0.76060   0.69404   0.01504   0.00000  Uiso   1.00
C112   C     0.76807   0.75236   0.03271   0.00000  Uiso   1.00
C113   C     0.80175   0.56401   0.08104   0.00000  Uiso   1.00
C114   C     0.76199   0.52198   0.09747   0.00000  Uiso   1.00
C115   C     0.77008   0.50161   0.15285   0.00000  Uiso   1.00
H116   H     0.92215   0.64716   0.12091   0.00000  Uiso   1.00
H117   H     0.99699   0.61360   0.04968   0.00000  Uiso   1.00
H118   H     0.89049   0.75290   0.12057   0.00000  Uiso   1.00
H119   H     0.89187   0.58087   0.20299   0.00000  Uiso   1.00
H120   H     0.05958   0.56718   0.95415   0.00000  Uiso   1.00
H121   H     0.83501   0.86089   0.10363   0.00000  Uiso   1.00
H122   H     0.83793   0.49813   0.27743   0.00000  Uiso   1.00
H123   H     0.76512   0.57598   0.99333   0.00000  Uiso   1.00
H124   H     0.83135   0.53851   0.91510   0.00000  Uiso   1.00
H125   H     0.72485   0.67782   0.98599   0.00000  Uiso   1.00
H126   H     0.72623   0.50578   0.06840   0.00000  Uiso   1.00
H127   H     0.92514   0.50624   0.84492   0.00000  Uiso   1.00
H128   H     0.70057   0.79995   0.99440   0.00000  Uiso   1.00
H129   H     0.70349   0.43719   0.16820   0.00000  Uiso   1.00
O130   O     0.03876   0.51336   0.85036   0.00000  Uiso   1.00
O131   O     0.74413   0.89870   0.04649   0.00000  Uiso   1.00
O132   O     0.74796   0.42277   0.27451   0.00000  Uiso   1.00
N133   N     0.01885   0.55797   0.93918   0.00000  Uiso   1.00
N134   N     0.80890   0.83258   0.07893   0.00000  Uiso   1.00
N135   N     0.81162   0.49344   0.24142   0.00000  Uiso   1.00
N136   N     0.94651   0.52517   0.88040   0.00000  Uiso   1.00
N137   N     0.73656   0.79978   0.02015   0.00000  Uiso   1.00
N138   N     0.73928   0.46064   0.18265   0.00000  Uiso   1.00
C139   C     0.68335   0.12936   0.29314   0.00000  Uiso   1.00
C140   C     0.62713   0.10159   0.31181   0.00000  Uiso   1.00
C141   C     0.61197   0.09595   0.36871   0.00000  Uiso   1.00
C142   C     0.55862   0.06926   0.37670   0.00000  Uiso   1.00
C143   C     0.47692   0.02926   0.41287   0.00000  Uiso   1.00
C144   C     0.66708   0.17741   0.25328   0.00000  Uiso   1.00
C145   C     0.68552   0.23552   0.26098   0.00000  Uiso   1.00
C146   C     0.66581   0.27266   0.21970   0.00000  Uiso   1.00
C147   C     0.64617   0.35037   0.16499   0.00000  Uiso   1.00
C148   C     0.70937   0.08347   0.25471   0.00000  Uiso   1.00
C149   C     0.76337   0.06260   0.26359   0.00000  Uiso   1.00
C150   C     0.77926   0.02065   0.22350   0.00000  Uiso   1.00
C151   C     0.82527   0.95249   0.17100   0.00000  Uiso   1.00
C152   C     0.61555   0.09199   0.20614   0.00000  Uiso   1.00
C153   C     0.59031   0.08130   0.26455   0.00000  Uiso   1.00
C154   C     0.53696   0.05461   0.27246   0.00000  Uiso   1.00
C155   C     0.52173   0.04893   0.32936   0.00000  Uiso   1.00
C156   C     0.63026   0.15712   0.20603   0.00000  Uiso   1.00
C157   C     0.61051   0.19418   0.16473   0.00000  Uiso   1.00
C158   C     0.62892   0.25233   0.17236   0.00000  Uiso   1.00
C159   C     0.67254   0.06317   0.20745   0.00000  Uiso   1.00
C160   C     0.68836   0.02125   0.16734   0.00000  Uiso   1.00
C161   C     0.74237   0.00032   0.17616   0.00000  Uiso   1.00
H162   H     0.71201   0.14516   0.32992   0.00000  Uiso   1.00
H163   H     0.64048   0.11167   0.40526   0.00000  Uiso   1.00
H164   H     0.71402   0.25122   0.29755   0.00000  Uiso   1.00
H165   H     0.79185   0.07831   0.30016   0.00000  Uiso   1.00
H166   H     0.54492   0.06560   0.46795   0.00000  Uiso   1.00
H167   H     0.70001   0.35984   0.24082   0.00000  Uiso   1.00
H168   H     0.86413   0.99524   0.24632   0.00000  Uiso   1.00
H169   H     0.58688   0.07619   0.16935   0.00000  Uiso   1.00
H170   H     0.50848   0.03891   0.23588   0.00000  Uiso   1.00
H171   H     0.58202   0.17846   0.12816   0.00000  Uiso   1.00
H172   H     0.65985   0.00555   0.13078   0.00000  Uiso   1.00
H173   H     0.43778   0.00655   0.33048   0.00000  Uiso   1.00
H174   H     0.59287   0.30079   0.10334   0.00000  Uiso   1.00
H175   H     0.75699   0.93619   0.10884   0.00000  Uiso   1.00
O176   O     0.44202   0.01281   0.44588   0.00000  Uiso   1.00
O177   O     0.64550   0.39884   0.14788   0.00000  Uiso   1.00
O178   O     0.86082   0.92050   0.15510   0.00000  Uiso   1.00
N179   N     0.53047   0.05681   0.42647   0.00000  Uiso   1.00
N180   N     0.67546   0.33191   0.21411   0.00000  Uiso   1.00
N181   N     0.82890   0.99105   0.21925   0.00000  Uiso   1.00
N182   N     0.47282   0.02503   0.35249   0.00000  Uiso   1.00
N183   N     0.61781   0.30013   0.14014   0.00000  Uiso   1.00
N184   N     0.77125   0.95927   0.14528   0.00000  Uiso   1.00
C185   C     0.25447   0.25195   0.57780   0.00000  Uiso   1.00
C186   C     0.22879   0.26930   0.51943   0.00000  Uiso   1.00
C187   C     0.22321   0.32571   0.50258   0.00000  Uiso   1.00
C188   C     0.19860   0.33248   0.44739   0.00000  Uiso   1.00
C189   C     0.16154   0.36672   0.36237   0.00000  Uiso   1.00
C190   C     0.30285   0.21300   0.56381   0.00000  Uiso   1.00
C191   C     0.35954   0.22208   0.58428   0.00000  Uiso   1.00
C192   C     0.39727   0.18146   0.56645   0.00000  Uiso   1.00
C193   C     0.47518   0.12827   0.55035   0.00000  Uiso   1.00
C194   C     0.20862   0.21303   0.60354   0.00000  Uiso   1.00
C195   C     0.18609   0.22212   0.65742   0.00000  Uiso   1.00
C196   C     0.14449   0.18150   0.67305   0.00000  Uiso   1.00
C197   C     0.07609   0.12836   0.71864   0.00000  Uiso   1.00
C198   C     0.22068   0.16365   0.50976   0.00000  Uiso   1.00
C199   C     0.21044   0.22134   0.48247   0.00000  Uiso   1.00
C200   C     0.18582   0.22803   0.42729   0.00000  Uiso   1.00
C201   C     0.18021   0.28444   0.41037   0.00000  Uiso   1.00
C202   C     0.28450   0.16505   0.52685   0.00000  Uiso   1.00
C203   C     0.32215   0.12440   0.50899   0.00000  Uiso   1.00
C204   C     0.37888   0.13341   0.52942   0.00000  Uiso   1.00
C205   C     0.19026   0.16507   0.56658   0.00000  Uiso   1.00
C206   C     0.14870   0.12444   0.58213   0.00000  Uiso   1.00
C207   C     0.12610   0.13346   0.63602   0.00000  Uiso   1.00
H208   H     0.26876   0.28928   0.60658   0.00000  Uiso   1.00
H209   H     0.23743   0.36281   0.53120   0.00000  Uiso   1.00
H210   H     0.37373   0.25919   0.61288   0.00000  Uiso   1.00
H211   H     0.20030   0.25923   0.68601   0.00000  Uiso   1.00
H212   H     0.19461   0.42318   0.43131   0.00000  Uiso   1.00
H213   H     0.48201   0.20469   0.60357   0.00000  Uiso   1.00
H214   H     0.11630   0.20477   0.75778   0.00000  Uiso   1.00
H215   H     0.20639   0.12632   0.48098   0.00000  Uiso   1.00
H216   H     0.17162   0.19091   0.39870   0.00000  Uiso   1.00
H217   H     0.30793   0.08729   0.48039   0.00000  Uiso   1.00
H218   H     0.13450   0.08733   0.55351   0.00000  Uiso   1.00
H219   H     0.14120   0.28366   0.32377   0.00000  Uiso   1.00
H220   H     0.42861   0.06517   0.49603   0.00000  Uiso   1.00
H221   H     0.06290   0.06525   0.65023   0.00000  Uiso   1.00
O222   O     0.14618   0.39885   0.32568   0.00000  Uiso   1.00
O223   O     0.52324   0.11219   0.55168   0.00000  Uiso   1.00
O224   O     0.04343   0.11230   0.75399   0.00000  Uiso   1.00
N225   N     0.18680   0.38148   0.41730   0.00000  Uiso   1.00
N226   N     0.45550   0.17721   0.57834   0.00000  Uiso   1.00
N227   N     0.11361   0.17728   0.72252   0.00000  Uiso   1.00
N228   N     0.15806   0.30641   0.35943   0.00000  Uiso   1.00
N229   N     0.42677   0.10213   0.52047   0.00000  Uiso   1.00
N230   N     0.08487   0.10220   0.66465   0.00000  Uiso   1.00
C231   C     0.38571   0.55157   0.15858   0.00000  Uiso   1.00
C232   C     0.40565   0.49499   0.13210   0.00000  Uiso   1.00
C233   C     0.46209   0.48036   0.12926   0.00000  Uiso   1.00
C234   C     0.47143   0.42654   0.10333   0.00000  Uiso   1.00
C235   C     0.50930   0.34441   0.06562   0.00000  Uiso   1.00
C236   C     0.34469   0.53426   0.20477   0.00000  Uiso   1.00
C237   C     0.34987   0.55267   0.26304   0.00000  Uiso   1.00
C238   C     0.30789   0.53191   0.29829   0.00000  Uiso   1.00
C239   C     0.25110   0.51080   0.37340   0.00000  Uiso   1.00
C240   C     0.34939   0.57779   0.11078   0.00000  Uiso   1.00
C241   C     0.35853   0.63280   0.09002   0.00000  Uiso   1.00
C242   C     0.32050   0.64870   0.04615   0.00000  Uiso   1.00
C243   C     0.27102   0.69517   0.97532   0.00000  Uiso   1.00
C244   C     0.30193   0.48201   0.11758   0.00000  Uiso   1.00
C245   C     0.36014   0.45720   0.10983   0.00000  Uiso   1.00
C246   C     0.36940   0.40339   0.08390   0.00000  Uiso   1.00
C247   C     0.42584   0.38869   0.08102   0.00000  Uiso   1.00
C248   C     0.29918   0.49648   0.18251   0.00000  Uiso   1.00
C249   C     0.25718   0.47570   0.21768   0.00000  Uiso   1.00
C250   C     0.26230   0.49406   0.27598   0.00000  Uiso   1.00
C251   C     0.30389   0.54000   0.08851   0.00000  Uiso   1.00
C252   C     0.26584   0.55583   0.04466   0.00000  Uiso   1.00
C253   C     0.27491   0.61085   0.02384   0.00000  Uiso   1.00
H254   H     0.42114   0.58099   0.17592   0.00000  Uiso   1.00
H255   H     0.49729   0.50961   0.14650   0.00000  Uiso   1.00
H256   H     0.38509   0.58191   0.28025   0.00000  Uiso   1.00
H257   H     0.39375   0.66203   0.10726   0.00000  Uiso   1.00
H258   H     0.56165   0.41380   0.10408   0.00000  Uiso   1.00
H259   H     0.32506   0.56626   0.38611   0.00000  Uiso   1.00
H260   H     0.34331   0.73521   0.02133   0.00000  Uiso   1.00
H261   H     0.26650   0.45259   0.10025   0.00000  Uiso   1.00
H262   H     0.33417   0.37416   0.06667   0.00000  Uiso   1.00
H263   H     0.22197   0.44646   0.20043   0.00000  Uiso   1.00
H264   H     0.23063   0.52658   0.02744   0.00000  Uiso   1.00
H265   H     0.42926   0.30386   0.03929   0.00000  Uiso   1.00
H266   H     0.19266   0.45633   0.32132   0.00000  Uiso   1.00
H267   H     0.21092   0.62527   0.95654   0.00000  Uiso   1.00
O268   O     0.54276   0.30955   0.05098   0.00000  Uiso   1.00
O269   O     0.23235   0.50958   0.42099   0.00000  Uiso   1.00
O270   O     0.25630   0.73123   0.94240   0.00000  Uiso   1.00
N271   N     0.52121   0.39870   0.09343   0.00000  Uiso   1.00
N272   N     0.30001   0.54123   0.35711   0.00000  Uiso   1.00
N273   N     0.31707   0.69919   0.01608   0.00000  Uiso   1.00
N274   N     0.44997   0.33954   0.05857   0.00000  Uiso   1.00
N275   N     0.22877   0.48207   0.32225   0.00000  Uiso   1.00
N276   N     0.24583   0.64003   0.98122   0.00000  Uiso   1.00
C277   C     0.82999   0.24536   0.34479   0.00000  Uiso   1.00
C278   C     0.88740   0.22868   0.37131   0.00000  Uiso   1.00
C279   C     0.90423   0.17249   0.37722   0.00000  Uiso   1.00
C280   C     0.95846   0.16635   0.40261   0.00000  Uiso   1.00
C281   C     0.04214   0.13309   0.44091   0.00000  Uiso   1.00
C282   C     0.84390   0.28490   0.29566   0.00000  Uiso   1.00
C283   C     0.82415   0.27600   0.23797   0.00000  Uiso   1.00
C284   C     0.84176   0.31719   0.19968   0.00000  Uiso   1.00
C285   C     0.85786   0.37125   0.12054   0.00000  Uiso   1.00
C286   C     0.80415   0.28349   0.39109   0.00000  Uiso   1.00
C287   C     0.75098   0.27341   0.41362   0.00000  Uiso   1.00
C288   C     0.73511   0.31342   0.45566   0.00000  Uiso   1.00
C289   C     0.68951   0.36528   0.52469   0.00000  Uiso   1.00
C290   C     0.89636   0.33436   0.37937   0.00000  Uiso   1.00
C291   C     0.92345   0.27702   0.39009   0.00000  Uiso   1.00
C292   C     0.97767   0.27096   0.41548   0.00000  Uiso   1.00
C293   C     0.99458   0.21478   0.42143   0.00000  Uiso   1.00
C294   C     0.87995   0.33324   0.31444   0.00000  Uiso   1.00
C295   C     0.89759   0.37446   0.27623   0.00000  Uiso   1.00
C296   C     0.87787   0.36562   0.21850   0.00000  Uiso   1.00
C297   C     0.84020   0.33183   0.40987   0.00000  Uiso   1.00
C298   C     0.82442   0.37187   0.45188   0.00000  Uiso   1.00
C299   C     0.77123   0.36185   0.47448   0.00000  Uiso   1.00
H300   H     0.80192   0.20773   0.33016   0.00000  Uiso   1.00
H301   H     0.87632   0.13510   0.36268   0.00000  Uiso   1.00
H302   H     0.79624   0.23859   0.22345   0.00000  Uiso   1.00
H303   H     0.72309   0.23599   0.39907   0.00000  Uiso   1.00
H304   H     0.97472   0.07589   0.40699   0.00000  Uiso   1.00
H305   H     0.80586   0.29412   0.11342   0.00000  Uiso   1.00
H306   H     0.65159   0.28865   0.48376   0.00000  Uiso   1.00
H307   H     0.92443   0.37199   0.39399   0.00000  Uiso   1.00
H308   H     0.00556   0.30837   0.43001   0.00000  Uiso   1.00
H309   H     0.92548   0.41186   0.29078   0.00000  Uiso   1.00
H310   H     0.85233   0.40927   0.46641   0.00000  Uiso   1.00
H311   H     0.07961   0.21653   0.46164   0.00000  Uiso   1.00
H312   H     0.91075   0.43476   0.16807   0.00000  Uiso   1.00
H313   H     0.75649   0.42929   0.53841   0.00000  Uiso   1.00
O314   O     0.07833   0.10139   0.45684   0.00000  Uiso   1.00
O315   O     0.85679   0.38770   0.07170   0.00000  Uiso   1.00
O316   O     0.65439   0.38053   0.55757   0.00000  Uiso   1.00
N317   N     0.98827   0.11772   0.41492   0.00000  Uiso   1.00
N318   N     0.83040   0.32174   0.14045   0.00000  Uiso   1.00
N319   N     0.68617   0.31664   0.48668   0.00000  Uiso   1.00
N320   N     0.04471   0.19340   0.44433   0.00000  Uiso   1.00
N321   N     0.88685   0.39742   0.16986   0.00000  Uiso   1.00
N322   N     0.74261   0.39232   0.51608   0.00000  Uiso   1.00
C323   C     0.23899   0.95125   0.21452   0.00000  Uiso   1.00
C324   C     0.26650   0.00812   0.19540   0.00000  Uiso   1.00
C325   C     0.27040   0.02406   0.13840   0.00000  Uiso   1.00
C326   C     0.29716   0.07791   0.12997   0.00000  Uiso   1.00
C327   C     0.33651   0.16066   0.09315   0.00000  Uiso   1.00
C328   C     0.19333   0.96810   0.25582   0.00000  Uiso   1.00
C329   C     0.13569   0.95039   0.24961   0.00000  Uiso   1.00
C330   C     0.10086   0.97055   0.29205   0.00000  Uiso   1.00
C331   C     0.02660   0.99113   0.34905   0.00000  Uiso   1.00
C332   C     0.28495   0.92366   0.25157   0.00000  Uiso   1.00
C333   C     0.30435   0.86857   0.24179   0.00000  Uiso   1.00
C334   C     0.34666   0.85132   0.28066   0.00000  Uiso   1.00
C335   C     0.41467   0.80291   0.33105   0.00000  Uiso   1.00
C336   C     0.27960   0.01856   0.30094   0.00000  Uiso   1.00
C337   C     0.28856   0.04468   0.24234   0.00000  Uiso   1.00
C338   C     0.31533   0.09852   0.23400   0.00000  Uiso   1.00
C339   C     0.31927   0.11453   0.17699   0.00000  Uiso   1.00
C340   C     0.21538   0.00466   0.30276   0.00000  Uiso   1.00
C341   C     0.18063   0.02485   0.34522   0.00000  Uiso   1.00
C342   C     0.12296   0.00717   0.33908   0.00000  Uiso   1.00
C343   C     0.30702   0.96022   0.29850   0.00000  Uiso   1.00
C344   C     0.34929   0.94304   0.33740   0.00000  Uiso   1.00
C345   C     0.36876   0.88794   0.32769   0.00000  Uiso   1.00
H346   H     0.22181   0.92279   0.17798   0.00000  Uiso   1.00
H347   H     0.25331   0.99576   0.10209   0.00000  Uiso   1.00
H348   H     0.11863   0.92209   0.21329   0.00000  Uiso   1.00
H349   H     0.28727   0.84030   0.20547   0.00000  Uiso   1.00
H350   H     0.29795   0.09278   0.03864   0.00000  Uiso   1.00
H351   H     0.01398   0.93744   0.27312   0.00000  Uiso   1.00
H352   H     0.36958   0.76496   0.25664   0.00000  Uiso   1.00
H353   H     0.29678   0.04702   0.33748   0.00000  Uiso   1.00
H354   H     0.33240   0.12680   0.27034   0.00000  Uiso   1.00
H355   H     0.19772   0.05313   0.38154   0.00000  Uiso   1.00
H356   H     0.36636   0.97134   0.37372   0.00000  Uiso   1.00
H357   H     0.36214   0.19914   0.17520   0.00000  Uiso   1.00
H358   H     0.07816   0.04379   0.40968   0.00000  Uiso   1.00
H359   H     0.43377   0.87132   0.39319   0.00000  Uiso   1.00
O360   O     0.35211   0.19621   0.05987   0.00000  Uiso   1.00
O361   O     0.97955   0.99240   0.36751   0.00000  Uiso   1.00
O362   O     0.44610   0.76611   0.34588   0.00000  Uiso   1.00
N363   N     0.30818   0.10686   0.07999   0.00000  Uiso   1.00
N364   N     0.04268   0.96163   0.29922   0.00000  Uiso   1.00
N365   N     0.37513   0.80037   0.28381   0.00000  Uiso   1.00
N366   N     0.34272   0.16409   0.15347   0.00000  Uiso   1.00
N367   N     0.07722   0.01886   0.37270   0.00000  Uiso   1.00
N368   N     0.40967   0.85760   0.35729   0.00000  Uiso   1.00
C369   C     0.11383   0.36915   0.90832   0.00000  Uiso   1.00
C370   C     0.09494   0.39726   0.96471   0.00000  Uiso   1.00
C371   C     0.03876   0.40262   0.97938   0.00000  Uiso   1.00
C372   C     0.03041   0.42970   0.03299   0.00000  Uiso   1.00
C373   C     0.99406   0.47013   0.11485   0.00000  Uiso   1.00
C374   C     0.15280   0.32157   0.92620   0.00000  Uiso   1.00
C375   C     0.14527   0.26329   0.90849   0.00000  Uiso   1.00
C376   C     0.18564   0.22666   0.92968   0.00000  Uiso   1.00
C377   C     0.23914   0.14959   0.95172   0.00000  Uiso   1.00
C378   C     0.15204   0.41504   0.88142   0.00000  Uiso   1.00
C379   C     0.14389   0.43535   0.82605   0.00000  Uiso   1.00
C380   C     0.18363   0.47741   0.80954   0.00000  Uiso   1.00
C381   C     0.23595   0.54547   0.76205   0.00000  Uiso   1.00
C382   C     0.19890   0.40771   0.97744   0.00000  Uiso   1.00
C383   C     0.14115   0.41820   0.00225   0.00000  Uiso   1.00
C384   C     0.13289   0.44528   0.05586   0.00000  Uiso   1.00
C385   C     0.07671   0.45068   0.07061   0.00000  Uiso   1.00
C386   C     0.19901   0.34251   0.96374   0.00000  Uiso   1.00
C387   C     0.23940   0.30596   0.98496   0.00000  Uiso   1.00
C388   C     0.23193   0.24764   0.96729   0.00000  Uiso   1.00
C389   C     0.19825   0.43599   0.91896   0.00000  Uiso   1.00
C390   C     0.23801   0.47802   0.90253   0.00000  Uiso   1.00
C391   C     0.22992   0.49839   0.84715   0.00000  Uiso   1.00
H392   H     0.07785   0.35284   0.87909   0.00000  Uiso   1.00
H393   H     0.00301   0.38640   0.95032   0.00000  Uiso   1.00
H394   H     0.10951   0.24710   0.87943   0.00000  Uiso   1.00
H395   H     0.10813   0.41913   0.79701   0.00000  Uiso   1.00
H396   H     0.94042   0.43282   0.04585   0.00000  Uiso   1.00
H397   H     0.16499   0.13911   0.89637   0.00000  Uiso   1.00
H398   H     0.16207   0.50187   0.72257   0.00000  Uiso   1.00
H399   H     0.23488   0.42402   0.00667   0.00000  Uiso   1.00
H400   H     0.16865   0.46149   0.08490   0.00000  Uiso   1.00
H401   H     0.27515   0.32218   0.01401   0.00000  Uiso   1.00
H402   H     0.27377   0.49422   0.93160   0.00000  Uiso   1.00
H403   H     0.07486   0.49376   0.15508   0.00000  Uiso   1.00
H404   H     0.29943   0.20005   0.00560   0.00000  Uiso   1.00
H405   H     0.29651   0.56281   0.83180   0.00000  Uiso   1.00
O406   O     0.96124   0.48664   0.14964   0.00000  Uiso   1.00
O407   O     0.25587   0.10130   0.95351   0.00000  Uiso   1.00
O408   O     0.25204   0.57723   0.72549   0.00000  Uiso   1.00
N409   N     0.98115   0.44203   0.06082   0.00000  Uiso   1.00
N410   N     0.19110   0.16742   0.92107   0.00000  Uiso   1.00
N411   N     0.18838   0.50656   0.75858   0.00000  Uiso   1.00
N412   N     0.05349   0.47483   0.11960   0.00000  Uiso   1.00
N413   N     0.26344   0.20022   0.97985   0.00000  Uiso   1.00
N414   N     0.26072   0.53936   0.81735   0.00000  Uiso   1.00
C415   C     0.31665   0.87064   0.70686   0.00000  Uiso   1.00
C416   C     0.37287   0.89841   0.68819   0.00000  Uiso   1.00
C417   C     0.38803   0.90405   0.63129   0.00000  Uiso   1.00
C418   C     0.44138   0.93074   0.62330   0.00000  Uiso   1.00
C419   C     0.52308   0.97074   0.58713   0.00000  Uiso   1.00
C420   C     0.33292   0.82259   0.74672   0.00000  Uiso   1.00
C421   C     0.31448   0.76448   0.73902   0.00000  Uiso   1.00
C422   C     0.33419   0.72734   0.78030   0.00000  Uiso   1.00
C423   C     0.35383   0.64963   0.83501   0.00000  Uiso   1.00
C424   C     0.29063   0.91653   0.74529   0.00000  Uiso   1.00
C425   C     0.23663   0.93740   0.73641   0.00000  Uiso   1.00
C426   C     0.22074   0.97935   0.77650   0.00000  Uiso   1.00
C427   C     0.17473   0.04751   0.82900   0.00000  Uiso   1.00
C428   C     0.38445   0.90801   0.79386   0.00000  Uiso   1.00
C429   C     0.40969   0.91870   0.73545   0.00000  Uiso   1.00
C430   C     0.46304   0.94539   0.72754   0.00000  Uiso   1.00
C431   C     0.47827   0.95107   0.67064   0.00000  Uiso   1.00
C432   C     0.36974   0.84288   0.79397   0.00000  Uiso   1.00
C433   C     0.38949   0.80582   0.83527   0.00000  Uiso   1.00
C434   C     0.37108   0.74767   0.82764   0.00000  Uiso   1.00
C435   C     0.32746   0.93683   0.79255   0.00000  Uiso   1.00
C436   C     0.31164   0.97875   0.83266   0.00000  Uiso   1.00
C437   C     0.25763   0.99968   0.82384   0.00000  Uiso   1.00
H438   H     0.28799   0.85484   0.67008   0.00000  Uiso   1.00
H439   H     0.35952   0.88833   0.59474   0.00000  Uiso   1.00
H440   H     0.28598   0.74878   0.70245   0.00000  Uiso   1.00
H441   H     0.20815   0.92169   0.69984   0.00000  Uiso   1.00
H442   H     0.45508   0.93440   0.53205   0.00000  Uiso   1.00
H443   H     0.29999   0.64016   0.75918   0.00000  Uiso   1.00
H444   H     0.13587   0.00476   0.75368   0.00000  Uiso   1.00
H445   H     0.41312   0.92381   0.83065   0.00000  Uiso   1.00
H446   H     0.49152   0.96109   0.76412   0.00000  Uiso   1.00
H447   H     0.41798   0.82154   0.87184   0.00000  Uiso   1.00
H448   H     0.34015   0.99445   0.86922   0.00000  Uiso   1.00
H449   H     0.56222   0.99345   0.66952   0.00000  Uiso   1.00
H450   H     0.40713   0.69921   0.89666   0.00000  Uiso   1.00
H451   H     0.24301   0.06381   0.89116   0.00000  Uiso   1.00
O452   O     0.55798   0.98719   0.55412   0.00000  Uiso   1.00
O453   O     0.35450   0.60116   0.85212   0.00000  Uiso   1.00
O454   O     0.13918   0.07950   0.84490   0.00000  Uiso   1.00
N455   N     0.46953   0.94319   0.57353   0.00000  Uiso   1.00
N456   N     0.32454   0.66809   0.78589   0.00000  Uiso   1.00
N457   N     0.17110   0.00895   0.78075   0.00000  Uiso   1.00
N458   N     0.52718   0.97497   0.64751   0.00000  Uiso   1.00
N459   N     0.38219   0.69987   0.85986   0.00000  Uiso   1.00
N460   N     0.22875   0.04073   0.85472   0.00000  Uiso   1.00
C461   C     0.74553   0.74805   0.42220   0.00000  Uiso   1.00
C462   C     0.77121   0.73070   0.48057   0.00000  Uiso   1.00
C463   C     0.77679   0.67429   0.49742   0.00000  Uiso   1.00
C464   C     0.80140   0.66752   0.55261   0.00000  Uiso   1.00
C465   C     0.83846   0.63328   0.63763   0.00000  Uiso   1.00
C466   C     0.69715   0.78700   0.43619   0.00000  Uiso   1.00
C467   C     0.64046   0.77792   0.41572   0.00000  Uiso   1.00
C468   C     0.60273   0.81854   0.43355   0.00000  Uiso   1.00
C469   C     0.52482   0.87173   0.44965   0.00000  Uiso   1.00
C470   C     0.79138   0.78697   0.39646   0.00000  Uiso   1.00
C471   C     0.81391   0.77788   0.34258   0.00000  Uiso   1.00
C472   C     0.85551   0.81850   0.32695   0.00000  Uiso   1.00
C473   C     0.92391   0.87164   0.28136   0.00000  Uiso   1.00
C474   C     0.77932   0.83635   0.49024   0.00000  Uiso   1.00
C475   C     0.78956   0.77866   0.51753   0.00000  Uiso   1.00
C476   C     0.81418   0.77197   0.57271   0.00000  Uiso   1.00
C477   C     0.81979   0.71556   0.58963   0.00000  Uiso   1.00
C478   C     0.71550   0.83495   0.47315   0.00000  Uiso   1.00
C479   C     0.67785   0.87560   0.49101   0.00000  Uiso   1.00
C480   C     0.62112   0.86659   0.47058   0.00000  Uiso   1.00
C481   C     0.80974   0.83493   0.43342   0.00000  Uiso   1.00
C482   C     0.85130   0.87556   0.41787   0.00000  Uiso   1.00
C483   C     0.87390   0.86654   0.36398   0.00000  Uiso   1.00
H484   H     0.73124   0.71072   0.39342   0.00000  Uiso   1.00
H485   H     0.76257   0.63719   0.46880   0.00000  Uiso   1.00
H486   H     0.62627   0.74081   0.38712   0.00000  Uiso   1.00
H487   H     0.79970   0.74077   0.31399   0.00000  Uiso   1.00
H488   H     0.80539   0.57682   0.56869   0.00000  Uiso   1.00
H489   H     0.51799   0.79531   0.39643   0.00000  Uiso   1.00
H490   H     0.88370   0.79523   0.24222   0.00000  Uiso   1.00
H491   H     0.79361   0.87368   0.51902   0.00000  Uiso   1.00
H492   H     0.82838   0.80909   0.60130   0.00000  Uiso   1.00
H493   H     0.69207   0.91271   0.51961   0.00000  Uiso   1.00
H494   H     0.86550   0.91267   0.44649   0.00000  Uiso   1.00
H495   H     0.85880   0.71634   0.67623   0.00000  Uiso   1.00
H496   H     0.57139   0.93483   0.50397   0.00000  Uiso   1.00
H497   H     0.93710   0.93475   0.34977   0.00000  Uiso   1.00
O498   O     0.85382   0.60115   0.67432   0.00000  Uiso   1.00
O499   O     0.47676   0.88781   0.44832   0.00000  Uiso   1.00
O500   O     0.95657   0.88770   0.24601   0.00000  Uiso   1.00
N501   N     0.81320   0.61852   0.58270   0.00000  Uiso   1.00
N502   N     0.54450   0.82279   0.42166   0.00000  Uiso   1.00
N503   N     0.88639   0.82272   0.27748   0.00000  Uiso   1.00
N504   N     0.84194   0.69359   0.64057   0.00000  Uiso   1.00
N505   N     0.57323   0.89787   0.47953   0.00000  Uiso   1.00
N506   N     0.91513   0.89780   0.33535   0.00000  Uiso   1.00
C507   C     0.61429   0.44843   0.84142   0.00000  Uiso   1.00
C508   C     0.59435   0.50501   0.86790   0.00000  Uiso   1.00
C509   C     0.53791   0.51964   0.87074   0.00000  Uiso   1.00
C510   C     0.52857   0.57346   0.89667   0.00000  Uiso   1.00
C511   C     0.49070   0.65559   0.93438   0.00000  Uiso   1.00
C512   C     0.65531   0.46574   0.79523   0.00000  Uiso   1.00
C513   C     0.65013   0.44733   0.73696   0.00000  Uiso   1.00
C514   C     0.69211   0.46809   0.70171   0.00000  Uiso   1.00
C515   C     0.74890   0.48920   0.62660   0.00000  Uiso   1.00
C516   C     0.65061   0.42221   0.88922   0.00000  Uiso   1.00
C517   C     0.64147   0.36720   0.90998   0.00000  Uiso   1.00
C518   C     0.67950   0.35130   0.95385   0.00000  Uiso   1.00
C519   C     0.72898   0.30483   0.02468   0.00000  Uiso   1.00
C520   C     0.69807   0.51799   0.88242   0.00000  Uiso   1.00
C521   C     0.63986   0.54280   0.89017   0.00000  Uiso   1.00
C522   C     0.63060   0.59661   0.91610   0.00000  Uiso   1.00
C523   C     0.57416   0.61131   0.91898   0.00000  Uiso   1.00
C524   C     0.70082   0.50352   0.81749   0.00000  Uiso   1.00
C525   C     0.74282   0.52430   0.78232   0.00000  Uiso   1.00
C526   C     0.73770   0.50594   0.72402   0.00000  Uiso   1.00
C527   C     0.69611   0.46000   0.91149   0.00000  Uiso   1.00
C528   C     0.73416   0.44417   0.95534   0.00000  Uiso   1.00
C529   C     0.72509   0.38915   0.97616   0.00000  Uiso   1.00
H530   H     0.57886   0.41901   0.82408   0.00000  Uiso   1.00
H531   H     0.50271   0.49039   0.85350   0.00000  Uiso   1.00
H532   H     0.61491   0.41809   0.71975   0.00000  Uiso   1.00
H533   H     0.60625   0.33797   0.89274   0.00000  Uiso   1.00
H534   H     0.43835   0.58620   0.89592   0.00000  Uiso   1.00
H535   H     0.67494   0.43374   0.61389   0.00000  Uiso   1.00
H536   H     0.65669   0.26479   0.97867   0.00000  Uiso   1.00
H537   H     0.73350   0.54741   0.89975   0.00000  Uiso   1.00
H538   H     0.66583   0.62584   0.93333   0.00000  Uiso   1.00
H539   H     0.77803   0.55354   0.79957   0.00000  Uiso   1.00
H540   H     0.76937   0.47342   0.97256   0.00000  Uiso   1.00
H541   H     0.57074   0.69614   0.96071   0.00000  Uiso   1.00
H542   H     0.80734   0.54367   0.67868   0.00000  Uiso   1.00
H543   H     0.78908   0.37473   0.04346   0.00000  Uiso   1.00
O544   O     0.45724   0.69045   0.94902   0.00000  Uiso   1.00
O545   O     0.76765   0.49042   0.57901   0.00000  Uiso   1.00
O546   O     0.74370   0.26877   0.05760   0.00000  Uiso   1.00
N547   N     0.47879   0.60130   0.90657   0.00000  Uiso   1.00
N548   N     0.69999   0.45877   0.64289   0.00000  Uiso   1.00
N549   N     0.68293   0.30081   0.98392   0.00000  Uiso   1.00
N550   N     0.55003   0.66046   0.94143   0.00000  Uiso   1.00
N551   N     0.77123   0.51793   0.67775   0.00000  Uiso   1.00
N552   N     0.75417   0.35997   0.01878   0.00000  Uiso   1.00
