data_job_05807
_audit_creation_date              2018-12-19
_audit_creation_method            'Materials Studio'
_symmetry_space_group_name_H-M    'P1'
_symmetry_Int_Tables_number       1
_symmetry_cell_setting            triclinic
loop_
_symmetry_equiv_pos_as_xyz
  x,y,z
_cell_length_a                    25.5266
_cell_length_b                    12.4987
_cell_length_c                    15.7720
_cell_angle_alpha                 90.0000
_cell_angle_beta                  90.0000
_cell_angle_gamma                 90.0000
loop_
_atom_site_label
_atom_site_type_symbol
_atom_site_fract_x
_atom_site_fract_y
_atom_site_fract_z
_atom_site_U_iso_or_equiv
_atom_site_adp_type
_atom_site_occupancy
C1     C     0.35110   0.92370   0.70764   0.00000  Uiso   1.00
C2     C     0.38816   0.00288   0.66505   0.00000  Uiso   1.00
C3     C     0.40772   0.09576   0.70140   0.00000  Uiso   1.00
C4     C     0.44108   0.15750   0.65200   0.00000  Uiso   1.00
C5     C     0.49657   0.28506   0.59843   0.00000  Uiso   1.00
C6     C     0.30353   0.91491   0.64959   0.00000  Uiso   1.00
C7     C     0.25193   0.93381   0.67295   0.00000  Uiso   1.00
C8     C     0.21405   0.92147   0.61054   0.00000  Uiso   1.00
C9     C     0.13815   0.91237   0.53299   0.00000  Uiso   1.00
C10    C     0.37838   0.81527   0.70387   0.00000  Uiso   1.00
C11    C     0.38972   0.75038   0.77288   0.00000  Uiso   1.00
C12    C     0.41485   0.65414   0.75617   0.00000  Uiso   1.00
C13    C     0.45518   0.49034   0.76290   0.00000  Uiso   1.00
C14    C     0.37557   0.86817   0.55527   0.00000  Uiso   1.00
C15    C     0.40144   0.97272   0.58228   0.00000  Uiso   1.00
C16    C     0.43478   0.03433   0.53281   0.00000  Uiso   1.00
C17    C     0.45439   0.12728   0.56909   0.00000  Uiso   1.00
C18    C     0.31681   0.88474   0.56682   0.00000  Uiso   1.00
C19    C     0.27900   0.87237   0.50436   0.00000  Uiso   1.00
C20    C     0.22736   0.89125   0.52763   0.00000  Uiso   1.00
C21    C     0.39167   0.78510   0.62111   0.00000  Uiso   1.00
C22    C     0.41679   0.68894   0.60429   0.00000  Uiso   1.00
C23    C     0.42816   0.62392   0.67325   0.00000  Uiso   1.00
H24    H     0.34076   0.94718   0.77208   0.00000  Uiso   1.00
H25    H     0.39742   0.11909   0.76545   0.00000  Uiso   1.00
H26    H     0.24166   0.95714   0.73701   0.00000  Uiso   1.00
H27    H     0.37943   0.77375   0.83692   0.00000  Uiso   1.00
H28    H     0.46609   0.29639   0.72159   0.00000  Uiso   1.00
H29    H     0.13767   0.95488   0.66163   0.00000  Uiso   1.00
H30    H     0.42817   0.56815   0.87230   0.00000  Uiso   1.00
H31    H     0.38591   0.84468   0.49083   0.00000  Uiso   1.00
H32    H     0.44506   0.01096   0.46876   0.00000  Uiso   1.00
H33    H     0.28930   0.84902   0.44032   0.00000  Uiso   1.00
H34    H     0.42706   0.66563   0.54023   0.00000  Uiso   1.00
H35    H     0.50475   0.20864   0.48079   0.00000  Uiso   1.00
H36    H     0.17632   0.86712   0.42083   0.00000  Uiso   1.00
H37    H     0.46683   0.48040   0.63150   0.00000  Uiso   1.00
O38    O     0.52350   0.36376   0.59174   0.00000  Uiso   1.00
O39    O     0.09262   0.91570   0.51308   0.00000  Uiso   1.00
O40    O     0.47376   0.40833   0.78948   0.00000  Uiso   1.00
N41    N     0.46708   0.25290   0.66795   0.00000  Uiso   1.00
N42    N     0.16002   0.93363   0.61189   0.00000  Uiso   1.00
N43    N     0.43161   0.57206   0.80885   0.00000  Uiso   1.00
N44    N     0.48789   0.20569   0.53838   0.00000  Uiso   1.00
N45    N     0.18083   0.88641   0.48231   0.00000  Uiso   1.00
N46    N     0.45241   0.52484   0.67927   0.00000  Uiso   1.00
C47    C     0.14890   0.07630   0.20764   0.00000  Uiso   1.00
C48    C     0.11184   0.99712   0.16505   0.00000  Uiso   1.00
C49    C     0.09228   0.90424   0.20140   0.00000  Uiso   1.00
C50    C     0.05892   0.84250   0.15200   0.00000  Uiso   1.00
C51    C     0.00343   0.71494   0.09843   0.00000  Uiso   1.00
C52    C     0.19647   0.08509   0.14959   0.00000  Uiso   1.00
C53    C     0.24807   0.06619   0.17295   0.00000  Uiso   1.00
C54    C     0.28595   0.07853   0.11054   0.00000  Uiso   1.00
C55    C     0.36185   0.08763   0.03299   0.00000  Uiso   1.00
C56    C     0.12162   0.18473   0.20387   0.00000  Uiso   1.00
C57    C     0.11028   0.24962   0.27288   0.00000  Uiso   1.00
C58    C     0.08515   0.34586   0.25617   0.00000  Uiso   1.00
C59    C     0.04482   0.50966   0.26290   0.00000  Uiso   1.00
C60    C     0.12443   0.13183   0.05527   0.00000  Uiso   1.00
C61    C     0.09856   0.02728   0.08228   0.00000  Uiso   1.00
C62    C     0.06522   0.96567   0.03281   0.00000  Uiso   1.00
C63    C     0.04561   0.87272   0.06909   0.00000  Uiso   1.00
C64    C     0.18319   0.11526   0.06682   0.00000  Uiso   1.00
C65    C     0.22100   0.12763   0.00436   0.00000  Uiso   1.00
C66    C     0.27264   0.10875   0.02763   0.00000  Uiso   1.00
C67    C     0.10833   0.21490   0.12111   0.00000  Uiso   1.00
C68    C     0.08321   0.31106   0.10429   0.00000  Uiso   1.00
C69    C     0.07184   0.37608   0.17325   0.00000  Uiso   1.00
H70    H     0.15924   0.05282   0.27208   0.00000  Uiso   1.00
H71    H     0.10258   0.88091   0.26545   0.00000  Uiso   1.00
H72    H     0.25834   0.04286   0.23701   0.00000  Uiso   1.00
H73    H     0.12057   0.22625   0.33692   0.00000  Uiso   1.00
H74    H     0.03391   0.70361   0.22159   0.00000  Uiso   1.00
H75    H     0.36233   0.04512   0.16163   0.00000  Uiso   1.00
H76    H     0.07183   0.43185   0.37230   0.00000  Uiso   1.00
H77    H     0.11409   0.15532   0.99083   0.00000  Uiso   1.00
H78    H     0.05494   0.98904   0.96876   0.00000  Uiso   1.00
H79    H     0.21070   0.15098   0.94032   0.00000  Uiso   1.00
H80    H     0.07294   0.33437   0.04023   0.00000  Uiso   1.00
H81    H     0.99525   0.79136   0.98079   0.00000  Uiso   1.00
H82    H     0.32368   0.13288   0.92083   0.00000  Uiso   1.00
H83    H     0.03317   0.51960   0.13150   0.00000  Uiso   1.00
O84    O     0.97650   0.63624   0.09174   0.00000  Uiso   1.00
O85    O     0.40738   0.08430   0.01308   0.00000  Uiso   1.00
O86    O     0.02624   0.59167   0.28948   0.00000  Uiso   1.00
N87    N     0.03292   0.74710   0.16795   0.00000  Uiso   1.00
N88    N     0.33998   0.06637   0.11189   0.00000  Uiso   1.00
N89    N     0.06839   0.42794   0.30885   0.00000  Uiso   1.00
N90    N     0.01211   0.79431   0.03838   0.00000  Uiso   1.00
N91    N     0.31917   0.11359   0.98231   0.00000  Uiso   1.00
N92    N     0.04759   0.47516   0.17927   0.00000  Uiso   1.00
C93    C     0.64890   0.42370   0.79236   0.00000  Uiso   1.00
C94    C     0.61184   0.50288   0.83495   0.00000  Uiso   1.00
C95    C     0.59228   0.59576   0.79860   0.00000  Uiso   1.00
C96    C     0.55892   0.65750   0.84800   0.00000  Uiso   1.00
C97    C     0.50343   0.78506   0.90157   0.00000  Uiso   1.00
C98    C     0.69647   0.41491   0.85041   0.00000  Uiso   1.00
C99    C     0.74807   0.43381   0.82705   0.00000  Uiso   1.00
C100   C     0.78595   0.42147   0.88946   0.00000  Uiso   1.00
C101   C     0.86185   0.41237   0.96701   0.00000  Uiso   1.00
C102   C     0.62162   0.31527   0.79613   0.00000  Uiso   1.00
C103   C     0.61028   0.25038   0.72712   0.00000  Uiso   1.00
C104   C     0.58515   0.15414   0.74383   0.00000  Uiso   1.00
C105   C     0.54482   0.99034   0.73710   0.00000  Uiso   1.00
C106   C     0.62443   0.36817   0.94473   0.00000  Uiso   1.00
C107   C     0.59856   0.47272   0.91772   0.00000  Uiso   1.00
C108   C     0.56522   0.53433   0.96719   0.00000  Uiso   1.00
C109   C     0.54561   0.62728   0.93091   0.00000  Uiso   1.00
C110   C     0.68319   0.38474   0.93318   0.00000  Uiso   1.00
C111   C     0.72100   0.37237   0.99564   0.00000  Uiso   1.00
C112   C     0.77264   0.39125   0.97237   0.00000  Uiso   1.00
C113   C     0.60833   0.28510   0.87889   0.00000  Uiso   1.00
C114   C     0.58321   0.18894   0.89571   0.00000  Uiso   1.00
C115   C     0.57184   0.12392   0.82675   0.00000  Uiso   1.00
H116   H     0.65924   0.44718   0.72792   0.00000  Uiso   1.00
H117   H     0.60258   0.61909   0.73455   0.00000  Uiso   1.00
H118   H     0.75834   0.45714   0.76299   0.00000  Uiso   1.00
H119   H     0.62057   0.27375   0.66308   0.00000  Uiso   1.00
H120   H     0.53391   0.79639   0.77841   0.00000  Uiso   1.00
H121   H     0.86233   0.45488   0.83837   0.00000  Uiso   1.00
H122   H     0.57183   0.06815   0.62770   0.00000  Uiso   1.00
H123   H     0.61409   0.34468   0.00917   0.00000  Uiso   1.00
H124   H     0.55494   0.51096   0.03124   0.00000  Uiso   1.00
H125   H     0.71070   0.34902   0.05968   0.00000  Uiso   1.00
H126   H     0.57294   0.16563   0.95977   0.00000  Uiso   1.00
H127   H     0.49525   0.70864   0.01921   0.00000  Uiso   1.00
H128   H     0.82368   0.36712   0.07917   0.00000  Uiso   1.00
H129   H     0.53317   0.98040   0.86850   0.00000  Uiso   1.00
O130   O     0.47650   0.86376   0.90826   0.00000  Uiso   1.00
O131   O     0.90738   0.41570   0.98692   0.00000  Uiso   1.00
O132   O     0.52624   0.90833   0.71052   0.00000  Uiso   1.00
N133   N     0.53292   0.75290   0.83205   0.00000  Uiso   1.00
N134   N     0.83998   0.43363   0.88811   0.00000  Uiso   1.00
N135   N     0.56839   0.07206   0.69115   0.00000  Uiso   1.00
N136   N     0.51211   0.70569   0.96162   0.00000  Uiso   1.00
N137   N     0.81917   0.38641   0.01769   0.00000  Uiso   1.00
N138   N     0.54759   0.02484   0.82073   0.00000  Uiso   1.00
C139   C     0.85110   0.57630   0.29236   0.00000  Uiso   1.00
C140   C     0.88816   0.49712   0.33495   0.00000  Uiso   1.00
C141   C     0.90772   0.40424   0.29860   0.00000  Uiso   1.00
C142   C     0.94108   0.34250   0.34800   0.00000  Uiso   1.00
C143   C     0.99657   0.21494   0.40157   0.00000  Uiso   1.00
C144   C     0.80353   0.58509   0.35041   0.00000  Uiso   1.00
C145   C     0.75193   0.56619   0.32705   0.00000  Uiso   1.00
C146   C     0.71405   0.57853   0.38946   0.00000  Uiso   1.00
C147   C     0.63815   0.58763   0.46701   0.00000  Uiso   1.00
C148   C     0.87838   0.68473   0.29613   0.00000  Uiso   1.00
C149   C     0.88972   0.74962   0.22712   0.00000  Uiso   1.00
C150   C     0.91485   0.84586   0.24383   0.00000  Uiso   1.00
C151   C     0.95518   0.00966   0.23710   0.00000  Uiso   1.00
C152   C     0.87557   0.63183   0.44473   0.00000  Uiso   1.00
C153   C     0.90144   0.52728   0.41772   0.00000  Uiso   1.00
C154   C     0.93478   0.46567   0.46719   0.00000  Uiso   1.00
C155   C     0.95439   0.37272   0.43091   0.00000  Uiso   1.00
C156   C     0.81681   0.61526   0.43318   0.00000  Uiso   1.00
C157   C     0.77900   0.62763   0.49564   0.00000  Uiso   1.00
C158   C     0.72736   0.60875   0.47237   0.00000  Uiso   1.00
C159   C     0.89167   0.71490   0.37889   0.00000  Uiso   1.00
C160   C     0.91679   0.81106   0.39571   0.00000  Uiso   1.00
C161   C     0.92816   0.87608   0.32675   0.00000  Uiso   1.00
H162   H     0.84076   0.55282   0.22792   0.00000  Uiso   1.00
H163   H     0.89742   0.38091   0.23455   0.00000  Uiso   1.00
H164   H     0.74166   0.54286   0.26299   0.00000  Uiso   1.00
H165   H     0.87943   0.72625   0.16308   0.00000  Uiso   1.00
H166   H     0.96609   0.20361   0.27841   0.00000  Uiso   1.00
H167   H     0.63767   0.54512   0.33837   0.00000  Uiso   1.00
H168   H     0.92817   0.93185   0.12770   0.00000  Uiso   1.00
H169   H     0.88591   0.65532   0.50917   0.00000  Uiso   1.00
H170   H     0.94506   0.48904   0.53124   0.00000  Uiso   1.00
H171   H     0.78930   0.65098   0.55968   0.00000  Uiso   1.00
H172   H     0.92706   0.83437   0.45977   0.00000  Uiso   1.00
H173   H     0.00475   0.29136   0.51921   0.00000  Uiso   1.00
H174   H     0.67632   0.63288   0.57917   0.00000  Uiso   1.00
H175   H     0.96683   0.01960   0.36850   0.00000  Uiso   1.00
O176   O     0.02350   0.13624   0.40826   0.00000  Uiso   1.00
O177   O     0.59262   0.58430   0.48692   0.00000  Uiso   1.00
O178   O     0.97376   0.09167   0.21052   0.00000  Uiso   1.00
N179   N     0.96708   0.24710   0.33205   0.00000  Uiso   1.00
N180   N     0.66002   0.56637   0.38811   0.00000  Uiso   1.00
N181   N     0.93161   0.92794   0.19115   0.00000  Uiso   1.00
N182   N     0.98789   0.29431   0.46162   0.00000  Uiso   1.00
N183   N     0.68083   0.61359   0.51769   0.00000  Uiso   1.00
N184   N     0.95241   0.97516   0.32073   0.00000  Uiso   1.00
C185   C     0.64890   0.07630   0.29236   0.00000  Uiso   1.00
C186   C     0.61184   0.99712   0.33495   0.00000  Uiso   1.00
C187   C     0.59228   0.90424   0.29860   0.00000  Uiso   1.00
C188   C     0.55892   0.84250   0.34800   0.00000  Uiso   1.00
C189   C     0.50343   0.71494   0.40157   0.00000  Uiso   1.00
C190   C     0.69647   0.08509   0.35041   0.00000  Uiso   1.00
C191   C     0.74807   0.06619   0.32705   0.00000  Uiso   1.00
C192   C     0.78595   0.07853   0.38946   0.00000  Uiso   1.00
C193   C     0.86185   0.08763   0.46701   0.00000  Uiso   1.00
C194   C     0.62162   0.18473   0.29613   0.00000  Uiso   1.00
C195   C     0.61028   0.24962   0.22712   0.00000  Uiso   1.00
C196   C     0.58515   0.34586   0.24383   0.00000  Uiso   1.00
C197   C     0.54482   0.50966   0.23710   0.00000  Uiso   1.00
C198   C     0.62443   0.13183   0.44473   0.00000  Uiso   1.00
C199   C     0.59856   0.02728   0.41772   0.00000  Uiso   1.00
C200   C     0.56522   0.96567   0.46719   0.00000  Uiso   1.00
C201   C     0.54561   0.87272   0.43091   0.00000  Uiso   1.00
C202   C     0.68319   0.11526   0.43318   0.00000  Uiso   1.00
C203   C     0.72100   0.12763   0.49564   0.00000  Uiso   1.00
C204   C     0.77264   0.10875   0.47237   0.00000  Uiso   1.00
C205   C     0.60833   0.21490   0.37889   0.00000  Uiso   1.00
C206   C     0.58321   0.31106   0.39571   0.00000  Uiso   1.00
C207   C     0.57184   0.37608   0.32675   0.00000  Uiso   1.00
H208   H     0.65924   0.05282   0.22792   0.00000  Uiso   1.00
H209   H     0.60258   0.88091   0.23455   0.00000  Uiso   1.00
H210   H     0.75834   0.04286   0.26299   0.00000  Uiso   1.00
H211   H     0.62057   0.22625   0.16308   0.00000  Uiso   1.00
H212   H     0.53391   0.70361   0.27841   0.00000  Uiso   1.00
H213   H     0.86233   0.04512   0.33837   0.00000  Uiso   1.00
H214   H     0.57183   0.43185   0.12770   0.00000  Uiso   1.00
H215   H     0.61409   0.15532   0.50917   0.00000  Uiso   1.00
H216   H     0.55494   0.98904   0.53124   0.00000  Uiso   1.00
H217   H     0.71070   0.15098   0.55968   0.00000  Uiso   1.00
H218   H     0.57294   0.33437   0.45977   0.00000  Uiso   1.00
H219   H     0.49525   0.79136   0.51921   0.00000  Uiso   1.00
H220   H     0.82368   0.13288   0.57917   0.00000  Uiso   1.00
H221   H     0.53317   0.51960   0.36850   0.00000  Uiso   1.00
O222   O     0.47650   0.63624   0.40826   0.00000  Uiso   1.00
O223   O     0.90738   0.08430   0.48692   0.00000  Uiso   1.00
O224   O     0.52624   0.59167   0.21052   0.00000  Uiso   1.00
N225   N     0.53292   0.74710   0.33205   0.00000  Uiso   1.00
N226   N     0.83998   0.06637   0.38811   0.00000  Uiso   1.00
N227   N     0.56839   0.42794   0.19115   0.00000  Uiso   1.00
N228   N     0.51211   0.79431   0.46162   0.00000  Uiso   1.00
N229   N     0.81917   0.11359   0.51769   0.00000  Uiso   1.00
N230   N     0.54759   0.47516   0.32073   0.00000  Uiso   1.00
C231   C     0.85110   0.92370   0.79236   0.00000  Uiso   1.00
C232   C     0.88816   0.00288   0.83495   0.00000  Uiso   1.00
C233   C     0.90772   0.09576   0.79860   0.00000  Uiso   1.00
C234   C     0.94108   0.15750   0.84800   0.00000  Uiso   1.00
C235   C     0.99657   0.28506   0.90157   0.00000  Uiso   1.00
C236   C     0.80353   0.91491   0.85041   0.00000  Uiso   1.00
C237   C     0.75193   0.93381   0.82705   0.00000  Uiso   1.00
C238   C     0.71405   0.92147   0.88946   0.00000  Uiso   1.00
C239   C     0.63815   0.91237   0.96701   0.00000  Uiso   1.00
C240   C     0.87838   0.81527   0.79613   0.00000  Uiso   1.00
C241   C     0.88972   0.75038   0.72712   0.00000  Uiso   1.00
C242   C     0.91485   0.65414   0.74383   0.00000  Uiso   1.00
C243   C     0.95518   0.49034   0.73710   0.00000  Uiso   1.00
C244   C     0.87557   0.86817   0.94473   0.00000  Uiso   1.00
C245   C     0.90144   0.97272   0.91772   0.00000  Uiso   1.00
C246   C     0.93478   0.03433   0.96719   0.00000  Uiso   1.00
C247   C     0.95439   0.12728   0.93091   0.00000  Uiso   1.00
C248   C     0.81681   0.88474   0.93318   0.00000  Uiso   1.00
C249   C     0.77900   0.87237   0.99564   0.00000  Uiso   1.00
C250   C     0.72736   0.89125   0.97237   0.00000  Uiso   1.00
C251   C     0.89167   0.78510   0.87889   0.00000  Uiso   1.00
C252   C     0.91679   0.68894   0.89571   0.00000  Uiso   1.00
C253   C     0.92816   0.62392   0.82675   0.00000  Uiso   1.00
H254   H     0.84076   0.94718   0.72792   0.00000  Uiso   1.00
H255   H     0.89742   0.11909   0.73455   0.00000  Uiso   1.00
H256   H     0.74166   0.95714   0.76299   0.00000  Uiso   1.00
H257   H     0.87943   0.77375   0.66308   0.00000  Uiso   1.00
H258   H     0.96609   0.29639   0.77841   0.00000  Uiso   1.00
H259   H     0.63767   0.95488   0.83837   0.00000  Uiso   1.00
H260   H     0.92817   0.56815   0.62770   0.00000  Uiso   1.00
H261   H     0.88591   0.84468   0.00917   0.00000  Uiso   1.00
H262   H     0.94506   0.01096   0.03124   0.00000  Uiso   1.00
H263   H     0.78930   0.84902   0.05968   0.00000  Uiso   1.00
H264   H     0.92706   0.66563   0.95977   0.00000  Uiso   1.00
H265   H     0.00475   0.20864   0.01921   0.00000  Uiso   1.00
H266   H     0.67632   0.86712   0.07917   0.00000  Uiso   1.00
H267   H     0.96683   0.48040   0.86850   0.00000  Uiso   1.00
O268   O     0.02350   0.36376   0.90826   0.00000  Uiso   1.00
O269   O     0.59262   0.91570   0.98692   0.00000  Uiso   1.00
O270   O     0.97376   0.40833   0.71052   0.00000  Uiso   1.00
N271   N     0.96708   0.25290   0.83205   0.00000  Uiso   1.00
N272   N     0.66002   0.93363   0.88811   0.00000  Uiso   1.00
N273   N     0.93161   0.57206   0.69115   0.00000  Uiso   1.00
N274   N     0.98789   0.20569   0.96162   0.00000  Uiso   1.00
N275   N     0.68083   0.88641   0.01769   0.00000  Uiso   1.00
N276   N     0.95241   0.52484   0.82073   0.00000  Uiso   1.00
C277   C     0.35110   0.57630   0.20764   0.00000  Uiso   1.00
C278   C     0.38816   0.49712   0.16505   0.00000  Uiso   1.00
C279   C     0.40772   0.40424   0.20140   0.00000  Uiso   1.00
C280   C     0.44108   0.34250   0.15200   0.00000  Uiso   1.00
C281   C     0.49657   0.21494   0.09843   0.00000  Uiso   1.00
C282   C     0.30353   0.58509   0.14959   0.00000  Uiso   1.00
C283   C     0.25193   0.56619   0.17295   0.00000  Uiso   1.00
C284   C     0.21405   0.57853   0.11054   0.00000  Uiso   1.00
C285   C     0.13815   0.58763   0.03299   0.00000  Uiso   1.00
C286   C     0.37838   0.68473   0.20387   0.00000  Uiso   1.00
C287   C     0.38972   0.74962   0.27288   0.00000  Uiso   1.00
C288   C     0.41485   0.84586   0.25617   0.00000  Uiso   1.00
C289   C     0.45518   0.00966   0.26290   0.00000  Uiso   1.00
C290   C     0.37557   0.63183   0.05527   0.00000  Uiso   1.00
C291   C     0.40144   0.52728   0.08228   0.00000  Uiso   1.00
C292   C     0.43478   0.46567   0.03281   0.00000  Uiso   1.00
C293   C     0.45439   0.37272   0.06909   0.00000  Uiso   1.00
C294   C     0.31681   0.61526   0.06682   0.00000  Uiso   1.00
C295   C     0.27900   0.62763   0.00436   0.00000  Uiso   1.00
C296   C     0.22736   0.60875   0.02763   0.00000  Uiso   1.00
C297   C     0.39167   0.71490   0.12111   0.00000  Uiso   1.00
C298   C     0.41679   0.81106   0.10429   0.00000  Uiso   1.00
C299   C     0.42816   0.87608   0.17325   0.00000  Uiso   1.00
H300   H     0.34076   0.55282   0.27208   0.00000  Uiso   1.00
H301   H     0.39742   0.38091   0.26545   0.00000  Uiso   1.00
H302   H     0.24166   0.54286   0.23701   0.00000  Uiso   1.00
H303   H     0.37943   0.72625   0.33692   0.00000  Uiso   1.00
H304   H     0.46609   0.20361   0.22159   0.00000  Uiso   1.00
H305   H     0.13767   0.54512   0.16163   0.00000  Uiso   1.00
H306   H     0.42817   0.93185   0.37230   0.00000  Uiso   1.00
H307   H     0.38591   0.65532   0.99083   0.00000  Uiso   1.00
H308   H     0.44506   0.48904   0.96876   0.00000  Uiso   1.00
H309   H     0.28930   0.65098   0.94032   0.00000  Uiso   1.00
H310   H     0.42706   0.83437   0.04023   0.00000  Uiso   1.00
H311   H     0.50475   0.29136   0.98079   0.00000  Uiso   1.00
H312   H     0.17632   0.63288   0.92083   0.00000  Uiso   1.00
H313   H     0.46683   0.01960   0.13150   0.00000  Uiso   1.00
O314   O     0.52350   0.13624   0.09174   0.00000  Uiso   1.00
O315   O     0.09262   0.58430   0.01308   0.00000  Uiso   1.00
O316   O     0.47376   0.09167   0.28948   0.00000  Uiso   1.00
N317   N     0.46708   0.24710   0.16795   0.00000  Uiso   1.00
N318   N     0.16002   0.56637   0.11189   0.00000  Uiso   1.00
N319   N     0.43161   0.92794   0.30885   0.00000  Uiso   1.00
N320   N     0.48789   0.29431   0.03838   0.00000  Uiso   1.00
N321   N     0.18083   0.61359   0.98231   0.00000  Uiso   1.00
N322   N     0.45241   0.97516   0.17927   0.00000  Uiso   1.00
C323   C     0.14890   0.42370   0.70764   0.00000  Uiso   1.00
C324   C     0.11184   0.50288   0.66505   0.00000  Uiso   1.00
C325   C     0.09228   0.59576   0.70140   0.00000  Uiso   1.00
C326   C     0.05892   0.65750   0.65200   0.00000  Uiso   1.00
C327   C     0.00343   0.78506   0.59843   0.00000  Uiso   1.00
C328   C     0.19647   0.41491   0.64959   0.00000  Uiso   1.00
C329   C     0.24807   0.43381   0.67295   0.00000  Uiso   1.00
C330   C     0.28595   0.42147   0.61054   0.00000  Uiso   1.00
C331   C     0.36185   0.41237   0.53299   0.00000  Uiso   1.00
C332   C     0.12162   0.31527   0.70387   0.00000  Uiso   1.00
C333   C     0.11028   0.25038   0.77288   0.00000  Uiso   1.00
C334   C     0.08515   0.15414   0.75617   0.00000  Uiso   1.00
C335   C     0.04482   0.99034   0.76290   0.00000  Uiso   1.00
C336   C     0.12443   0.36817   0.55527   0.00000  Uiso   1.00
C337   C     0.09856   0.47272   0.58228   0.00000  Uiso   1.00
C338   C     0.06522   0.53433   0.53281   0.00000  Uiso   1.00
C339   C     0.04561   0.62728   0.56909   0.00000  Uiso   1.00
C340   C     0.18319   0.38474   0.56682   0.00000  Uiso   1.00
C341   C     0.22100   0.37237   0.50436   0.00000  Uiso   1.00
C342   C     0.27264   0.39125   0.52763   0.00000  Uiso   1.00
C343   C     0.10833   0.28510   0.62111   0.00000  Uiso   1.00
C344   C     0.08321   0.18894   0.60429   0.00000  Uiso   1.00
C345   C     0.07184   0.12392   0.67325   0.00000  Uiso   1.00
H346   H     0.15924   0.44718   0.77208   0.00000  Uiso   1.00
H347   H     0.10258   0.61909   0.76545   0.00000  Uiso   1.00
H348   H     0.25834   0.45714   0.73701   0.00000  Uiso   1.00
H349   H     0.12057   0.27375   0.83692   0.00000  Uiso   1.00
H350   H     0.03391   0.79639   0.72159   0.00000  Uiso   1.00
H351   H     0.36233   0.45488   0.66163   0.00000  Uiso   1.00
H352   H     0.07183   0.06815   0.87230   0.00000  Uiso   1.00
H353   H     0.11409   0.34468   0.49083   0.00000  Uiso   1.00
H354   H     0.05494   0.51096   0.46876   0.00000  Uiso   1.00
H355   H     0.21070   0.34902   0.44032   0.00000  Uiso   1.00
H356   H     0.07294   0.16563   0.54023   0.00000  Uiso   1.00
H357   H     0.99525   0.70864   0.48079   0.00000  Uiso   1.00
H358   H     0.32368   0.36712   0.42083   0.00000  Uiso   1.00
H359   H     0.03317   0.98040   0.63150   0.00000  Uiso   1.00
O360   O     0.97650   0.86376   0.59174   0.00000  Uiso   1.00
O361   O     0.40738   0.41570   0.51308   0.00000  Uiso   1.00
O362   O     0.02624   0.90833   0.78948   0.00000  Uiso   1.00
N363   N     0.03292   0.75290   0.66795   0.00000  Uiso   1.00
N364   N     0.33998   0.43363   0.61189   0.00000  Uiso   1.00
N365   N     0.06839   0.07206   0.80885   0.00000  Uiso   1.00
N366   N     0.01211   0.70569   0.53838   0.00000  Uiso   1.00
N367   N     0.31917   0.38641   0.48231   0.00000  Uiso   1.00
N368   N     0.04759   0.02484   0.67927   0.00000  Uiso   1.00
