data_job_06621
_audit_creation_date              2018-12-19
_audit_creation_method            'Materials Studio'
_symmetry_space_group_name_H-M    'P1'
_symmetry_Int_Tables_number       1
_symmetry_cell_setting            triclinic
loop_
_symmetry_equiv_pos_as_xyz
  x,y,z
_cell_length_a                    21.1535
_cell_length_b                    19.7836
_cell_length_c                    22.2849
_cell_angle_alpha                 109.3620
_cell_angle_beta                  107.4210
_cell_angle_gamma                 103.2540
loop_
_atom_site_label
_atom_site_type_symbol
_atom_site_fract_x
_atom_site_fract_y
_atom_site_fract_z
_atom_site_U_iso_or_equiv
_atom_site_adp_type
_atom_site_occupancy
C1     C     0.18308   0.89517   0.86076   0.00000  Uiso   1.00
C2     C     0.14438   0.86374   0.78191   0.00000  Uiso   1.00
C3     C     0.15289   0.90399   0.74258   0.00000  Uiso   1.00
C4     C     0.11261   0.86504   0.67114   0.00000  Uiso   1.00
C5     C     0.05966   0.82789   0.55341   0.00000  Uiso   1.00
C6     C     0.12521   0.88482   0.88809   0.00000  Uiso   1.00
C7     C     0.11759   0.94280   0.93804   0.00000  Uiso   1.00
C8     C     0.06118   0.92159   0.95599   0.00000  Uiso   1.00
C9     C     0.97849   0.91715   0.00314   0.00000  Uiso   1.00
C10    C     0.22025   0.84049   0.87327   0.00000  Uiso   1.00
C11    C     0.29256   0.86118   0.91078   0.00000  Uiso   1.00
C12    C     0.31616   0.80264   0.91627   0.00000  Uiso   1.00
C13    C     0.38105   0.72937   0.94041   0.00000  Uiso   1.00
C14    C     0.09643   0.75442   0.80382   0.00000  Uiso   1.00
C15    C     0.09732   0.78729   0.75098   0.00000  Uiso   1.00
C16    C     0.05702   0.74827   0.67958   0.00000  Uiso   1.00
C17    C     0.06546   0.78845   0.64015   0.00000  Uiso   1.00
C18    C     0.07814   0.80838   0.85716   0.00000  Uiso   1.00
C19    C     0.02173   0.78707   0.87504   0.00000  Uiso   1.00
C20    C     0.01403   0.84500   0.92501   0.00000  Uiso   1.00
C21    C     0.17319   0.76403   0.84234   0.00000  Uiso   1.00
C22    C     0.19669   0.70546   0.84777   0.00000  Uiso   1.00
C23    C     0.26901   0.72606   0.88528   0.00000  Uiso   1.00
H24    H     0.21972   0.95469   0.88484   0.00000  Uiso   1.00
H25    H     0.18931   0.96316   0.76654   0.00000  Uiso   1.00
H26    H     0.15403   0.00195   0.96197   0.00000  Uiso   1.00
H27    H     0.32896   0.92035   0.93471   0.00000  Uiso   1.00
H28    H     0.13482   0.93884   0.62174   0.00000  Uiso   1.00
H29    H     0.06044   0.02064   0.03384   0.00000  Uiso   1.00
H30    H     0.42933   0.84856   0.97635   0.00000  Uiso   1.00
H31    H     0.05978   0.69490   0.77974   0.00000  Uiso   1.00
H32    H     0.02060   0.68911   0.65566   0.00000  Uiso   1.00
H33    H     0.98532   0.72791   0.85110   0.00000  Uiso   1.00
H34    H     0.16025   0.64630   0.82383   0.00000  Uiso   1.00
H35    H     0.99789   0.71642   0.53175   0.00000  Uiso   1.00
H36    H     0.92351   0.79822   0.94385   0.00000  Uiso   1.00
H37    H     0.29239   0.62613   0.88636   0.00000  Uiso   1.00
O38    O     0.04345   0.82852   0.49702   0.00000  Uiso   1.00
O39    O     0.94588   0.93583   0.03769   0.00000  Uiso   1.00
O40    O     0.42984   0.71007   0.96226   0.00000  Uiso   1.00
N41    N     0.10798   0.88728   0.61758   0.00000  Uiso   1.00
N42    N     0.03844   0.96376   0.00287   0.00000  Uiso   1.00
N43    N     0.38331   0.80289   0.94913   0.00000  Uiso   1.00
N44    N     0.03430   0.76760   0.56916   0.00000  Uiso   1.00
N45    N     0.96475   0.84408   0.95444   0.00000  Uiso   1.00
N46    N     0.30963   0.68320   0.90071   0.00000  Uiso   1.00
C47    C     0.78027   0.08804   0.89213   0.00000  Uiso   1.00
C48    C     0.71014   0.05363   0.89605   0.00000  Uiso   1.00
C49    C     0.70299   0.04206   0.95216   0.00000  Uiso   1.00
C50    C     0.63424   0.00982   0.94555   0.00000  Uiso   1.00
C51    C     0.53440   0.95939   0.96084   0.00000  Uiso   1.00
C52    C     0.77968   0.02860   0.82732   0.00000  Uiso   1.00
C53    C     0.83101   0.99599   0.82564   0.00000  Uiso   1.00
C54    C     0.82081   0.94269   0.76118   0.00000  Uiso   1.00
C55    C     0.82895   0.85345   0.66975   0.00000  Uiso   1.00
C56    C     0.77601   0.15676   0.87661   0.00000  Uiso   1.00
C57    C     0.82427   0.23190   0.91636   0.00000  Uiso   1.00
C58    C     0.81098   0.28649   0.89337   0.00000  Uiso   1.00
C59    C     0.81343   0.39622   0.87847   0.00000  Uiso   1.00
C60    C     0.67088   0.05139   0.78063   0.00000  Uiso   1.00
C61    C     0.65073   0.03372   0.83548   0.00000  Uiso   1.00
C62    C     0.58197   0.00150   0.82879   0.00000  Uiso   1.00
C63    C     0.57472   0.98988   0.88488   0.00000  Uiso   1.00
C64    C     0.72027   0.00869   0.76676   0.00000  Uiso   1.00
C65    C     0.70999   0.95544   0.70228   0.00000  Uiso   1.00
C66    C     0.76129   0.92275   0.70050   0.00000  Uiso   1.00
C67    C     0.71660   0.13685   0.81604   0.00000  Uiso   1.00
C68    C     0.70324   0.19134   0.79299   0.00000  Uiso   1.00
C69    C     0.75146   0.26655   0.83270   0.00000  Uiso   1.00
H70    H     0.82652   0.10354   0.93928   0.00000  Uiso   1.00
H71    H     0.74899   0.05746   0.99902   0.00000  Uiso   1.00
H72    H     0.87699   0.01141   0.87252   0.00000  Uiso   1.00
H73    H     0.87024   0.24728   0.96322   0.00000  Uiso   1.00
H74    H     0.63682   0.99758   0.03853   0.00000  Uiso   1.00
H75    H     0.90673   0.90050   0.77180   0.00000  Uiso   1.00
H76    H     0.89251   0.39787   0.96306   0.00000  Uiso   1.00
H77    H     0.62462   0.03589   0.73347   0.00000  Uiso   1.00
H78    H     0.53600   0.98610   0.78192   0.00000  Uiso   1.00
H79    H     0.66401   0.94005   0.65542   0.00000  Uiso   1.00
H80    H     0.65726   0.17592   0.74612   0.00000  Uiso   1.00
H81    H     0.46396   0.93966   0.86232   0.00000  Uiso   1.00
H82    H     0.73387   0.84258   0.59559   0.00000  Uiso   1.00
H83    H     0.71964   0.33995   0.78685   0.00000  Uiso   1.00
O84    O     0.49574   0.93707   0.98599   0.00000  Uiso   1.00
O85    O     0.84986   0.80971   0.63606   0.00000  Uiso   1.00
O86    O     0.83119   0.46225   0.88699   0.00000  Uiso   1.00
N87    N     0.60830   0.99079   0.99041   0.00000  Uiso   1.00
N88    N     0.86065   0.90002   0.74104   0.00000  Uiso   1.00
N89    N     0.84735   0.36502   0.91984   0.00000  Uiso   1.00
N90    N     0.51528   0.95963   0.89560   0.00000  Uiso   1.00
N91    N     0.76763   0.86885   0.64622   0.00000  Uiso   1.00
N92    N     0.75434   0.33385   0.82503   0.00000  Uiso   1.00
C93    C     0.81900   0.80608   0.18221   0.00000  Uiso   1.00
C94    C     0.77212   0.72565   0.16594   0.00000  Uiso   1.00
C95    C     0.79484   0.66506   0.16538   0.00000  Uiso   1.00
C96    C     0.74373   0.59602   0.14921   0.00000  Uiso   1.00
C97    C     0.68177   0.47235   0.12620   0.00000  Uiso   1.00
C98    C     0.78538   0.82086   0.11932   0.00000  Uiso   1.00
C99    C     0.81925   0.84033   0.07957   0.00000  Uiso   1.00
C100   C     0.77930   0.85145   0.02416   0.00000  Uiso   1.00
C101   C     0.73794   0.87564   0.92881   0.00000  Uiso   1.00
C102   C     0.80959   0.86155   0.24236   0.00000  Uiso   1.00
C103   C     0.86382   0.91525   0.30606   0.00000  Uiso   1.00
C104   C     0.84425   0.96065   0.35424   0.00000  Uiso   1.00
C105   C     0.84049   0.04802   0.44993   0.00000  Uiso   1.00
C106   C     0.68781   0.79122   0.15449   0.00000  Uiso   1.00
C107   C     0.70087   0.71758   0.15088   0.00000  Uiso   1.00
C108   C     0.64970   0.64862   0.13471   0.00000  Uiso   1.00
C109   C     0.67235   0.58793   0.13413   0.00000  Uiso   1.00
C110   C     0.71413   0.81278   0.10426   0.00000  Uiso   1.00
C111   C     0.67411   0.82388   0.04890   0.00000  Uiso   1.00
C112   C     0.70792   0.84336   0.00908   0.00000  Uiso   1.00
C113   C     0.73834   0.85348   0.22730   0.00000  Uiso   1.00
C114   C     0.71868   0.89880   0.27539   0.00000  Uiso   1.00
C115   C     0.77287   0.95256   0.33916   0.00000  Uiso   1.00
H116   H     0.87447   0.81237   0.19392   0.00000  Uiso   1.00
H117   H     0.84999   0.67133   0.17703   0.00000  Uiso   1.00
H118   H     0.87439   0.84658   0.09124   0.00000  Uiso   1.00
H119   H     0.91896   0.92148   0.31769   0.00000  Uiso   1.00
H120   H     0.79142   0.51139   0.15163   0.00000  Uiso   1.00
H121   H     0.84289   0.88094   0.97075   0.00000  Uiso   1.00
H122   H     0.93686   0.03890   0.44828   0.00000  Uiso   1.00
H123   H     0.63234   0.78494   0.14276   0.00000  Uiso   1.00
H124   H     0.59457   0.64239   0.12306   0.00000  Uiso   1.00
H125   H     0.61898   0.81764   0.03727   0.00000  Uiso   1.00
H126   H     0.66354   0.89254   0.26372   0.00000  Uiso   1.00
H127   H     0.58411   0.48790   0.10782   0.00000  Uiso   1.00
H128   H     0.63558   0.85745   0.92695   0.00000  Uiso   1.00
H129   H     0.72955   0.01541   0.40447   0.00000  Uiso   1.00
O130   O     0.66728   0.40636   0.11766   0.00000  Uiso   1.00
O131   O     0.73482   0.89121   0.88038   0.00000  Uiso   1.00
O132   O     0.85810   0.09844   0.50687   0.00000  Uiso   1.00
N133   N     0.74781   0.52543   0.14403   0.00000  Uiso   1.00
N134   N     0.79593   0.87092   0.97492   0.00000  Uiso   1.00
N135   N     0.88379   0.01862   0.42136   0.00000  Uiso   1.00
N136   N     0.63626   0.51279   0.12046   0.00000  Uiso   1.00
N137   N     0.68438   0.85828   0.95135   0.00000  Uiso   1.00
N138   N     0.77224   0.00598   0.39779   0.00000  Uiso   1.00
C139   C     0.78594   0.48365   0.50610   0.00000  Uiso   1.00
C140   C     0.75268   0.40333   0.50001   0.00000  Uiso   1.00
C141   C     0.78390   0.37169   0.54234   0.00000  Uiso   1.00
C142   C     0.74480   0.29735   0.52833   0.00000  Uiso   1.00
C143   C     0.70347   0.17891   0.52717   0.00000  Uiso   1.00
C144   C     0.73328   0.52344   0.51456   0.00000  Uiso   1.00
C145   C     0.74819   0.59278   0.56913   0.00000  Uiso   1.00
C146   C     0.69275   0.61955   0.56736   0.00000  Uiso   1.00
C147   C     0.62131   0.68760   0.58876   0.00000  Uiso   1.00
C148   C     0.78623   0.47227   0.43509   0.00000  Uiso   1.00
C149   C     0.84566   0.49861   0.42283   0.00000  Uiso   1.00
C150   C     0.83480   0.48231   0.35415   0.00000  Uiso   1.00
C151   C     0.84558   0.47091   0.25216   0.00000  Uiso   1.00
C152   C     0.66099   0.40789   0.40593   0.00000  Uiso   1.00
C153   C     0.68482   0.36218   0.44560   0.00000  Uiso   1.00
C154   C     0.64566   0.28787   0.43151   0.00000  Uiso   1.00
C155   C     0.67681   0.25612   0.47382   0.00000  Uiso   1.00
C156   C     0.66541   0.48229   0.46016   0.00000  Uiso   1.00
C157   C     0.60995   0.50896   0.45830   0.00000  Uiso   1.00
C158   C     0.62477   0.57833   0.51285   0.00000  Uiso   1.00
C159   C     0.71836   0.43111   0.38068   0.00000  Uiso   1.00
C160   C     0.70742   0.41478   0.31200   0.00000  Uiso   1.00
C161   C     0.76681   0.44108   0.29964   0.00000  Uiso   1.00
H162   H     0.83877   0.51569   0.54846   0.00000  Uiso   1.00
H163   H     0.83642   0.40356   0.58445   0.00000  Uiso   1.00
H164   H     0.80071   0.62462   0.61122   0.00000  Uiso   1.00
H165   H     0.89816   0.53045   0.46495   0.00000  Uiso   1.00
H166   H     0.80386   0.26110   0.60037   0.00000  Uiso   1.00
H167   H     0.72858   0.72723   0.65681   0.00000  Uiso   1.00
H168   H     0.93408   0.52866   0.34836   0.00000  Uiso   1.00
H169   H     0.60815   0.37585   0.36357   0.00000  Uiso   1.00
H170   H     0.59314   0.25604   0.38940   0.00000  Uiso   1.00
H171   H     0.55744   0.47710   0.41618   0.00000  Uiso   1.00
H172   H     0.65489   0.38293   0.26991   0.00000  Uiso   1.00
H173   H     0.60641   0.14137   0.44206   0.00000  Uiso   1.00
H174   H     0.53113   0.60750   0.49851   0.00000  Uiso   1.00
H175   H     0.73663   0.40893   0.19006   0.00000  Uiso   1.00
O176   O     0.69942   0.12495   0.54156   0.00000  Uiso   1.00
O177   O     0.60066   0.73651   0.61561   0.00000  Uiso   1.00
O178   O     0.87027   0.47598   0.21093   0.00000  Uiso   1.00
N179   N     0.75946   0.24936   0.55956   0.00000  Uiso   1.00
N180   N     0.68907   0.68516   0.61233   0.00000  Uiso   1.00
N181   N     0.88120   0.49953   0.32396   0.00000  Uiso   1.00
N182   N     0.65321   0.18493   0.47437   0.00000  Uiso   1.00
N183   N     0.58283   0.62073   0.52715   0.00000  Uiso   1.00
N184   N     0.77495   0.43510   0.23878   0.00000  Uiso   1.00
C185   C     0.31927   0.43360   0.69600   0.00000  Uiso   1.00
C186   C     0.25553   0.43699   0.64392   0.00000  Uiso   1.00
C187   C     0.22216   0.48918   0.65929   0.00000  Uiso   1.00
C188   C     0.16472   0.48280   0.60435   0.00000  Uiso   1.00
C189   C     0.06930   0.49669   0.53380   0.00000  Uiso   1.00
C190   C     0.37662   0.44025   0.66774   0.00000  Uiso   1.00
C191   C     0.44508   0.49518   0.70314   0.00000  Uiso   1.00
C192   C     0.48958   0.49152   0.66826   0.00000  Uiso   1.00
C193   C     0.58218   0.51043   0.63470   0.00000  Uiso   1.00
C194   C     0.29639   0.35220   0.69074   0.00000  Uiso   1.00
C195   C     0.29741   0.33309   0.74549   0.00000  Uiso   1.00
C196   C     0.27438   0.25530   0.72998   0.00000  Uiso   1.00
C197   C     0.24241   0.13750   0.73214   0.00000  Uiso   1.00
C198   C     0.27657   0.32945   0.57109   0.00000  Uiso   1.00
C199   C     0.23234   0.38042   0.57607   0.00000  Uiso   1.00
C200   C     0.17493   0.37395   0.52110   0.00000  Uiso   1.00
C201   C     0.14149   0.42612   0.53639   0.00000  Uiso   1.00
C202   C     0.35344   0.38368   0.59990   0.00000  Uiso   1.00
C203   C     0.39785   0.37994   0.56495   0.00000  Uiso   1.00
C204   C     0.46635   0.43484   0.60029   0.00000  Uiso   1.00
C205   C     0.27320   0.29562   0.62290   0.00000  Uiso   1.00
C206   C     0.25017   0.21785   0.60730   0.00000  Uiso   1.00
C207   C     0.25115   0.19862   0.66201   0.00000  Uiso   1.00
H208   H     0.33732   0.47765   0.74881   0.00000  Uiso   1.00
H209   H     0.24013   0.53296   0.71179   0.00000  Uiso   1.00
H210   H     0.46301   0.53894   0.75564   0.00000  Uiso   1.00
H211   H     0.31536   0.37688   0.79798   0.00000  Uiso   1.00
H212   H     0.12216   0.56935   0.64083   0.00000  Uiso   1.00
H213   H     0.59213   0.58195   0.73330   0.00000  Uiso   1.00
H214   H     0.28078   0.24021   0.82258   0.00000  Uiso   1.00
H215   H     0.25852   0.28540   0.51827   0.00000  Uiso   1.00
H216   H     0.15700   0.33016   0.46860   0.00000  Uiso   1.00
H217   H     0.37989   0.33615   0.51245   0.00000  Uiso   1.00
H218   H     0.23223   0.17408   0.55479   0.00000  Uiso   1.00
H219   H     0.05469   0.40475   0.44345   0.00000  Uiso   1.00
H220   H     0.52467   0.41735   0.53592   0.00000  Uiso   1.00
H221   H     0.21331   0.07561   0.62520   0.00000  Uiso   1.00
O222   O     0.02308   0.51998   0.51362   0.00000  Uiso   1.00
O223   O     0.63967   0.53650   0.63494   0.00000  Uiso   1.00
O224   O     0.23117   0.08815   0.75208   0.00000  Uiso   1.00
N225   N     0.12021   0.52446   0.60119   0.00000  Uiso   1.00
N226   N     0.55960   0.53625   0.68764   0.00000  Uiso   1.00
N227   N     0.26853   0.21675   0.77112   0.00000  Uiso   1.00
N228   N     0.08390   0.43589   0.49498   0.00000  Uiso   1.00
N229   N     0.52329   0.44768   0.58143   0.00000  Uiso   1.00
N230   N     0.23222   0.12818   0.66491   0.00000  Uiso   1.00
C231   C     0.31713   0.79286   0.32234   0.00000  Uiso   1.00
C232   C     0.28025   0.79590   0.25360   0.00000  Uiso   1.00
C233   C     0.31298   0.83634   0.22397   0.00000  Uiso   1.00
C234   C     0.26999   0.83178   0.16082   0.00000  Uiso   1.00
C235   C     0.22386   0.84309   0.05899   0.00000  Uiso   1.00
C236   C     0.30097   0.70784   0.30534   0.00000  Uiso   1.00
C237   C     0.35113   0.67425   0.31921   0.00000  Uiso   1.00
C238   C     0.32558   0.59558   0.29962   0.00000  Uiso   1.00
C239   C     0.31162   0.47018   0.27816   0.00000  Uiso   1.00
C240   C     0.27795   0.82000   0.36733   0.00000  Uiso   1.00
C241   C     0.30874   0.88070   0.43333   0.00000  Uiso   1.00
C242   C     0.26380   0.89644   0.46593   0.00000  Uiso   1.00
C243   C     0.21409   0.94519   0.54071   0.00000  Uiso   1.00
C244   C     0.18257   0.71287   0.26290   0.00000  Uiso   1.00
C245   C     0.20717   0.75245   0.22132   0.00000  Uiso   1.00
C246   C     0.16411   0.74784   0.15820   0.00000  Uiso   1.00
C247   C     0.19678   0.78826   0.12847   0.00000  Uiso   1.00
C248   C     0.22789   0.66440   0.27306   0.00000  Uiso   1.00
C249   C     0.20226   0.58576   0.25345   0.00000  Uiso   1.00
C250   C     0.25237   0.55205   0.26728   0.00000  Uiso   1.00
C251   C     0.20486   0.77656   0.33504   0.00000  Uiso   1.00
C252   C     0.15987   0.79221   0.36756   0.00000  Uiso   1.00
C253   C     0.19059   0.85292   0.43359   0.00000  Uiso   1.00
H254   H     0.37403   0.82668   0.34747   0.00000  Uiso   1.00
H255   H     0.36955   0.86995   0.24896   0.00000  Uiso   1.00
H256   H     0.40769   0.70789   0.34420   0.00000  Uiso   1.00
H257   H     0.36530   0.91431   0.45829   0.00000  Uiso   1.00
H258   H     0.33235   0.89874   0.12550   0.00000  Uiso   1.00
H259   H     0.41277   0.55703   0.32634   0.00000  Uiso   1.00
H260   H     0.32340   0.99231   0.56692   0.00000  Uiso   1.00
H261   H     0.12567   0.67904   0.23776   0.00000  Uiso   1.00
H262   H     0.10756   0.71421   0.13323   0.00000  Uiso   1.00
H263   H     0.14570   0.55215   0.22847   0.00000  Uiso   1.00
H264   H     0.10331   0.75857   0.34256   0.00000  Uiso   1.00
H265   H     0.11971   0.77233   0.03156   0.00000  Uiso   1.00
H266   H     0.20014   0.43063   0.23240   0.00000  Uiso   1.00
H267   H     0.11076   0.86591   0.47298   0.00000  Uiso   1.00
O268   O     0.21861   0.86131   0.01173   0.00000  Uiso   1.00
O269   O     0.32412   0.41302   0.27524   0.00000  Uiso   1.00
O270   O     0.20685   0.98409   0.59088   0.00000  Uiso   1.00
N271   N     0.28479   0.86417   0.11774   0.00000  Uiso   1.00
N272   N     0.35998   0.54470   0.30550   0.00000  Uiso   1.00
N273   N     0.27642   0.95163   0.53044   0.00000  Uiso   1.00
N274   N     0.17037   0.79616   0.06720   0.00000  Uiso   1.00
N275   N     0.24556   0.47669   0.25496   0.00000  Uiso   1.00
N276   N     0.16200   0.88362   0.47989   0.00000  Uiso   1.00
C277   C     0.79258   0.09498   0.25176   0.00000  Uiso   1.00
C278   C     0.82782   0.16976   0.31843   0.00000  Uiso   1.00
C279   C     0.86593   0.17771   0.38461   0.00000  Uiso   1.00
C280   C     0.89402   0.25097   0.43883   0.00000  Uiso   1.00
C281   C     0.95025   0.35751   0.54411   0.00000  Uiso   1.00
C282   C     0.82334   0.11010   0.20168   0.00000  Uiso   1.00
C283   C     0.85767   0.06789   0.16970   0.00000  Uiso   1.00
C284   C     0.88199   0.09092   0.12565   0.00000  Uiso   1.00
C285   C     0.93122   0.10481   0.04964   0.00000  Uiso   1.00
C286   C     0.71432   0.08454   0.22051   0.00000  Uiso   1.00
C287   C     0.65699   0.02081   0.20434   0.00000  Uiso   1.00
C288   C     0.58952   0.02231   0.17611   0.00000  Uiso   1.00
C289   C     0.46948   0.99650   0.12934   0.00000  Uiso   1.00
C290   C     0.77470   0.21093   0.23037   0.00000  Uiso   1.00
C291   C     0.81811   0.23274   0.30680   0.00000  Uiso   1.00
C292   C     0.84615   0.30601   0.36094   0.00000  Uiso   1.00
C293   C     0.88429   0.31407   0.42719   0.00000  Uiso   1.00
C294   C     0.81364   0.17308   0.19006   0.00000  Uiso   1.00
C295   C     0.83790   0.19618   0.14604   0.00000  Uiso   1.00
C296   C     0.87226   0.15402   0.11401   0.00000  Uiso   1.00
C297   C     0.70461   0.14752   0.20889   0.00000  Uiso   1.00
C298   C     0.63722   0.14911   0.18068   0.00000  Uiso   1.00
C299   C     0.57979   0.08541   0.16447   0.00000  Uiso   1.00
H300   H     0.80014   0.04594   0.26080   0.00000  Uiso   1.00
H301   H     0.87343   0.12896   0.39358   0.00000  Uiso   1.00
H302   H     0.86517   0.01915   0.17870   0.00000  Uiso   1.00
H303   H     0.66452   0.97209   0.21334   0.00000  Uiso   1.00
H304   H     0.95044   0.24878   0.53566   0.00000  Uiso   1.00
H305   H     0.93300   0.01722   0.08256   0.00000  Uiso   1.00
H306   H     0.50989   0.91797   0.15559   0.00000  Uiso   1.00
H307   H     0.76714   0.25997   0.22132   0.00000  Uiso   1.00
H308   H     0.83863   0.35473   0.35193   0.00000  Uiso   1.00
H309   H     0.83037   0.24492   0.13706   0.00000  Uiso   1.00
H310   H     0.62972   0.19786   0.17169   0.00000  Uiso   1.00
H311   H     0.92220   0.43203   0.50186   0.00000  Uiso   1.00
H312   H     0.90476   0.20047   0.04876   0.00000  Uiso   1.00
H313   H     0.48164   0.10122   0.12179   0.00000  Uiso   1.00
O314   O     0.98396   0.39888   0.60539   0.00000  Uiso   1.00
O315   O     0.96107   0.09508   0.01093   0.00000  Uiso   1.00
O316   O     0.40596   0.96487   0.10675   0.00000  Uiso   1.00
N317   N     0.93397   0.27890   0.50978   0.00000  Uiso   1.00
N318   N     0.91768   0.06241   0.08617   0.00000  Uiso   1.00
N319   N     0.52210   0.96962   0.15443   0.00000  Uiso   1.00
N320   N     0.91877   0.37750   0.49159   0.00000  Uiso   1.00
N321   N     0.90248   0.16102   0.06798   0.00000  Uiso   1.00
N322   N     0.50690   0.06822   0.13624   0.00000  Uiso   1.00
C323   C     0.13952   0.00352   0.21877   0.00000  Uiso   1.00
C324   C     0.21435   0.01845   0.26791   0.00000  Uiso   1.00
C325   C     0.27549   0.03764   0.25624   0.00000  Uiso   1.00
C326   C     0.33882   0.04897   0.30754   0.00000  Uiso   1.00
C327   C     0.45471   0.07334   0.37462   0.00000  Uiso   1.00
C328   C     0.11318   0.05927   0.26117   0.00000  Uiso   1.00
C329   C     0.08924   0.11277   0.24382   0.00000  Uiso   1.00
C330   C     0.06740   0.15845   0.28945   0.00000  Uiso   1.00
C331   C     0.02616   0.24616   0.34602   0.00000  Uiso   1.00
C332   C     0.09362   0.92327   0.20391   0.00000  Uiso   1.00
C333   C     0.05321   0.86243   0.13841   0.00000  Uiso   1.00
C334   C     0.01488   0.79362   0.13583   0.00000  Uiso   1.00
C335   C     0.94327   0.67016   0.10351   0.00000  Uiso   1.00
C336   C     0.14329   0.98952   0.33065   0.00000  Uiso   1.00
C337   C     0.21640   0.01085   0.32868   0.00000  Uiso   1.00
C338   C     0.27966   0.02215   0.38001   0.00000  Uiso   1.00
C339   C     0.34088   0.04135   0.36842   0.00000  Uiso   1.00
C340   C     0.11523   0.05166   0.32193   0.00000  Uiso   1.00
C341   C     0.09341   0.09728   0.36759   0.00000  Uiso   1.00
C342   C     0.06945   0.15084   0.35032   0.00000  Uiso   1.00
C343   C     0.09566   0.91566   0.26467   0.00000  Uiso   1.00
C344   C     0.05738   0.84694   0.26219   0.00000  Uiso   1.00
C345   C     0.01693   0.78600   0.19671   0.00000  Uiso   1.00
H346   H     0.13792   0.00945   0.17146   0.00000  Uiso   1.00
H347   H     0.27388   0.04353   0.20921   0.00000  Uiso   1.00
H348   H     0.08765   0.11863   0.19679   0.00000  Uiso   1.00
H349   H     0.05164   0.86833   0.09140   0.00000  Uiso   1.00
H350   H     0.42552   0.07798   0.27786   0.00000  Uiso   1.00
H351   H     0.03283   0.23634   0.25166   0.00000  Uiso   1.00
H352   H     0.95687   0.70853   0.02943   0.00000  Uiso   1.00
H353   H     0.14488   0.98360   0.37796   0.00000  Uiso   1.00
H354   H     0.28123   0.01626   0.42703   0.00000  Uiso   1.00
H355   H     0.09500   0.09138   0.41461   0.00000  Uiso   1.00
H356   H     0.05898   0.84107   0.30923   0.00000  Uiso   1.00
H357   H     0.43148   0.05586   0.45466   0.00000  Uiso   1.00
H358   H     0.03879   0.21421   0.42845   0.00000  Uiso   1.00
H359   H     0.96284   0.68640   0.20623   0.00000  Uiso   1.00
O360   O     0.51807   0.08890   0.39483   0.00000  Uiso   1.00
O361   O     0.00286   0.29664   0.36044   0.00000  Uiso   1.00
O362   O     0.90321   0.60417   0.06889   0.00000  Uiso   1.00
N363   N     0.40821   0.06828   0.31273   0.00000  Uiso   1.00
N364   N     0.04108   0.21634   0.28824   0.00000  Uiso   1.00
N365   N     0.97005   0.72289   0.08047   0.00000  Uiso   1.00
N366   N     0.41142   0.05637   0.40786   0.00000  Uiso   1.00
N367   N     0.04429   0.20443   0.38337   0.00000  Uiso   1.00
N368   N     0.97326   0.71098   0.17561   0.00000  Uiso   1.00
C369   C     0.00359   0.29825   0.83148   0.00000  Uiso   1.00
C370   C     0.02606   0.38558   0.86577   0.00000  Uiso   1.00
C371   C     0.98134   0.42570   0.87557   0.00000  Uiso   1.00
C372   C     0.01219   0.50547   0.90803   0.00000  Uiso   1.00
C373   C     0.03599   0.63526   0.95799   0.00000  Uiso   1.00
C374   C     0.04954   0.27769   0.88465   0.00000  Uiso   1.00
C375   C     0.02455   0.22709   0.91030   0.00000  Uiso   1.00
C376   C     0.07517   0.21603   0.95864   0.00000  Uiso   1.00
C377   C     0.13542   0.17829   0.03787   0.00000  Uiso   1.00
C378   C     0.02722   0.27966   0.77157   0.00000  Uiso   1.00
C379   C     0.98346   0.23070   0.70215   0.00000  Uiso   1.00
C380   C     0.01528   0.22128   0.65529   0.00000  Uiso   1.00
C381   C     0.04087   0.18659   0.55896   0.00000  Uiso   1.00
C382   C     0.13791   0.36856   0.87170   0.00000  Uiso   1.00
C383   C     0.09902   0.42377   0.88762   0.00000  Uiso   1.00
C384   C     0.12995   0.50350   0.92007   0.00000  Uiso   1.00
C385   C     0.08527   0.54373   0.92991   0.00000  Uiso   1.00
C386   C     0.12249   0.31588   0.90649   0.00000  Uiso   1.00
C387   C     0.17316   0.30489   0.95480   0.00000  Uiso   1.00
C388   C     0.14825   0.25429   0.98053   0.00000  Uiso   1.00
C389   C     0.10017   0.31785   0.79342   0.00000  Uiso   1.00
C390   C     0.13207   0.30850   0.74666   0.00000  Uiso   1.00
C391   C     0.08837   0.25954   0.67718   0.00000  Uiso   1.00
H392   H     0.94679   0.26851   0.81447   0.00000  Uiso   1.00
H393   H     0.92488   0.39612   0.85866   0.00000  Uiso   1.00
H394   H     0.96809   0.19754   0.89338   0.00000  Uiso   1.00
H395   H     0.92701   0.20115   0.68527   0.00000  Uiso   1.00
H396   H     0.93277   0.55445   0.91731   0.00000  Uiso   1.00
H397   H     0.02387   0.13571   0.99051   0.00000  Uiso   1.00
H398   H     0.93724   0.14332   0.55166   0.00000  Uiso   1.00
H399   H     0.19471   0.39830   0.88871   0.00000  Uiso   1.00
H400   H     0.18641   0.53304   0.93697   0.00000  Uiso   1.00
H401   H     0.22961   0.33445   0.97169   0.00000  Uiso   1.00
H402   H     0.18853   0.33806   0.76358   0.00000  Uiso   1.00
H403   H     0.14503   0.66557   0.98088   0.00000  Uiso   1.00
H404   H     0.23614   0.24683   0.05407   0.00000  Uiso   1.00
H405   H     0.14951   0.25444   0.61522   0.00000  Uiso   1.00
O406   O     0.02897   0.69630   0.97953   0.00000  Uiso   1.00
O407   O     0.14849   0.14692   0.07554   0.00000  Uiso   1.00
O408   O     0.03483   0.15691   0.49978   0.00000  Uiso   1.00
N409   N     0.98386   0.56211   0.92564   0.00000  Uiso   1.00
N410   N     0.06904   0.17062   0.99408   0.00000  Uiso   1.00
N411   N     0.98805   0.17772   0.58379   0.00000  Uiso   1.00
N412   N     0.09808   0.62190   0.95984   0.00000  Uiso   1.00
N413   N     0.18326   0.23042   0.02828   0.00000  Uiso   1.00
N414   N     0.10227   0.23752   0.61799   0.00000  Uiso   1.00
C415   C     0.38454   0.85409   0.65632   0.00000  Uiso   1.00
C416   C     0.37865   0.92054   0.71081   0.00000  Uiso   1.00
C417   C     0.40334   0.99721   0.72300   0.00000  Uiso   1.00
C418   C     0.39284   0.04925   0.77519   0.00000  Uiso   1.00
C419   C     0.38890   0.15607   0.85395   0.00000  Uiso   1.00
C420   C     0.42328   0.81566   0.69591   0.00000  Uiso   1.00
C421   C     0.48549   0.80415   0.69557   0.00000  Uiso   1.00
C422   C     0.51255   0.76790   0.73521   0.00000  Uiso   1.00
C423   C     0.57787   0.71184   0.79081   0.00000  Uiso   1.00
C424   C     0.30882   0.79597   0.61090   0.00000  Uiso   1.00
C425   C     0.27479   0.76788   0.53907   0.00000  Uiso   1.00
C426   C     0.20549   0.71504   0.50713   0.00000  Uiso   1.00
C427   C     0.09309   0.62841   0.43072   0.00000  Uiso   1.00
C428   C     0.32198   0.81017   0.72732   0.00000  Uiso   1.00
C429   C     0.34467   0.89668   0.74937   0.00000  Uiso   1.00
C430   C     0.33412   0.94862   0.80155   0.00000  Uiso   1.00
C431   C     0.35879   0.02536   0.81382   0.00000  Uiso   1.00
C432   C     0.38930   0.79181   0.73448   0.00000  Uiso   1.00
C433   C     0.41627   0.75557   0.77412   0.00000  Uiso   1.00
C434   C     0.47851   0.74400   0.77384   0.00000  Uiso   1.00
C435   C     0.27483   0.77212   0.64946   0.00000  Uiso   1.00
C436   C     0.20557   0.71930   0.61762   0.00000  Uiso   1.00
C437   C     0.17145   0.69114   0.54576   0.00000  Uiso   1.00
H438   H     0.41100   0.87265   0.62630   0.00000  Uiso   1.00
H439   H     0.42965   0.01564   0.69315   0.00000  Uiso   1.00
H440   H     0.51178   0.82261   0.66572   0.00000  Uiso   1.00
H441   H     0.30111   0.78635   0.50924   0.00000  Uiso   1.00
H442   H     0.43536   0.16366   0.78429   0.00000  Uiso   1.00
H443   H     0.60852   0.75661   0.72643   0.00000  Uiso   1.00
H444   H     0.16428   0.68015   0.39647   0.00000  Uiso   1.00
H445   H     0.29552   0.79160   0.75734   0.00000  Uiso   1.00
H446   H     0.30782   0.93015   0.83139   0.00000  Uiso   1.00
H447   H     0.38996   0.73711   0.80395   0.00000  Uiso   1.00
H448   H     0.17929   0.70086   0.64748   0.00000  Uiso   1.00
H449   H     0.33648   0.09427   0.89649   0.00000  Uiso   1.00
H450   H     0.50965   0.68721   0.83863   0.00000  Uiso   1.00
H451   H     0.06541   0.61076   0.50867   0.00000  Uiso   1.00
O452   O     0.39612   0.22157   0.88675   0.00000  Uiso   1.00
O453   O     0.62330   0.68752   0.81083   0.00000  Uiso   1.00
O454   O     0.04047   0.58722   0.37793   0.00000  Uiso   1.00
N455   N     0.41038   0.12831   0.80053   0.00000  Uiso   1.00
N456   N     0.57229   0.74775   0.74644   0.00000  Uiso   1.00
N457   N     0.15697   0.67626   0.43795   0.00000  Uiso   1.00
N458   N     0.35718   0.09098   0.86090   0.00000  Uiso   1.00
N459   N     0.51909   0.71042   0.80681   0.00000  Uiso   1.00
N460   N     0.10377   0.63892   0.49832   0.00000  Uiso   1.00
C461   C     0.56293   0.68847   0.36718   0.00000  Uiso   1.00
C462   C     0.64053   0.69989   0.38063   0.00000  Uiso   1.00
C463   C     0.67637   0.65533   0.40110   0.00000  Uiso   1.00
C464   C     0.74721   0.67510   0.41072   0.00000  Uiso   1.00
C465   C     0.86257   0.68341   0.43323   0.00000  Uiso   1.00
C466   C     0.56348   0.76476   0.41474   0.00000  Uiso   1.00
C467   C     0.53453   0.77475   0.46387   0.00000  Uiso   1.00
C468   C     0.54050   0.84913   0.50219   0.00000  Uiso   1.00
C469   C     0.53620   0.95814   0.57762   0.00000  Uiso   1.00
C470   C     0.52733   0.67913   0.29295   0.00000  Uiso   1.00
C471   C     0.46797   0.61712   0.23969   0.00000  Uiso   1.00
C472   C     0.44350   0.61942   0.17548   0.00000  Uiso   1.00
C473   C     0.38307   0.59547   0.06182   0.00000  Uiso   1.00
C474   C     0.62499   0.80281   0.34787   0.00000  Uiso   1.00
C475   C     0.67423   0.76200   0.37015   0.00000  Uiso   1.00
C476   C     0.74503   0.78184   0.37973   0.00000  Uiso   1.00
C477   C     0.78098   0.73732   0.40021   0.00000  Uiso   1.00
C478   C     0.59718   0.82687   0.40425   0.00000  Uiso   1.00
C479   C     0.60319   0.90125   0.44251   0.00000  Uiso   1.00
C480   C     0.57427   0.91135   0.49169   0.00000  Uiso   1.00
C481   C     0.56103   0.74123   0.28246   0.00000  Uiso   1.00
C482   C     0.53664   0.74363   0.21833   0.00000  Uiso   1.00
C483   C     0.47726   0.68164   0.16497   0.00000  Uiso   1.00
H484   H     0.53669   0.64012   0.37535   0.00000  Uiso   1.00
H485   H     0.65027   0.60728   0.40921   0.00000  Uiso   1.00
H486   H     0.50845   0.72667   0.47197   0.00000  Uiso   1.00
H487   H     0.44191   0.56907   0.24782   0.00000  Uiso   1.00
H488   H     0.79107   0.59827   0.44216   0.00000  Uiso   1.00
H489   H     0.49200   0.85002   0.57447   0.00000  Uiso   1.00
H490   H     0.35168   0.51768   0.10181   0.00000  Uiso   1.00
H491   H     0.65123   0.85117   0.33971   0.00000  Uiso   1.00
H492   H     0.77110   0.82991   0.37161   0.00000  Uiso   1.00
H493   H     0.62928   0.94930   0.43437   0.00000  Uiso   1.00
H494   H     0.56273   0.79170   0.21023   0.00000  Uiso   1.00
H495   H     0.88914   0.77897   0.41164   0.00000  Uiso   1.00
H496   H     0.59007   0.03071   0.54395   0.00000  Uiso   1.00
H497   H     0.44975   0.69838   0.07130   0.00000  Uiso   1.00
O498   O     0.91690   0.67084   0.44855   0.00000  Uiso   1.00
O499   O     0.52452   0.00112   0.62213   0.00000  Uiso   1.00
O500   O     0.34043   0.56510   0.00202   0.00000  Uiso   1.00
N501   N     0.79770   0.64370   0.43058   0.00000  Uiso   1.00
N502   N     0.51810   0.87908   0.55429   0.00000  Uiso   1.00
N503   N     0.38690   0.56838   0.11240   0.00000  Uiso   1.00
N504   N     0.85047   0.74094   0.41416   0.00000  Uiso   1.00
N505   N     0.57087   0.97631   0.53787   0.00000  Uiso   1.00
N506   N     0.43967   0.66561   0.09598   0.00000  Uiso   1.00
C507   C     0.50921   0.42469   0.82931   0.00000  Uiso   1.00
C508   C     0.49086   0.41331   0.88732   0.00000  Uiso   1.00
C509   C     0.43791   0.43129   0.90627   0.00000  Uiso   1.00
C510   C     0.42951   0.41656   0.96070   0.00000  Uiso   1.00
C511   C     0.39450   0.40373   0.04559   0.00000  Uiso   1.00
C512   C     0.58801   0.47492   0.86334   0.00000  Uiso   1.00
C513   C     0.61675   0.54471   0.86213   0.00000  Uiso   1.00
C514   C     0.69013   0.58184   0.89637   0.00000  Uiso   1.00
C515   C     0.80595   0.66464   0.94400   0.00000  Uiso   1.00
C516   C     0.50305   0.34599   0.78043   0.00000  Uiso   1.00
C517   C     0.46036   0.30737   0.70950   0.00000  Uiso   1.00
C518   C     0.46223   0.23595   0.67393   0.00000  Uiso   1.00
C519   C     0.44613   0.11856   0.59281   0.00000  Uiso   1.00
C520   C     0.58844   0.36653   0.89227   0.00000  Uiso   1.00
C521   C     0.53390   0.38172   0.92151   0.00000  Uiso   1.00
C522   C     0.52557   0.36695   0.97593   0.00000  Uiso   1.00
C523   C     0.47262   0.38492   0.99496   0.00000  Uiso   1.00
C524   C     0.63105   0.44334   0.89754   0.00000  Uiso   1.00
C525   C     0.70441   0.48037   0.93179   0.00000  Uiso   1.00
C526   C     0.73324   0.55020   0.93063   0.00000  Uiso   1.00
C527   C     0.54608   0.31440   0.81463   0.00000  Uiso   1.00
C528   C     0.54802   0.24303   0.77916   0.00000  Uiso   1.00
C529   C     0.50534   0.20431   0.70819   0.00000  Uiso   1.00
H530   H     0.47571   0.44928   0.80269   0.00000  Uiso   1.00
H531   H     0.40462   0.45574   0.87980   0.00000  Uiso   1.00
H532   H     0.58343   0.56913   0.83566   0.00000  Uiso   1.00
H533   H     0.42707   0.33183   0.68305   0.00000  Uiso   1.00
H534   H     0.34481   0.44901   0.98038   0.00000  Uiso   1.00
H535   H     0.72184   0.68808   0.88729   0.00000  Uiso   1.00
H536   H     0.39211   0.18768   0.56549   0.00000  Uiso   1.00
H537   H     0.62195   0.34194   0.91890   0.00000  Uiso   1.00
H538   H     0.55888   0.34251   0.00238   0.00000  Uiso   1.00
H539   H     0.73769   0.45591   0.95824   0.00000  Uiso   1.00
H540   H     0.58133   0.21860   0.80564   0.00000  Uiso   1.00
H541   H     0.47002   0.35711   0.07988   0.00000  Uiso   1.00
H542   H     0.84705   0.59619   0.98679   0.00000  Uiso   1.00
H543   H     0.51732   0.09579   0.66499   0.00000  Uiso   1.00
O544   O     0.36330   0.40539   0.08297   0.00000  Uiso   1.00
O545   O     0.85795   0.71905   0.96082   0.00000  Uiso   1.00
O546   O     0.42536   0.06253   0.53863   0.00000  Uiso   1.00
N547   N     0.38292   0.42728   0.99233   0.00000  Uiso   1.00
N548   N     0.73542   0.65082   0.90531   0.00000  Uiso   1.00
N549   N     0.42717   0.18299   0.60444   0.00000  Uiso   1.00
N550   N     0.45029   0.37783   0.04587   0.00000  Uiso   1.00
N551   N     0.80279   0.60137   0.95885   0.00000  Uiso   1.00
N552   N     0.49454   0.13354   0.65798   0.00000  Uiso   1.00
