data_job_05733
_audit_creation_date              2018-12-19
_audit_creation_method            'Materials Studio'
_symmetry_space_group_name_H-M    'P1'
_symmetry_Int_Tables_number       1
_symmetry_cell_setting            triclinic
loop_
_symmetry_equiv_pos_as_xyz
  x,y,z
_cell_length_a                    7.5563
_cell_length_b                    25.5051
_cell_length_c                    40.5802
_cell_angle_alpha                 90.0000
_cell_angle_beta                  90.0000
_cell_angle_gamma                 90.0000
loop_
_atom_site_label
_atom_site_type_symbol
_atom_site_fract_x
_atom_site_fract_y
_atom_site_fract_z
_atom_site_U_iso_or_equiv
_atom_site_adp_type
_atom_site_occupancy
C1     C     0.07953   0.62483   0.45449   0.00000  Uiso   1.00
C2     C     0.15751   0.64110   0.48760   0.00000  Uiso   1.00
C3     C     0.06145   0.65481   0.51545   0.00000  Uiso   1.00
C4     C     0.15740   0.66852   0.54333   0.00000  Uiso   1.00
C5     C     0.25028   0.69381   0.59474   0.00000  Uiso   1.00
C6     C     0.15752   0.66231   0.42907   0.00000  Uiso   1.00
C7     C     0.06147   0.69384   0.40769   0.00000  Uiso   1.00
C8     C     0.15743   0.72540   0.38629   0.00000  Uiso   1.00
C9     C     0.25033   0.78359   0.34681   0.00000  Uiso   1.00
C10    C     0.15740   0.57105   0.44679   0.00000  Uiso   1.00
C11    C     0.06124   0.52585   0.44030   0.00000  Uiso   1.00
C12    C     0.15710   0.48057   0.43381   0.00000  Uiso   1.00
C13    C     0.24981   0.39706   0.42185   0.00000  Uiso   1.00
C14    C     0.42074   0.62478   0.45448   0.00000  Uiso   1.00
C15    C     0.34284   0.64108   0.48760   0.00000  Uiso   1.00
C16    C     0.43896   0.65476   0.51544   0.00000  Uiso   1.00
C17    C     0.34306   0.66849   0.54332   0.00000  Uiso   1.00
C18    C     0.34285   0.66229   0.42906   0.00000  Uiso   1.00
C19    C     0.43897   0.69380   0.40768   0.00000  Uiso   1.00
C20    C     0.34309   0.72538   0.38628   0.00000  Uiso   1.00
C21    C     0.34273   0.57102   0.44678   0.00000  Uiso   1.00
C22    C     0.43875   0.52580   0.44030   0.00000  Uiso   1.00
C23    C     0.34277   0.48054   0.43381   0.00000  Uiso   1.00
H24    H     0.93525   0.62485   0.45449   0.00000  Uiso   1.00
H25    H     0.91803   0.65483   0.51544   0.00000  Uiso   1.00
H26    H     0.91805   0.69385   0.40770   0.00000  Uiso   1.00
H27    H     0.91783   0.52588   0.44031   0.00000  Uiso   1.00
H28    H     0.98067   0.68807   0.58301   0.00000  Uiso   1.00
H29    H     0.98071   0.77034   0.35582   0.00000  Uiso   1.00
H30    H     0.98024   0.41615   0.42458   0.00000  Uiso   1.00
H31    H     0.56504   0.62477   0.45448   0.00000  Uiso   1.00
H32    H     0.58238   0.65474   0.51543   0.00000  Uiso   1.00
H33    H     0.58239   0.69377   0.40769   0.00000  Uiso   1.00
H34    H     0.58217   0.52580   0.44030   0.00000  Uiso   1.00
H35    H     0.51988   0.68801   0.58300   0.00000  Uiso   1.00
H36    H     0.51991   0.77028   0.35581   0.00000  Uiso   1.00
H37    H     0.51945   0.41608   0.42458   0.00000  Uiso   1.00
O38    O     0.25032   0.70778   0.62310   0.00000  Uiso   1.00
O39    O     0.25036   0.81571   0.32503   0.00000  Uiso   1.00
O40    O     0.24975   0.35101   0.41525   0.00000  Uiso   1.00
N41    N     0.10519   0.68394   0.57465   0.00000  Uiso   1.00
N42    N     0.10523   0.76086   0.36224   0.00000  Uiso   1.00
N43    N     0.10479   0.42972   0.42652   0.00000  Uiso   1.00
N44    N     0.39534   0.68390   0.57464   0.00000  Uiso   1.00
N45    N     0.39537   0.76082   0.36224   0.00000  Uiso   1.00
N46    N     0.39493   0.42968   0.42652   0.00000  Uiso   1.00
C47    C     0.42047   0.87517   0.95449   0.00000  Uiso   1.00
C48    C     0.34249   0.85890   0.98760   0.00000  Uiso   1.00
C49    C     0.43855   0.84519   0.01545   0.00000  Uiso   1.00
C50    C     0.34260   0.83148   0.04333   0.00000  Uiso   1.00
C51    C     0.24972   0.80619   0.09474   0.00000  Uiso   1.00
C52    C     0.34248   0.83769   0.92907   0.00000  Uiso   1.00
C53    C     0.43853   0.80616   0.90769   0.00000  Uiso   1.00
C54    C     0.34257   0.77460   0.88629   0.00000  Uiso   1.00
C55    C     0.24967   0.71641   0.84681   0.00000  Uiso   1.00
C56    C     0.34260   0.92895   0.94679   0.00000  Uiso   1.00
C57    C     0.43876   0.97415   0.94030   0.00000  Uiso   1.00
C58    C     0.34290   0.01943   0.93381   0.00000  Uiso   1.00
C59    C     0.25019   0.10294   0.92185   0.00000  Uiso   1.00
C60    C     0.07926   0.87522   0.95448   0.00000  Uiso   1.00
C61    C     0.15716   0.85892   0.98760   0.00000  Uiso   1.00
C62    C     0.06104   0.84524   0.01544   0.00000  Uiso   1.00
C63    C     0.15694   0.83151   0.04332   0.00000  Uiso   1.00
C64    C     0.15715   0.83771   0.92906   0.00000  Uiso   1.00
C65    C     0.06103   0.80620   0.90768   0.00000  Uiso   1.00
C66    C     0.15691   0.77462   0.88628   0.00000  Uiso   1.00
C67    C     0.15727   0.92898   0.94678   0.00000  Uiso   1.00
C68    C     0.06125   0.97420   0.94030   0.00000  Uiso   1.00
C69    C     0.15723   0.01946   0.93381   0.00000  Uiso   1.00
H70    H     0.56475   0.87515   0.95449   0.00000  Uiso   1.00
H71    H     0.58197   0.84517   0.01544   0.00000  Uiso   1.00
H72    H     0.58195   0.80615   0.90770   0.00000  Uiso   1.00
H73    H     0.58217   0.97412   0.94031   0.00000  Uiso   1.00
H74    H     0.51933   0.81193   0.08301   0.00000  Uiso   1.00
H75    H     0.51929   0.72966   0.85582   0.00000  Uiso   1.00
H76    H     0.51976   0.08385   0.92458   0.00000  Uiso   1.00
H77    H     0.93496   0.87523   0.95448   0.00000  Uiso   1.00
H78    H     0.91762   0.84526   0.01543   0.00000  Uiso   1.00
H79    H     0.91761   0.80623   0.90769   0.00000  Uiso   1.00
H80    H     0.91783   0.97420   0.94030   0.00000  Uiso   1.00
H81    H     0.98012   0.81199   0.08300   0.00000  Uiso   1.00
H82    H     0.98009   0.72972   0.85581   0.00000  Uiso   1.00
H83    H     0.98055   0.08392   0.92458   0.00000  Uiso   1.00
O84    O     0.24968   0.79222   0.12310   0.00000  Uiso   1.00
O85    O     0.24964   0.68429   0.82503   0.00000  Uiso   1.00
O86    O     0.25025   0.14899   0.91525   0.00000  Uiso   1.00
N87    N     0.39481   0.81606   0.07465   0.00000  Uiso   1.00
N88    N     0.39477   0.73914   0.86224   0.00000  Uiso   1.00
N89    N     0.39521   0.07028   0.92652   0.00000  Uiso   1.00
N90    N     0.10466   0.81610   0.07464   0.00000  Uiso   1.00
N91    N     0.10463   0.73918   0.86224   0.00000  Uiso   1.00
N92    N     0.10507   0.07032   0.92652   0.00000  Uiso   1.00
C93    C     0.92047   0.62483   0.04551   0.00000  Uiso   1.00
C94    C     0.84249   0.64110   0.01240   0.00000  Uiso   1.00
C95    C     0.93855   0.65481   0.98455   0.00000  Uiso   1.00
C96    C     0.84260   0.66852   0.95667   0.00000  Uiso   1.00
C97    C     0.74972   0.69381   0.90526   0.00000  Uiso   1.00
C98    C     0.84248   0.66231   0.07093   0.00000  Uiso   1.00
C99    C     0.93853   0.69384   0.09231   0.00000  Uiso   1.00
C100   C     0.84257   0.72540   0.11371   0.00000  Uiso   1.00
C101   C     0.74967   0.78359   0.15319   0.00000  Uiso   1.00
C102   C     0.84260   0.57105   0.05321   0.00000  Uiso   1.00
C103   C     0.93876   0.52585   0.05970   0.00000  Uiso   1.00
C104   C     0.84290   0.48057   0.06619   0.00000  Uiso   1.00
C105   C     0.75019   0.39706   0.07815   0.00000  Uiso   1.00
C106   C     0.57926   0.62478   0.04552   0.00000  Uiso   1.00
C107   C     0.65716   0.64108   0.01240   0.00000  Uiso   1.00
C108   C     0.56104   0.65476   0.98456   0.00000  Uiso   1.00
C109   C     0.65694   0.66849   0.95668   0.00000  Uiso   1.00
C110   C     0.65715   0.66229   0.07094   0.00000  Uiso   1.00
C111   C     0.56103   0.69380   0.09232   0.00000  Uiso   1.00
C112   C     0.65691   0.72538   0.11372   0.00000  Uiso   1.00
C113   C     0.65727   0.57102   0.05322   0.00000  Uiso   1.00
C114   C     0.56125   0.52580   0.05970   0.00000  Uiso   1.00
C115   C     0.65723   0.48054   0.06619   0.00000  Uiso   1.00
H116   H     0.06475   0.62485   0.04551   0.00000  Uiso   1.00
H117   H     0.08197   0.65483   0.98456   0.00000  Uiso   1.00
H118   H     0.08195   0.69385   0.09230   0.00000  Uiso   1.00
H119   H     0.08217   0.52588   0.05969   0.00000  Uiso   1.00
H120   H     0.01933   0.68807   0.91699   0.00000  Uiso   1.00
H121   H     0.01929   0.77034   0.14418   0.00000  Uiso   1.00
H122   H     0.01976   0.41615   0.07542   0.00000  Uiso   1.00
H123   H     0.43496   0.62477   0.04552   0.00000  Uiso   1.00
H124   H     0.41762   0.65474   0.98457   0.00000  Uiso   1.00
H125   H     0.41761   0.69377   0.09231   0.00000  Uiso   1.00
H126   H     0.41783   0.52580   0.05970   0.00000  Uiso   1.00
H127   H     0.48012   0.68801   0.91700   0.00000  Uiso   1.00
H128   H     0.48009   0.77028   0.14419   0.00000  Uiso   1.00
H129   H     0.48055   0.41608   0.07542   0.00000  Uiso   1.00
O130   O     0.74968   0.70778   0.87690   0.00000  Uiso   1.00
O131   O     0.74964   0.81571   0.17497   0.00000  Uiso   1.00
O132   O     0.75025   0.35101   0.08475   0.00000  Uiso   1.00
N133   N     0.89481   0.68394   0.92535   0.00000  Uiso   1.00
N134   N     0.89477   0.76086   0.13776   0.00000  Uiso   1.00
N135   N     0.89521   0.42972   0.07348   0.00000  Uiso   1.00
N136   N     0.60466   0.68390   0.92536   0.00000  Uiso   1.00
N137   N     0.60463   0.76082   0.13776   0.00000  Uiso   1.00
N138   N     0.60507   0.42968   0.07348   0.00000  Uiso   1.00
C139   C     0.57953   0.87517   0.54551   0.00000  Uiso   1.00
C140   C     0.65751   0.85890   0.51240   0.00000  Uiso   1.00
C141   C     0.56145   0.84519   0.48455   0.00000  Uiso   1.00
C142   C     0.65740   0.83148   0.45667   0.00000  Uiso   1.00
C143   C     0.75028   0.80619   0.40526   0.00000  Uiso   1.00
C144   C     0.65752   0.83769   0.57093   0.00000  Uiso   1.00
C145   C     0.56147   0.80616   0.59231   0.00000  Uiso   1.00
C146   C     0.65743   0.77460   0.61371   0.00000  Uiso   1.00
C147   C     0.75033   0.71641   0.65319   0.00000  Uiso   1.00
C148   C     0.65740   0.92895   0.55321   0.00000  Uiso   1.00
C149   C     0.56124   0.97415   0.55970   0.00000  Uiso   1.00
C150   C     0.65710   0.01943   0.56619   0.00000  Uiso   1.00
C151   C     0.74981   0.10294   0.57815   0.00000  Uiso   1.00
C152   C     0.92074   0.87522   0.54552   0.00000  Uiso   1.00
C153   C     0.84284   0.85892   0.51240   0.00000  Uiso   1.00
C154   C     0.93896   0.84524   0.48456   0.00000  Uiso   1.00
C155   C     0.84306   0.83151   0.45668   0.00000  Uiso   1.00
C156   C     0.84285   0.83771   0.57094   0.00000  Uiso   1.00
C157   C     0.93897   0.80620   0.59232   0.00000  Uiso   1.00
C158   C     0.84309   0.77462   0.61372   0.00000  Uiso   1.00
C159   C     0.84273   0.92898   0.55322   0.00000  Uiso   1.00
C160   C     0.93875   0.97420   0.55970   0.00000  Uiso   1.00
C161   C     0.84277   0.01946   0.56619   0.00000  Uiso   1.00
H162   H     0.43525   0.87515   0.54551   0.00000  Uiso   1.00
H163   H     0.41803   0.84517   0.48456   0.00000  Uiso   1.00
H164   H     0.41805   0.80615   0.59230   0.00000  Uiso   1.00
H165   H     0.41783   0.97412   0.55969   0.00000  Uiso   1.00
H166   H     0.48067   0.81193   0.41699   0.00000  Uiso   1.00
H167   H     0.48071   0.72966   0.64418   0.00000  Uiso   1.00
H168   H     0.48024   0.08385   0.57542   0.00000  Uiso   1.00
H169   H     0.06504   0.87523   0.54552   0.00000  Uiso   1.00
H170   H     0.08238   0.84526   0.48457   0.00000  Uiso   1.00
H171   H     0.08239   0.80623   0.59231   0.00000  Uiso   1.00
H172   H     0.08217   0.97420   0.55970   0.00000  Uiso   1.00
H173   H     0.01988   0.81199   0.41700   0.00000  Uiso   1.00
H174   H     0.01991   0.72972   0.64419   0.00000  Uiso   1.00
H175   H     0.01945   0.08392   0.57542   0.00000  Uiso   1.00
O176   O     0.75032   0.79222   0.37690   0.00000  Uiso   1.00
O177   O     0.75036   0.68429   0.67497   0.00000  Uiso   1.00
O178   O     0.74975   0.14899   0.58475   0.00000  Uiso   1.00
N179   N     0.60519   0.81606   0.42535   0.00000  Uiso   1.00
N180   N     0.60523   0.73914   0.63776   0.00000  Uiso   1.00
N181   N     0.60479   0.07028   0.57348   0.00000  Uiso   1.00
N182   N     0.89534   0.81610   0.42536   0.00000  Uiso   1.00
N183   N     0.89537   0.73918   0.63776   0.00000  Uiso   1.00
N184   N     0.89493   0.07032   0.57348   0.00000  Uiso   1.00
C185   C     0.92047   0.37517   0.54551   0.00000  Uiso   1.00
C186   C     0.84249   0.35890   0.51240   0.00000  Uiso   1.00
C187   C     0.93855   0.34519   0.48455   0.00000  Uiso   1.00
C188   C     0.84260   0.33148   0.45667   0.00000  Uiso   1.00
C189   C     0.74972   0.30619   0.40526   0.00000  Uiso   1.00
C190   C     0.84248   0.33769   0.57093   0.00000  Uiso   1.00
C191   C     0.93853   0.30616   0.59231   0.00000  Uiso   1.00
C192   C     0.84257   0.27460   0.61371   0.00000  Uiso   1.00
C193   C     0.74967   0.21641   0.65319   0.00000  Uiso   1.00
C194   C     0.84260   0.42895   0.55321   0.00000  Uiso   1.00
C195   C     0.93876   0.47415   0.55970   0.00000  Uiso   1.00
C196   C     0.84290   0.51943   0.56619   0.00000  Uiso   1.00
C197   C     0.75019   0.60294   0.57815   0.00000  Uiso   1.00
C198   C     0.57926   0.37522   0.54552   0.00000  Uiso   1.00
C199   C     0.65716   0.35892   0.51240   0.00000  Uiso   1.00
C200   C     0.56104   0.34524   0.48456   0.00000  Uiso   1.00
C201   C     0.65694   0.33151   0.45668   0.00000  Uiso   1.00
C202   C     0.65715   0.33771   0.57094   0.00000  Uiso   1.00
C203   C     0.56103   0.30620   0.59232   0.00000  Uiso   1.00
C204   C     0.65691   0.27462   0.61372   0.00000  Uiso   1.00
C205   C     0.65727   0.42898   0.55322   0.00000  Uiso   1.00
C206   C     0.56125   0.47420   0.55970   0.00000  Uiso   1.00
C207   C     0.65723   0.51946   0.56619   0.00000  Uiso   1.00
H208   H     0.06475   0.37515   0.54551   0.00000  Uiso   1.00
H209   H     0.08197   0.34517   0.48456   0.00000  Uiso   1.00
H210   H     0.08195   0.30615   0.59230   0.00000  Uiso   1.00
H211   H     0.08217   0.47412   0.55969   0.00000  Uiso   1.00
H212   H     0.01933   0.31193   0.41699   0.00000  Uiso   1.00
H213   H     0.01929   0.22966   0.64418   0.00000  Uiso   1.00
H214   H     0.01976   0.58385   0.57542   0.00000  Uiso   1.00
H215   H     0.43496   0.37523   0.54552   0.00000  Uiso   1.00
H216   H     0.41762   0.34526   0.48457   0.00000  Uiso   1.00
H217   H     0.41761   0.30623   0.59231   0.00000  Uiso   1.00
H218   H     0.41783   0.47420   0.55970   0.00000  Uiso   1.00
H219   H     0.48012   0.31199   0.41700   0.00000  Uiso   1.00
H220   H     0.48009   0.22972   0.64419   0.00000  Uiso   1.00
H221   H     0.48055   0.58392   0.57542   0.00000  Uiso   1.00
O222   O     0.74968   0.29222   0.37690   0.00000  Uiso   1.00
O223   O     0.74964   0.18429   0.67497   0.00000  Uiso   1.00
O224   O     0.75025   0.64899   0.58475   0.00000  Uiso   1.00
N225   N     0.89481   0.31606   0.42535   0.00000  Uiso   1.00
N226   N     0.89477   0.23914   0.63776   0.00000  Uiso   1.00
N227   N     0.89521   0.57028   0.57348   0.00000  Uiso   1.00
N228   N     0.60466   0.31610   0.42536   0.00000  Uiso   1.00
N229   N     0.60463   0.23918   0.63776   0.00000  Uiso   1.00
N230   N     0.60507   0.57032   0.57348   0.00000  Uiso   1.00
C231   C     0.57953   0.12483   0.04551   0.00000  Uiso   1.00
C232   C     0.65751   0.14110   0.01240   0.00000  Uiso   1.00
C233   C     0.56145   0.15481   0.98455   0.00000  Uiso   1.00
C234   C     0.65740   0.16852   0.95667   0.00000  Uiso   1.00
C235   C     0.75028   0.19381   0.90526   0.00000  Uiso   1.00
C236   C     0.65752   0.16231   0.07093   0.00000  Uiso   1.00
C237   C     0.56147   0.19384   0.09231   0.00000  Uiso   1.00
C238   C     0.65743   0.22540   0.11371   0.00000  Uiso   1.00
C239   C     0.75033   0.28359   0.15319   0.00000  Uiso   1.00
C240   C     0.65740   0.07105   0.05321   0.00000  Uiso   1.00
C241   C     0.56124   0.02585   0.05970   0.00000  Uiso   1.00
C242   C     0.65710   0.98057   0.06619   0.00000  Uiso   1.00
C243   C     0.74981   0.89706   0.07815   0.00000  Uiso   1.00
C244   C     0.92074   0.12478   0.04552   0.00000  Uiso   1.00
C245   C     0.84284   0.14108   0.01240   0.00000  Uiso   1.00
C246   C     0.93896   0.15476   0.98456   0.00000  Uiso   1.00
C247   C     0.84306   0.16849   0.95668   0.00000  Uiso   1.00
C248   C     0.84285   0.16229   0.07094   0.00000  Uiso   1.00
C249   C     0.93897   0.19380   0.09232   0.00000  Uiso   1.00
C250   C     0.84309   0.22538   0.11372   0.00000  Uiso   1.00
C251   C     0.84273   0.07102   0.05322   0.00000  Uiso   1.00
C252   C     0.93875   0.02580   0.05970   0.00000  Uiso   1.00
C253   C     0.84277   0.98054   0.06619   0.00000  Uiso   1.00
H254   H     0.43525   0.12485   0.04551   0.00000  Uiso   1.00
H255   H     0.41803   0.15483   0.98456   0.00000  Uiso   1.00
H256   H     0.41805   0.19385   0.09230   0.00000  Uiso   1.00
H257   H     0.41783   0.02588   0.05969   0.00000  Uiso   1.00
H258   H     0.48067   0.18807   0.91699   0.00000  Uiso   1.00
H259   H     0.48071   0.27034   0.14418   0.00000  Uiso   1.00
H260   H     0.48024   0.91615   0.07542   0.00000  Uiso   1.00
H261   H     0.06504   0.12477   0.04552   0.00000  Uiso   1.00
H262   H     0.08238   0.15474   0.98457   0.00000  Uiso   1.00
H263   H     0.08239   0.19377   0.09231   0.00000  Uiso   1.00
H264   H     0.08217   0.02580   0.05970   0.00000  Uiso   1.00
H265   H     0.01988   0.18801   0.91700   0.00000  Uiso   1.00
H266   H     0.01991   0.27028   0.14419   0.00000  Uiso   1.00
H267   H     0.01945   0.91608   0.07542   0.00000  Uiso   1.00
O268   O     0.75032   0.20778   0.87690   0.00000  Uiso   1.00
O269   O     0.75036   0.31571   0.17497   0.00000  Uiso   1.00
O270   O     0.74975   0.85101   0.08475   0.00000  Uiso   1.00
N271   N     0.60519   0.18394   0.92535   0.00000  Uiso   1.00
N272   N     0.60523   0.26086   0.13776   0.00000  Uiso   1.00
N273   N     0.60479   0.92972   0.07348   0.00000  Uiso   1.00
N274   N     0.89534   0.18390   0.92536   0.00000  Uiso   1.00
N275   N     0.89537   0.26082   0.13776   0.00000  Uiso   1.00
N276   N     0.89493   0.92968   0.07348   0.00000  Uiso   1.00
C277   C     0.07953   0.37517   0.95449   0.00000  Uiso   1.00
C278   C     0.15751   0.35890   0.98760   0.00000  Uiso   1.00
C279   C     0.06145   0.34519   0.01545   0.00000  Uiso   1.00
C280   C     0.15740   0.33148   0.04333   0.00000  Uiso   1.00
C281   C     0.25028   0.30619   0.09474   0.00000  Uiso   1.00
C282   C     0.15752   0.33769   0.92907   0.00000  Uiso   1.00
C283   C     0.06147   0.30616   0.90769   0.00000  Uiso   1.00
C284   C     0.15743   0.27460   0.88629   0.00000  Uiso   1.00
C285   C     0.25033   0.21641   0.84681   0.00000  Uiso   1.00
C286   C     0.15740   0.42895   0.94679   0.00000  Uiso   1.00
C287   C     0.06124   0.47415   0.94030   0.00000  Uiso   1.00
C288   C     0.15710   0.51943   0.93381   0.00000  Uiso   1.00
C289   C     0.24981   0.60294   0.92185   0.00000  Uiso   1.00
C290   C     0.42074   0.37522   0.95448   0.00000  Uiso   1.00
C291   C     0.34284   0.35892   0.98760   0.00000  Uiso   1.00
C292   C     0.43896   0.34524   0.01544   0.00000  Uiso   1.00
C293   C     0.34306   0.33151   0.04332   0.00000  Uiso   1.00
C294   C     0.34285   0.33771   0.92906   0.00000  Uiso   1.00
C295   C     0.43897   0.30620   0.90768   0.00000  Uiso   1.00
C296   C     0.34309   0.27462   0.88628   0.00000  Uiso   1.00
C297   C     0.34273   0.42898   0.94678   0.00000  Uiso   1.00
C298   C     0.43875   0.47420   0.94030   0.00000  Uiso   1.00
C299   C     0.34277   0.51946   0.93381   0.00000  Uiso   1.00
H300   H     0.93525   0.37515   0.95449   0.00000  Uiso   1.00
H301   H     0.91803   0.34517   0.01544   0.00000  Uiso   1.00
H302   H     0.91805   0.30615   0.90770   0.00000  Uiso   1.00
H303   H     0.91783   0.47412   0.94031   0.00000  Uiso   1.00
H304   H     0.98067   0.31193   0.08301   0.00000  Uiso   1.00
H305   H     0.98071   0.22966   0.85582   0.00000  Uiso   1.00
H306   H     0.98024   0.58385   0.92458   0.00000  Uiso   1.00
H307   H     0.56504   0.37523   0.95448   0.00000  Uiso   1.00
H308   H     0.58238   0.34526   0.01543   0.00000  Uiso   1.00
H309   H     0.58239   0.30623   0.90769   0.00000  Uiso   1.00
H310   H     0.58217   0.47420   0.94030   0.00000  Uiso   1.00
H311   H     0.51988   0.31199   0.08300   0.00000  Uiso   1.00
H312   H     0.51991   0.22972   0.85581   0.00000  Uiso   1.00
H313   H     0.51945   0.58392   0.92458   0.00000  Uiso   1.00
O314   O     0.25032   0.29222   0.12310   0.00000  Uiso   1.00
O315   O     0.25036   0.18429   0.82503   0.00000  Uiso   1.00
O316   O     0.24975   0.64899   0.91525   0.00000  Uiso   1.00
N317   N     0.10519   0.31606   0.07465   0.00000  Uiso   1.00
N318   N     0.10523   0.23914   0.86224   0.00000  Uiso   1.00
N319   N     0.10479   0.57028   0.92652   0.00000  Uiso   1.00
N320   N     0.39534   0.31610   0.07464   0.00000  Uiso   1.00
N321   N     0.39537   0.23918   0.86224   0.00000  Uiso   1.00
N322   N     0.39493   0.57032   0.92652   0.00000  Uiso   1.00
C323   C     0.42047   0.12483   0.45449   0.00000  Uiso   1.00
C324   C     0.34249   0.14110   0.48760   0.00000  Uiso   1.00
C325   C     0.43855   0.15481   0.51545   0.00000  Uiso   1.00
C326   C     0.34260   0.16852   0.54333   0.00000  Uiso   1.00
C327   C     0.24972   0.19381   0.59474   0.00000  Uiso   1.00
C328   C     0.34248   0.16231   0.42907   0.00000  Uiso   1.00
C329   C     0.43853   0.19384   0.40769   0.00000  Uiso   1.00
C330   C     0.34257   0.22540   0.38629   0.00000  Uiso   1.00
C331   C     0.24967   0.28359   0.34681   0.00000  Uiso   1.00
C332   C     0.34260   0.07105   0.44679   0.00000  Uiso   1.00
C333   C     0.43876   0.02585   0.44030   0.00000  Uiso   1.00
C334   C     0.34290   0.98057   0.43381   0.00000  Uiso   1.00
C335   C     0.25019   0.89706   0.42185   0.00000  Uiso   1.00
C336   C     0.07926   0.12478   0.45448   0.00000  Uiso   1.00
C337   C     0.15716   0.14108   0.48760   0.00000  Uiso   1.00
C338   C     0.06104   0.15476   0.51544   0.00000  Uiso   1.00
C339   C     0.15694   0.16849   0.54332   0.00000  Uiso   1.00
C340   C     0.15715   0.16229   0.42906   0.00000  Uiso   1.00
C341   C     0.06103   0.19380   0.40768   0.00000  Uiso   1.00
C342   C     0.15691   0.22538   0.38628   0.00000  Uiso   1.00
C343   C     0.15727   0.07102   0.44678   0.00000  Uiso   1.00
C344   C     0.06125   0.02580   0.44030   0.00000  Uiso   1.00
C345   C     0.15723   0.98054   0.43381   0.00000  Uiso   1.00
H346   H     0.56475   0.12485   0.45449   0.00000  Uiso   1.00
H347   H     0.58197   0.15483   0.51544   0.00000  Uiso   1.00
H348   H     0.58195   0.19385   0.40770   0.00000  Uiso   1.00
H349   H     0.58217   0.02588   0.44031   0.00000  Uiso   1.00
H350   H     0.51933   0.18807   0.58301   0.00000  Uiso   1.00
H351   H     0.51929   0.27034   0.35582   0.00000  Uiso   1.00
H352   H     0.51976   0.91615   0.42458   0.00000  Uiso   1.00
H353   H     0.93496   0.12477   0.45448   0.00000  Uiso   1.00
H354   H     0.91762   0.15474   0.51543   0.00000  Uiso   1.00
H355   H     0.91761   0.19377   0.40769   0.00000  Uiso   1.00
H356   H     0.91783   0.02580   0.44030   0.00000  Uiso   1.00
H357   H     0.98012   0.18801   0.58300   0.00000  Uiso   1.00
H358   H     0.98009   0.27028   0.35581   0.00000  Uiso   1.00
H359   H     0.98055   0.91608   0.42458   0.00000  Uiso   1.00
O360   O     0.24968   0.20778   0.62310   0.00000  Uiso   1.00
O361   O     0.24964   0.31571   0.32503   0.00000  Uiso   1.00
O362   O     0.25025   0.85101   0.41525   0.00000  Uiso   1.00
N363   N     0.39481   0.18394   0.57465   0.00000  Uiso   1.00
N364   N     0.39477   0.26086   0.36224   0.00000  Uiso   1.00
N365   N     0.39521   0.92972   0.42652   0.00000  Uiso   1.00
N366   N     0.10466   0.18390   0.57464   0.00000  Uiso   1.00
N367   N     0.10463   0.26082   0.36224   0.00000  Uiso   1.00
N368   N     0.10507   0.92968   0.42652   0.00000  Uiso   1.00
