data_job_00403
_audit_creation_date              2018-12-19
_audit_creation_method            'Materials Studio'
_symmetry_space_group_name_H-M    'P1'
_symmetry_Int_Tables_number       1
_symmetry_cell_setting            triclinic
loop_
_symmetry_equiv_pos_as_xyz
  x,y,z
_cell_length_a                    10.0522
_cell_length_b                    23.7100
_cell_length_c                    23.3106
_cell_angle_alpha                 90.0000
_cell_angle_beta                  90.0000
_cell_angle_gamma                 90.0000
loop_
_atom_site_label
_atom_site_type_symbol
_atom_site_fract_x
_atom_site_fract_y
_atom_site_fract_z
_atom_site_U_iso_or_equiv
_atom_site_adp_type
_atom_site_occupancy
C1     C     0.02926   0.17164   0.57467   0.00000  Uiso   1.00
C2     C     0.12875   0.12366   0.58219   0.00000  Uiso   1.00
C3     C     0.26592   0.12945   0.58542   0.00000  Uiso   1.00
C4     C     0.33966   0.08040   0.59232   0.00000  Uiso   1.00
C5     C     0.50349   0.01394   0.60343   0.00000  Uiso   1.00
C6     C     0.94855   0.15727   0.52124   0.00000  Uiso   1.00
C7     C     0.93419   0.19134   0.47322   0.00000  Uiso   1.00
C8     C     0.85621   0.17059   0.42882   0.00000  Uiso   1.00
C9     C     0.74019   0.15634   0.34532   0.00000  Uiso   1.00
C10    C     0.93304   0.16723   0.62505   0.00000  Uiso   1.00
C11    C     0.90562   0.20968   0.66430   0.00000  Uiso   1.00
C12    C     0.81455   0.19732   0.70729   0.00000  Uiso   1.00
C13    C     0.67446   0.19854   0.78496   0.00000  Uiso   1.00
C14    C     0.91626   0.07423   0.58120   0.00000  Uiso   1.00
C15    C     0.06737   0.07075   0.58574   0.00000  Uiso   1.00
C16    C     0.14092   0.02168   0.59264   0.00000  Uiso   1.00
C17    C     0.27818   0.02740   0.59588   0.00000  Uiso   1.00
C18    C     0.88717   0.10437   0.52479   0.00000  Uiso   1.00
C19    C     0.80919   0.08356   0.48045   0.00000  Uiso   1.00
C20    C     0.79473   0.11759   0.43237   0.00000  Uiso   1.00
C21    C     0.87167   0.11432   0.62859   0.00000  Uiso   1.00
C22    C     0.78062   0.10190   0.67152   0.00000  Uiso   1.00
C23    C     0.75307   0.14432   0.71084   0.00000  Uiso   1.00
H24    H     0.07703   0.21283   0.57191   0.00000  Uiso   1.00
H25    H     0.31338   0.17040   0.58267   0.00000  Uiso   1.00
H26    H     0.98169   0.23229   0.47049   0.00000  Uiso   1.00
H27    H     0.95313   0.25062   0.66154   0.00000  Uiso   1.00
H28    H     0.54836   0.10003   0.59614   0.00000  Uiso   1.00
H29    H     0.84893   0.23052   0.35963   0.00000  Uiso   1.00
H30    H     0.78870   0.26918   0.76248   0.00000  Uiso   1.00
H31    H     0.86848   0.03303   0.58396   0.00000  Uiso   1.00
H32    H     0.09340   0.98074   0.59538   0.00000  Uiso   1.00
H33    H     0.76170   0.04262   0.48321   0.00000  Uiso   1.00
H34    H     0.73314   0.06095   0.67426   0.00000  Uiso   1.00
H35    H     0.36981   0.94609   0.60646   0.00000  Uiso   1.00
H36    H     0.67038   0.07658   0.36994   0.00000  Uiso   1.00
H37    H     0.61015   0.11524   0.77280   0.00000  Uiso   1.00
O38    O     0.61081   0.99190   0.60857   0.00000  Uiso   1.00
O39    O     0.69317   0.16310   0.29829   0.00000  Uiso   1.00
O40    O     0.61415   0.21382   0.82682   0.00000  Uiso   1.00
N41    N     0.47547   0.07098   0.59701   0.00000  Uiso   1.00
N42    N     0.82157   0.19297   0.37588   0.00000  Uiso   1.00
N43    N     0.76523   0.22912   0.75251   0.00000  Uiso   1.00
N44    N     0.37939   0.98814   0.60256   0.00000  Uiso   1.00
N45    N     0.72549   0.11014   0.38143   0.00000  Uiso   1.00
N46    N     0.66915   0.14629   0.75806   0.00000  Uiso   1.00
C47    C     0.52926   0.67164   0.57467   0.00000  Uiso   1.00
C48    C     0.62875   0.62366   0.58219   0.00000  Uiso   1.00
C49    C     0.76592   0.62945   0.58542   0.00000  Uiso   1.00
C50    C     0.83966   0.58040   0.59232   0.00000  Uiso   1.00
C51    C     0.00349   0.51394   0.60343   0.00000  Uiso   1.00
C52    C     0.44855   0.65727   0.52124   0.00000  Uiso   1.00
C53    C     0.43419   0.69134   0.47322   0.00000  Uiso   1.00
C54    C     0.35621   0.67059   0.42882   0.00000  Uiso   1.00
C55    C     0.24019   0.65634   0.34532   0.00000  Uiso   1.00
C56    C     0.43304   0.66723   0.62505   0.00000  Uiso   1.00
C57    C     0.40562   0.70968   0.66430   0.00000  Uiso   1.00
C58    C     0.31455   0.69732   0.70729   0.00000  Uiso   1.00
C59    C     0.17446   0.69854   0.78496   0.00000  Uiso   1.00
C60    C     0.41626   0.57423   0.58120   0.00000  Uiso   1.00
C61    C     0.56737   0.57075   0.58574   0.00000  Uiso   1.00
C62    C     0.64092   0.52168   0.59264   0.00000  Uiso   1.00
C63    C     0.77818   0.52740   0.59588   0.00000  Uiso   1.00
C64    C     0.38717   0.60437   0.52479   0.00000  Uiso   1.00
C65    C     0.30919   0.58356   0.48045   0.00000  Uiso   1.00
C66    C     0.29473   0.61759   0.43237   0.00000  Uiso   1.00
C67    C     0.37167   0.61432   0.62859   0.00000  Uiso   1.00
C68    C     0.28062   0.60190   0.67152   0.00000  Uiso   1.00
C69    C     0.25307   0.64432   0.71084   0.00000  Uiso   1.00
H70    H     0.57703   0.71283   0.57191   0.00000  Uiso   1.00
H71    H     0.81338   0.67040   0.58267   0.00000  Uiso   1.00
H72    H     0.48169   0.73229   0.47049   0.00000  Uiso   1.00
H73    H     0.45313   0.75062   0.66154   0.00000  Uiso   1.00
H74    H     0.04836   0.60003   0.59614   0.00000  Uiso   1.00
H75    H     0.34893   0.73052   0.35963   0.00000  Uiso   1.00
H76    H     0.28870   0.76918   0.76248   0.00000  Uiso   1.00
H77    H     0.36848   0.53303   0.58396   0.00000  Uiso   1.00
H78    H     0.59340   0.48074   0.59538   0.00000  Uiso   1.00
H79    H     0.26170   0.54262   0.48321   0.00000  Uiso   1.00
H80    H     0.23314   0.56095   0.67426   0.00000  Uiso   1.00
H81    H     0.86981   0.44609   0.60646   0.00000  Uiso   1.00
H82    H     0.17038   0.57658   0.36994   0.00000  Uiso   1.00
H83    H     0.11015   0.61524   0.77280   0.00000  Uiso   1.00
O84    O     0.11081   0.49190   0.60857   0.00000  Uiso   1.00
O85    O     0.19317   0.66310   0.29829   0.00000  Uiso   1.00
O86    O     0.11415   0.71382   0.82682   0.00000  Uiso   1.00
N87    N     0.97547   0.57098   0.59701   0.00000  Uiso   1.00
N88    N     0.32157   0.69297   0.37588   0.00000  Uiso   1.00
N89    N     0.26523   0.72912   0.75251   0.00000  Uiso   1.00
N90    N     0.87939   0.48814   0.60256   0.00000  Uiso   1.00
N91    N     0.22549   0.61014   0.38143   0.00000  Uiso   1.00
N92    N     0.16915   0.64629   0.75806   0.00000  Uiso   1.00
C93    C     0.97074   0.82836   0.07467   0.00000  Uiso   1.00
C94    C     0.87125   0.87634   0.08219   0.00000  Uiso   1.00
C95    C     0.73408   0.87055   0.08542   0.00000  Uiso   1.00
C96    C     0.66034   0.91960   0.09232   0.00000  Uiso   1.00
C97    C     0.49651   0.98606   0.10343   0.00000  Uiso   1.00
C98    C     0.05145   0.84273   0.02124   0.00000  Uiso   1.00
C99    C     0.06581   0.80866   0.97322   0.00000  Uiso   1.00
C100   C     0.14379   0.82941   0.92882   0.00000  Uiso   1.00
C101   C     0.25981   0.84366   0.84532   0.00000  Uiso   1.00
C102   C     0.06696   0.83277   0.12505   0.00000  Uiso   1.00
C103   C     0.09438   0.79032   0.16430   0.00000  Uiso   1.00
C104   C     0.18545   0.80268   0.20729   0.00000  Uiso   1.00
C105   C     0.32554   0.80146   0.28496   0.00000  Uiso   1.00
C106   C     0.08374   0.92577   0.08120   0.00000  Uiso   1.00
C107   C     0.93263   0.92925   0.08574   0.00000  Uiso   1.00
C108   C     0.85908   0.97832   0.09264   0.00000  Uiso   1.00
C109   C     0.72182   0.97260   0.09588   0.00000  Uiso   1.00
C110   C     0.11283   0.89563   0.02479   0.00000  Uiso   1.00
C111   C     0.19081   0.91644   0.98045   0.00000  Uiso   1.00
C112   C     0.20527   0.88241   0.93237   0.00000  Uiso   1.00
C113   C     0.12833   0.88568   0.12859   0.00000  Uiso   1.00
C114   C     0.21938   0.89810   0.17152   0.00000  Uiso   1.00
C115   C     0.24693   0.85568   0.21084   0.00000  Uiso   1.00
H116   H     0.92297   0.78717   0.07191   0.00000  Uiso   1.00
H117   H     0.68662   0.82960   0.08267   0.00000  Uiso   1.00
H118   H     0.01831   0.76771   0.97049   0.00000  Uiso   1.00
H119   H     0.04687   0.74938   0.16154   0.00000  Uiso   1.00
H120   H     0.45164   0.89997   0.09614   0.00000  Uiso   1.00
H121   H     0.15107   0.76948   0.85963   0.00000  Uiso   1.00
H122   H     0.21130   0.73082   0.26248   0.00000  Uiso   1.00
H123   H     0.13152   0.96697   0.08396   0.00000  Uiso   1.00
H124   H     0.90660   0.01926   0.09538   0.00000  Uiso   1.00
H125   H     0.23830   0.95738   0.98321   0.00000  Uiso   1.00
H126   H     0.26686   0.93905   0.17426   0.00000  Uiso   1.00
H127   H     0.63019   0.05391   0.10646   0.00000  Uiso   1.00
H128   H     0.32962   0.92342   0.86994   0.00000  Uiso   1.00
H129   H     0.38985   0.88476   0.27280   0.00000  Uiso   1.00
O130   O     0.38919   0.00810   0.10857   0.00000  Uiso   1.00
O131   O     0.30683   0.83690   0.79829   0.00000  Uiso   1.00
O132   O     0.38585   0.78618   0.32682   0.00000  Uiso   1.00
N133   N     0.52453   0.92902   0.09701   0.00000  Uiso   1.00
N134   N     0.17843   0.80703   0.87588   0.00000  Uiso   1.00
N135   N     0.23477   0.77088   0.25251   0.00000  Uiso   1.00
N136   N     0.62061   0.01186   0.10256   0.00000  Uiso   1.00
N137   N     0.27451   0.88986   0.88143   0.00000  Uiso   1.00
N138   N     0.33085   0.85371   0.25806   0.00000  Uiso   1.00
C139   C     0.47074   0.32836   0.07467   0.00000  Uiso   1.00
C140   C     0.37125   0.37634   0.08219   0.00000  Uiso   1.00
C141   C     0.23408   0.37055   0.08542   0.00000  Uiso   1.00
C142   C     0.16034   0.41960   0.09232   0.00000  Uiso   1.00
C143   C     0.99651   0.48606   0.10343   0.00000  Uiso   1.00
C144   C     0.55145   0.34273   0.02124   0.00000  Uiso   1.00
C145   C     0.56581   0.30866   0.97322   0.00000  Uiso   1.00
C146   C     0.64379   0.32941   0.92882   0.00000  Uiso   1.00
C147   C     0.75981   0.34366   0.84532   0.00000  Uiso   1.00
C148   C     0.56696   0.33277   0.12505   0.00000  Uiso   1.00
C149   C     0.59438   0.29032   0.16430   0.00000  Uiso   1.00
C150   C     0.68545   0.30268   0.20729   0.00000  Uiso   1.00
C151   C     0.82554   0.30146   0.28496   0.00000  Uiso   1.00
C152   C     0.58374   0.42577   0.08120   0.00000  Uiso   1.00
C153   C     0.43263   0.42925   0.08574   0.00000  Uiso   1.00
C154   C     0.35908   0.47832   0.09264   0.00000  Uiso   1.00
C155   C     0.22182   0.47260   0.09588   0.00000  Uiso   1.00
C156   C     0.61283   0.39563   0.02479   0.00000  Uiso   1.00
C157   C     0.69081   0.41644   0.98045   0.00000  Uiso   1.00
C158   C     0.70527   0.38241   0.93237   0.00000  Uiso   1.00
C159   C     0.62833   0.38568   0.12859   0.00000  Uiso   1.00
C160   C     0.71938   0.39810   0.17152   0.00000  Uiso   1.00
C161   C     0.74693   0.35568   0.21084   0.00000  Uiso   1.00
H162   H     0.42297   0.28717   0.07191   0.00000  Uiso   1.00
H163   H     0.18662   0.32960   0.08267   0.00000  Uiso   1.00
H164   H     0.51831   0.26771   0.97049   0.00000  Uiso   1.00
H165   H     0.54687   0.24938   0.16154   0.00000  Uiso   1.00
H166   H     0.95164   0.39997   0.09614   0.00000  Uiso   1.00
H167   H     0.65107   0.26948   0.85963   0.00000  Uiso   1.00
H168   H     0.71130   0.23082   0.26248   0.00000  Uiso   1.00
H169   H     0.63152   0.46697   0.08396   0.00000  Uiso   1.00
H170   H     0.40660   0.51926   0.09538   0.00000  Uiso   1.00
H171   H     0.73830   0.45738   0.98321   0.00000  Uiso   1.00
H172   H     0.76686   0.43905   0.17426   0.00000  Uiso   1.00
H173   H     0.13019   0.55391   0.10646   0.00000  Uiso   1.00
H174   H     0.82962   0.42342   0.86994   0.00000  Uiso   1.00
H175   H     0.88985   0.38476   0.27280   0.00000  Uiso   1.00
O176   O     0.88919   0.50810   0.10857   0.00000  Uiso   1.00
O177   O     0.80683   0.33690   0.79829   0.00000  Uiso   1.00
O178   O     0.88585   0.28618   0.32682   0.00000  Uiso   1.00
N179   N     0.02453   0.42902   0.09701   0.00000  Uiso   1.00
N180   N     0.67843   0.30703   0.87588   0.00000  Uiso   1.00
N181   N     0.73477   0.27088   0.25251   0.00000  Uiso   1.00
N182   N     0.12061   0.51186   0.10256   0.00000  Uiso   1.00
N183   N     0.77451   0.38986   0.88143   0.00000  Uiso   1.00
N184   N     0.83085   0.35371   0.25806   0.00000  Uiso   1.00
C185   C     0.97074   0.17164   0.92533   0.00000  Uiso   1.00
C186   C     0.87125   0.12366   0.91781   0.00000  Uiso   1.00
C187   C     0.73408   0.12945   0.91458   0.00000  Uiso   1.00
C188   C     0.66034   0.08040   0.90768   0.00000  Uiso   1.00
C189   C     0.49651   0.01394   0.89657   0.00000  Uiso   1.00
C190   C     0.05145   0.15727   0.97876   0.00000  Uiso   1.00
C191   C     0.06581   0.19134   0.02678   0.00000  Uiso   1.00
C192   C     0.14379   0.17059   0.07118   0.00000  Uiso   1.00
C193   C     0.25981   0.15634   0.15468   0.00000  Uiso   1.00
C194   C     0.06696   0.16723   0.87495   0.00000  Uiso   1.00
C195   C     0.09438   0.20968   0.83570   0.00000  Uiso   1.00
C196   C     0.18545   0.19732   0.79271   0.00000  Uiso   1.00
C197   C     0.32554   0.19854   0.71504   0.00000  Uiso   1.00
C198   C     0.08374   0.07423   0.91880   0.00000  Uiso   1.00
C199   C     0.93263   0.07075   0.91426   0.00000  Uiso   1.00
C200   C     0.85908   0.02168   0.90736   0.00000  Uiso   1.00
C201   C     0.72182   0.02740   0.90412   0.00000  Uiso   1.00
C202   C     0.11283   0.10437   0.97521   0.00000  Uiso   1.00
C203   C     0.19081   0.08356   0.01955   0.00000  Uiso   1.00
C204   C     0.20527   0.11759   0.06763   0.00000  Uiso   1.00
C205   C     0.12833   0.11432   0.87141   0.00000  Uiso   1.00
C206   C     0.21938   0.10190   0.82848   0.00000  Uiso   1.00
C207   C     0.24693   0.14432   0.78916   0.00000  Uiso   1.00
H208   H     0.92297   0.21283   0.92809   0.00000  Uiso   1.00
H209   H     0.68662   0.17040   0.91733   0.00000  Uiso   1.00
H210   H     0.01831   0.23229   0.02951   0.00000  Uiso   1.00
H211   H     0.04687   0.25062   0.83846   0.00000  Uiso   1.00
H212   H     0.45164   0.10003   0.90386   0.00000  Uiso   1.00
H213   H     0.15107   0.23052   0.14037   0.00000  Uiso   1.00
H214   H     0.21130   0.26918   0.73752   0.00000  Uiso   1.00
H215   H     0.13152   0.03303   0.91604   0.00000  Uiso   1.00
H216   H     0.90660   0.98074   0.90462   0.00000  Uiso   1.00
H217   H     0.23830   0.04262   0.01679   0.00000  Uiso   1.00
H218   H     0.26686   0.06095   0.82574   0.00000  Uiso   1.00
H219   H     0.63019   0.94609   0.89354   0.00000  Uiso   1.00
H220   H     0.32962   0.07658   0.13006   0.00000  Uiso   1.00
H221   H     0.38985   0.11524   0.72720   0.00000  Uiso   1.00
O222   O     0.38919   0.99190   0.89143   0.00000  Uiso   1.00
O223   O     0.30683   0.16310   0.20171   0.00000  Uiso   1.00
O224   O     0.38585   0.21382   0.67318   0.00000  Uiso   1.00
N225   N     0.52453   0.07098   0.90299   0.00000  Uiso   1.00
N226   N     0.17843   0.19297   0.12412   0.00000  Uiso   1.00
N227   N     0.23477   0.22912   0.74749   0.00000  Uiso   1.00
N228   N     0.62061   0.98814   0.89744   0.00000  Uiso   1.00
N229   N     0.27451   0.11014   0.11857   0.00000  Uiso   1.00
N230   N     0.33085   0.14629   0.74194   0.00000  Uiso   1.00
C231   C     0.47074   0.67164   0.92533   0.00000  Uiso   1.00
C232   C     0.37125   0.62366   0.91781   0.00000  Uiso   1.00
C233   C     0.23408   0.62945   0.91458   0.00000  Uiso   1.00
C234   C     0.16034   0.58040   0.90768   0.00000  Uiso   1.00
C235   C     0.99651   0.51394   0.89657   0.00000  Uiso   1.00
C236   C     0.55145   0.65727   0.97876   0.00000  Uiso   1.00
C237   C     0.56581   0.69134   0.02678   0.00000  Uiso   1.00
C238   C     0.64379   0.67059   0.07118   0.00000  Uiso   1.00
C239   C     0.75981   0.65634   0.15468   0.00000  Uiso   1.00
C240   C     0.56696   0.66723   0.87495   0.00000  Uiso   1.00
C241   C     0.59438   0.70968   0.83570   0.00000  Uiso   1.00
C242   C     0.68545   0.69732   0.79271   0.00000  Uiso   1.00
C243   C     0.82554   0.69854   0.71504   0.00000  Uiso   1.00
C244   C     0.58374   0.57423   0.91880   0.00000  Uiso   1.00
C245   C     0.43263   0.57075   0.91426   0.00000  Uiso   1.00
C246   C     0.35908   0.52168   0.90736   0.00000  Uiso   1.00
C247   C     0.22182   0.52740   0.90412   0.00000  Uiso   1.00
C248   C     0.61283   0.60437   0.97521   0.00000  Uiso   1.00
C249   C     0.69081   0.58356   0.01955   0.00000  Uiso   1.00
C250   C     0.70527   0.61759   0.06763   0.00000  Uiso   1.00
C251   C     0.62833   0.61432   0.87141   0.00000  Uiso   1.00
C252   C     0.71938   0.60190   0.82848   0.00000  Uiso   1.00
C253   C     0.74693   0.64432   0.78916   0.00000  Uiso   1.00
H254   H     0.42297   0.71283   0.92809   0.00000  Uiso   1.00
H255   H     0.18662   0.67040   0.91733   0.00000  Uiso   1.00
H256   H     0.51831   0.73229   0.02951   0.00000  Uiso   1.00
H257   H     0.54687   0.75062   0.83846   0.00000  Uiso   1.00
H258   H     0.95164   0.60003   0.90386   0.00000  Uiso   1.00
H259   H     0.65107   0.73052   0.14037   0.00000  Uiso   1.00
H260   H     0.71130   0.76918   0.73752   0.00000  Uiso   1.00
H261   H     0.63152   0.53303   0.91604   0.00000  Uiso   1.00
H262   H     0.40660   0.48074   0.90462   0.00000  Uiso   1.00
H263   H     0.73830   0.54262   0.01679   0.00000  Uiso   1.00
H264   H     0.76686   0.56095   0.82574   0.00000  Uiso   1.00
H265   H     0.13019   0.44609   0.89354   0.00000  Uiso   1.00
H266   H     0.82962   0.57658   0.13006   0.00000  Uiso   1.00
H267   H     0.88985   0.61524   0.72720   0.00000  Uiso   1.00
O268   O     0.88919   0.49190   0.89143   0.00000  Uiso   1.00
O269   O     0.80683   0.66310   0.20171   0.00000  Uiso   1.00
O270   O     0.88585   0.71382   0.67318   0.00000  Uiso   1.00
N271   N     0.02453   0.57098   0.90299   0.00000  Uiso   1.00
N272   N     0.67843   0.69297   0.12412   0.00000  Uiso   1.00
N273   N     0.73477   0.72912   0.74749   0.00000  Uiso   1.00
N274   N     0.12061   0.48814   0.89744   0.00000  Uiso   1.00
N275   N     0.77451   0.61014   0.11857   0.00000  Uiso   1.00
N276   N     0.83085   0.64629   0.74194   0.00000  Uiso   1.00
C277   C     0.02926   0.82836   0.42533   0.00000  Uiso   1.00
C278   C     0.12875   0.87634   0.41781   0.00000  Uiso   1.00
C279   C     0.26592   0.87055   0.41458   0.00000  Uiso   1.00
C280   C     0.33966   0.91960   0.40768   0.00000  Uiso   1.00
C281   C     0.50349   0.98606   0.39657   0.00000  Uiso   1.00
C282   C     0.94855   0.84273   0.47876   0.00000  Uiso   1.00
C283   C     0.93419   0.80866   0.52678   0.00000  Uiso   1.00
C284   C     0.85621   0.82941   0.57118   0.00000  Uiso   1.00
C285   C     0.74019   0.84366   0.65468   0.00000  Uiso   1.00
C286   C     0.93304   0.83277   0.37495   0.00000  Uiso   1.00
C287   C     0.90562   0.79032   0.33570   0.00000  Uiso   1.00
C288   C     0.81455   0.80268   0.29271   0.00000  Uiso   1.00
C289   C     0.67446   0.80146   0.21504   0.00000  Uiso   1.00
C290   C     0.91626   0.92577   0.41880   0.00000  Uiso   1.00
C291   C     0.06737   0.92925   0.41426   0.00000  Uiso   1.00
C292   C     0.14092   0.97832   0.40736   0.00000  Uiso   1.00
C293   C     0.27818   0.97260   0.40412   0.00000  Uiso   1.00
C294   C     0.88717   0.89563   0.47521   0.00000  Uiso   1.00
C295   C     0.80919   0.91644   0.51955   0.00000  Uiso   1.00
C296   C     0.79473   0.88241   0.56763   0.00000  Uiso   1.00
C297   C     0.87167   0.88568   0.37141   0.00000  Uiso   1.00
C298   C     0.78062   0.89810   0.32848   0.00000  Uiso   1.00
C299   C     0.75307   0.85568   0.28916   0.00000  Uiso   1.00
H300   H     0.07703   0.78717   0.42809   0.00000  Uiso   1.00
H301   H     0.31338   0.82960   0.41733   0.00000  Uiso   1.00
H302   H     0.98169   0.76771   0.52951   0.00000  Uiso   1.00
H303   H     0.95313   0.74938   0.33846   0.00000  Uiso   1.00
H304   H     0.54836   0.89997   0.40386   0.00000  Uiso   1.00
H305   H     0.84893   0.76948   0.64037   0.00000  Uiso   1.00
H306   H     0.78870   0.73082   0.23752   0.00000  Uiso   1.00
H307   H     0.86848   0.96697   0.41604   0.00000  Uiso   1.00
H308   H     0.09340   0.01926   0.40462   0.00000  Uiso   1.00
H309   H     0.76170   0.95738   0.51679   0.00000  Uiso   1.00
H310   H     0.73314   0.93905   0.32574   0.00000  Uiso   1.00
H311   H     0.36981   0.05391   0.39354   0.00000  Uiso   1.00
H312   H     0.67038   0.92342   0.63006   0.00000  Uiso   1.00
H313   H     0.61015   0.88476   0.22720   0.00000  Uiso   1.00
O314   O     0.61081   0.00810   0.39143   0.00000  Uiso   1.00
O315   O     0.69317   0.83690   0.70171   0.00000  Uiso   1.00
O316   O     0.61415   0.78618   0.17318   0.00000  Uiso   1.00
N317   N     0.47547   0.92902   0.40299   0.00000  Uiso   1.00
N318   N     0.82157   0.80703   0.62412   0.00000  Uiso   1.00
N319   N     0.76523   0.77088   0.24749   0.00000  Uiso   1.00
N320   N     0.37939   0.01186   0.39744   0.00000  Uiso   1.00
N321   N     0.72549   0.88986   0.61857   0.00000  Uiso   1.00
N322   N     0.66915   0.85371   0.24194   0.00000  Uiso   1.00
C323   C     0.52926   0.32836   0.42533   0.00000  Uiso   1.00
C324   C     0.62875   0.37634   0.41781   0.00000  Uiso   1.00
C325   C     0.76592   0.37055   0.41458   0.00000  Uiso   1.00
C326   C     0.83966   0.41960   0.40768   0.00000  Uiso   1.00
C327   C     0.00349   0.48606   0.39657   0.00000  Uiso   1.00
C328   C     0.44855   0.34273   0.47876   0.00000  Uiso   1.00
C329   C     0.43419   0.30866   0.52678   0.00000  Uiso   1.00
C330   C     0.35621   0.32941   0.57118   0.00000  Uiso   1.00
C331   C     0.24019   0.34366   0.65468   0.00000  Uiso   1.00
C332   C     0.43304   0.33277   0.37495   0.00000  Uiso   1.00
C333   C     0.40562   0.29032   0.33570   0.00000  Uiso   1.00
C334   C     0.31455   0.30268   0.29271   0.00000  Uiso   1.00
C335   C     0.17446   0.30146   0.21504   0.00000  Uiso   1.00
C336   C     0.41626   0.42577   0.41880   0.00000  Uiso   1.00
C337   C     0.56737   0.42925   0.41426   0.00000  Uiso   1.00
C338   C     0.64092   0.47832   0.40736   0.00000  Uiso   1.00
C339   C     0.77818   0.47260   0.40412   0.00000  Uiso   1.00
C340   C     0.38717   0.39563   0.47521   0.00000  Uiso   1.00
C341   C     0.30919   0.41644   0.51955   0.00000  Uiso   1.00
C342   C     0.29473   0.38241   0.56763   0.00000  Uiso   1.00
C343   C     0.37167   0.38568   0.37141   0.00000  Uiso   1.00
C344   C     0.28062   0.39810   0.32848   0.00000  Uiso   1.00
C345   C     0.25307   0.35568   0.28916   0.00000  Uiso   1.00
H346   H     0.57703   0.28717   0.42809   0.00000  Uiso   1.00
H347   H     0.81338   0.32960   0.41733   0.00000  Uiso   1.00
H348   H     0.48169   0.26771   0.52951   0.00000  Uiso   1.00
H349   H     0.45313   0.24938   0.33846   0.00000  Uiso   1.00
H350   H     0.04836   0.39997   0.40386   0.00000  Uiso   1.00
H351   H     0.34893   0.26948   0.64037   0.00000  Uiso   1.00
H352   H     0.28870   0.23082   0.23752   0.00000  Uiso   1.00
H353   H     0.36848   0.46697   0.41604   0.00000  Uiso   1.00
H354   H     0.59340   0.51926   0.40462   0.00000  Uiso   1.00
H355   H     0.26170   0.45738   0.51679   0.00000  Uiso   1.00
H356   H     0.23314   0.43905   0.32574   0.00000  Uiso   1.00
H357   H     0.86981   0.55391   0.39354   0.00000  Uiso   1.00
H358   H     0.17038   0.42342   0.63006   0.00000  Uiso   1.00
H359   H     0.11015   0.38476   0.22720   0.00000  Uiso   1.00
O360   O     0.11081   0.50810   0.39143   0.00000  Uiso   1.00
O361   O     0.19317   0.33690   0.70171   0.00000  Uiso   1.00
O362   O     0.11415   0.28618   0.17318   0.00000  Uiso   1.00
N363   N     0.97547   0.42902   0.40299   0.00000  Uiso   1.00
N364   N     0.32157   0.30703   0.62412   0.00000  Uiso   1.00
N365   N     0.26523   0.27088   0.24749   0.00000  Uiso   1.00
N366   N     0.87939   0.51186   0.39744   0.00000  Uiso   1.00
N367   N     0.22549   0.38986   0.61857   0.00000  Uiso   1.00
N368   N     0.16915   0.35371   0.24194   0.00000  Uiso   1.00
