data_job_06035
_audit_creation_date              2018-12-19
_audit_creation_method            'Materials Studio'
_symmetry_space_group_name_H-M    'P1'
_symmetry_Int_Tables_number       1
_symmetry_cell_setting            triclinic
loop_
_symmetry_equiv_pos_as_xyz
  x,y,z
_cell_length_a                    16.8462
_cell_length_b                    16.2606
_cell_length_c                    16.0601
_cell_angle_alpha                 100.6710
_cell_angle_beta                  100.0000
_cell_angle_gamma                 100.3580
loop_
_atom_site_label
_atom_site_type_symbol
_atom_site_fract_x
_atom_site_fract_y
_atom_site_fract_z
_atom_site_U_iso_or_equiv
_atom_site_adp_type
_atom_site_occupancy
C1     C     0.97393   0.41583   0.26762   0.00000  Uiso   1.00
C2     C     0.94510   0.49849   0.26080   0.00000  Uiso   1.00
C3     C     0.86859   0.51405   0.27086   0.00000  Uiso   1.00
C4     C     0.85411   0.59375   0.26214   0.00000  Uiso   1.00
C5     C     0.80022   0.71268   0.25426   0.00000  Uiso   1.00
C6     C     0.99868   0.38520   0.18218   0.00000  Uiso   1.00
C7     C     0.96723   0.30549   0.12613   0.00000  Uiso   1.00
C8     C     0.99786   0.28982   0.05123   0.00000  Uiso   1.00
C9     C     0.02720   0.23283   0.92132   0.00000  Uiso   1.00
C10    C     0.05363   0.44183   0.33702   0.00000  Uiso   1.00
C11    C     0.06838   0.40972   0.41116   0.00000  Uiso   1.00
C12    C     0.14529   0.44172   0.46662   0.00000  Uiso   1.00
C13    C     0.25993   0.47267   0.57713   0.00000  Uiso   1.00
C14    C     0.08429   0.52971   0.23427   0.00000  Uiso   1.00
C15    C     0.00505   0.56034   0.24268   0.00000  Uiso   1.00
C16    C     0.99069   0.64004   0.23395   0.00000  Uiso   1.00
C17    C     0.91416   0.65572   0.24399   0.00000  Uiso   1.00
C18    C     0.05862   0.44705   0.16406   0.00000  Uiso   1.00
C19    C     0.08932   0.43149   0.08923   0.00000  Uiso   1.00
C20    C     0.05792   0.35178   0.03308   0.00000  Uiso   1.00
C21    C     0.11357   0.50369   0.31891   0.00000  Uiso   1.00
C22    C     0.19047   0.53573   0.37426   0.00000  Uiso   1.00
C23    C     0.20534   0.50369   0.44847   0.00000  Uiso   1.00
H24    H     0.92726   0.36766   0.28172   0.00000  Uiso   1.00
H25    H     0.82221   0.46616   0.28487   0.00000  Uiso   1.00
H26    H     0.92085   0.25763   0.14017   0.00000  Uiso   1.00
H27    H     0.02198   0.36186   0.42516   0.00000  Uiso   1.00
H28    H     0.73217   0.60262   0.28033   0.00000  Uiso   1.00
H29    H     0.94016   0.16293   0.97525   0.00000  Uiso   1.00
H30    H     0.15342   0.38270   0.57620   0.00000  Uiso   1.00
H31    H     0.13096   0.57786   0.22016   0.00000  Uiso   1.00
H32    H     0.03708   0.68790   0.21993   0.00000  Uiso   1.00
H33    H     0.13571   0.47937   0.07523   0.00000  Uiso   1.00
H34    H     0.23684   0.58360   0.36022   0.00000  Uiso   1.00
H35    H     0.90656   0.78259   0.22762   0.00000  Uiso   1.00
H36    H     0.11455   0.34289   0.92254   0.00000  Uiso   1.00
H37    H     0.32781   0.56267   0.52349   0.00000  Uiso   1.00
O38    O     0.75393   0.76119   0.25491   0.00000  Uiso   1.00
O39    O     0.02681   0.18432   0.85466   0.00000  Uiso   1.00
O40    O     0.30660   0.47266   0.64309   0.00000  Uiso   1.00
N41    N     0.78610   0.62989   0.26798   0.00000  Uiso   1.00
N42    N     0.98055   0.21880   0.98273   0.00000  Uiso   1.00
N43    N     0.17994   0.42425   0.54456   0.00000  Uiso   1.00
N44    N     0.87994   0.72673   0.23962   0.00000  Uiso   1.00
N45    N     0.07439   0.31564   0.95437   0.00000  Uiso   1.00
N46    N     0.27378   0.52110   0.51620   0.00000  Uiso   1.00
C47    C     0.26249   0.96940   0.41328   0.00000  Uiso   1.00
C48    C     0.25570   0.93945   0.49682   0.00000  Uiso   1.00
C49    C     0.26395   0.85967   0.51160   0.00000  Uiso   1.00
C50    C     0.25560   0.84468   0.59232   0.00000  Uiso   1.00
C51    C     0.24745   0.78864   0.71234   0.00000  Uiso   1.00
C52    C     0.18183   0.99623   0.38397   0.00000  Uiso   1.00
C53    C     0.12798   0.96420   0.30386   0.00000  Uiso   1.00
C54    C     0.05745   0.99702   0.28957   0.00000  Uiso   1.00
C55    C     0.93464   0.02917   0.23437   0.00000  Uiso   1.00
C56    C     0.32973   0.05150   0.43928   0.00000  Uiso   1.00
C57    C     0.40022   0.06596   0.40567   0.00000  Uiso   1.00
C58    C     0.45420   0.14533   0.43794   0.00000  Uiso   1.00
C59    C     0.56104   0.26330   0.46862   0.00000  Uiso   1.00
C60    C     0.23301   0.08465   0.53034   0.00000  Uiso   1.00
C61    C     0.23968   0.00205   0.56040   0.00000  Uiso   1.00
C62    C     0.23132   0.98718   0.64112   0.00000  Uiso   1.00
C63    C     0.23956   0.90739   0.65602   0.00000  Uiso   1.00
C64    C     0.16581   0.05883   0.44755   0.00000  Uiso   1.00
C65    C     0.09535   0.09171   0.43337   0.00000  Uiso   1.00
C66    C     0.04140   0.05973   0.35327   0.00000  Uiso   1.00
C67    C     0.31372   0.11411   0.50287   0.00000  Uiso   1.00
C68    C     0.36760   0.19347   0.53519   0.00000  Uiso   1.00
C69    C     0.43816   0.20804   0.50164   0.00000  Uiso   1.00
H70    H     0.27496   0.92067   0.36378   0.00000  Uiso   1.00
H71    H     0.27633   0.81124   0.46237   0.00000  Uiso   1.00
H72    H     0.14039   0.91576   0.25466   0.00000  Uiso   1.00
H73    H     0.41259   0.01750   0.35646   0.00000  Uiso   1.00
H74    H     0.27076   0.71751   0.59972   0.00000  Uiso   1.00
H75    H     0.98413   0.93792   0.16174   0.00000  Uiso   1.00
H76    H     0.55813   0.15247   0.37640   0.00000  Uiso   1.00
H77    H     0.22054   0.13339   0.57985   0.00000  Uiso   1.00
H78    H     0.21893   0.03564   0.69031   0.00000  Uiso   1.00
H79    H     0.08298   0.14015   0.48259   0.00000  Uiso   1.00
H80    H     0.35519   0.24190   0.58439   0.00000  Uiso   1.00
H81    H     0.22417   0.89964   0.78472   0.00000  Uiso   1.00
H82    H     0.93754   0.12005   0.34673   0.00000  Uiso   1.00
H83    H     0.51153   0.33460   0.56140   0.00000  Uiso   1.00
O84    O     0.24736   0.74042   0.76097   0.00000  Uiso   1.00
O85    O     0.87133   0.02960   0.18635   0.00000  Uiso   1.00
O86    O     0.62439   0.31108   0.46798   0.00000  Uiso   1.00
N87    N     0.26004   0.77380   0.62811   0.00000  Uiso   1.00
N88    N     0.99205   0.97985   0.21862   0.00000  Uiso   1.00
N89    N     0.52867   0.18045   0.41930   0.00000  Uiso   1.00
N90    N     0.23497   0.87180   0.72765   0.00000  Uiso   1.00
N91    N     0.96698   0.07786   0.31817   0.00000  Uiso   1.00
N92    N     0.50360   0.27845   0.51884   0.00000  Uiso   1.00
C93    C     0.41610   0.26557   0.96951   0.00000  Uiso   1.00
C94    C     0.49513   0.25749   0.93769   0.00000  Uiso   1.00
C95    C     0.50912   0.26591   0.85672   0.00000  Uiso   1.00
C96    C     0.58549   0.25624   0.84009   0.00000  Uiso   1.00
C97    C     0.69904   0.24630   0.78121   0.00000  Uiso   1.00
C98    C     0.38696   0.18195   0.99633   0.00000  Uiso   1.00
C99    C     0.31001   0.12688   0.96468   0.00000  Uiso   1.00
C100   C     0.29531   0.05363   0.99742   0.00000  Uiso   1.00
C101   C     0.24091   0.92646   0.02963   0.00000  Uiso   1.00
C102   C     0.44208   0.33522   0.05293   0.00000  Uiso   1.00
C103   C     0.41146   0.40900   0.06888   0.00000  Uiso   1.00
C104   C     0.44316   0.46478   0.14929   0.00000  Uiso   1.00
C105   C     0.47434   0.57557   0.26937   0.00000  Uiso   1.00
C106   C     0.52684   0.23340   0.08395   0.00000  Uiso   1.00
C107   C     0.55528   0.24001   0.99985   0.00000  Uiso   1.00
C108   C     0.63164   0.23032   0.98333   0.00000  Uiso   1.00
C109   C     0.64575   0.23873   0.90236   0.00000  Uiso   1.00
C110   C     0.44711   0.16448   0.05848   0.00000  Uiso   1.00
C111   C     0.43252   0.09129   0.09129   0.00000  Uiso   1.00
C112   C     0.35557   0.03612   0.05969   0.00000  Uiso   1.00
C113   C     0.50223   0.31774   0.11509   0.00000  Uiso   1.00
C114   C     0.53398   0.37341   0.19549   0.00000  Uiso   1.00
C115   C     0.50341   0.44727   0.21156   0.00000  Uiso   1.00
H116   H     0.36927   0.27917   0.92112   0.00000  Uiso   1.00
H117   H     0.46256   0.27943   0.80864   0.00000  Uiso   1.00
H118   H     0.26347   0.14043   0.91658   0.00000  Uiso   1.00
H119   H     0.36491   0.42250   0.02077   0.00000  Uiso   1.00
H120   H     0.59250   0.27198   0.71133   0.00000  Uiso   1.00
H121   H     0.17270   0.97890   0.93896   0.00000  Uiso   1.00
H122   H     0.38661   0.57371   0.15865   0.00000  Uiso   1.00
H123   H     0.57366   0.21979   0.13234   0.00000  Uiso   1.00
H124   H     0.67818   0.21680   0.03145   0.00000  Uiso   1.00
H125   H     0.47908   0.07780   0.13939   0.00000  Uiso   1.00
H126   H     0.58053   0.35987   0.24357   0.00000  Uiso   1.00
H127   H     0.76750   0.22114   0.89217   0.00000  Uiso   1.00
H128   H     0.34770   0.92806   0.11980   0.00000  Uiso   1.00
H129   H     0.56161   0.52288   0.33949   0.00000  Uiso   1.00
O130   O     0.74505   0.24563   0.73156   0.00000  Uiso   1.00
O131   O     0.19429   0.86114   0.03021   0.00000  Uiso   1.00
O132   O     0.47493   0.64151   0.31843   0.00000  Uiso   1.00
N133   N     0.61935   0.26044   0.76774   0.00000  Uiso   1.00
N134   N     0.22687   0.98642   0.98055   0.00000  Uiso   1.00
N135   N     0.42684   0.54251   0.18595   0.00000  Uiso   1.00
N136   N     0.71352   0.23309   0.86505   0.00000  Uiso   1.00
N137   N     0.32104   0.95907   0.07786   0.00000  Uiso   1.00
N138   N     0.52100   0.51516   0.28326   0.00000  Uiso   1.00
C139   C     0.02607   0.58417   0.73238   0.00000  Uiso   1.00
C140   C     0.05490   0.50151   0.73920   0.00000  Uiso   1.00
C141   C     0.13141   0.48595   0.72914   0.00000  Uiso   1.00
C142   C     0.14589   0.40625   0.73786   0.00000  Uiso   1.00
C143   C     0.19978   0.28732   0.74574   0.00000  Uiso   1.00
C144   C     0.00132   0.61480   0.81782   0.00000  Uiso   1.00
C145   C     0.03277   0.69451   0.87387   0.00000  Uiso   1.00
C146   C     0.00214   0.71018   0.94877   0.00000  Uiso   1.00
C147   C     0.97280   0.76717   0.07868   0.00000  Uiso   1.00
C148   C     0.94637   0.55817   0.66298   0.00000  Uiso   1.00
C149   C     0.93162   0.59027   0.58884   0.00000  Uiso   1.00
C150   C     0.85471   0.55828   0.53338   0.00000  Uiso   1.00
C151   C     0.74007   0.52733   0.42287   0.00000  Uiso   1.00
C152   C     0.91571   0.47029   0.76573   0.00000  Uiso   1.00
C153   C     0.99495   0.43966   0.75732   0.00000  Uiso   1.00
C154   C     0.00931   0.35996   0.76605   0.00000  Uiso   1.00
C155   C     0.08584   0.34428   0.75601   0.00000  Uiso   1.00
C156   C     0.94138   0.55295   0.83594   0.00000  Uiso   1.00
C157   C     0.91068   0.56851   0.91077   0.00000  Uiso   1.00
C158   C     0.94208   0.64822   0.96692   0.00000  Uiso   1.00
C159   C     0.88643   0.49631   0.68109   0.00000  Uiso   1.00
C160   C     0.80953   0.46427   0.62574   0.00000  Uiso   1.00
C161   C     0.79466   0.49631   0.55153   0.00000  Uiso   1.00
H162   H     0.07274   0.63233   0.71828   0.00000  Uiso   1.00
H163   H     0.17779   0.53384   0.71513   0.00000  Uiso   1.00
H164   H     0.07915   0.74237   0.85983   0.00000  Uiso   1.00
H165   H     0.97802   0.63814   0.57484   0.00000  Uiso   1.00
H166   H     0.26783   0.39738   0.71967   0.00000  Uiso   1.00
H167   H     0.05984   0.83707   0.02475   0.00000  Uiso   1.00
H168   H     0.84658   0.61730   0.42380   0.00000  Uiso   1.00
H169   H     0.86904   0.42214   0.77984   0.00000  Uiso   1.00
H170   H     0.96292   0.31210   0.78007   0.00000  Uiso   1.00
H171   H     0.86429   0.52063   0.92477   0.00000  Uiso   1.00
H172   H     0.76316   0.41640   0.63978   0.00000  Uiso   1.00
H173   H     0.09344   0.21741   0.77238   0.00000  Uiso   1.00
H174   H     0.88545   0.65711   0.07746   0.00000  Uiso   1.00
H175   H     0.67219   0.43733   0.47651   0.00000  Uiso   1.00
O176   O     0.24607   0.23881   0.74509   0.00000  Uiso   1.00
O177   O     0.97319   0.81568   0.14534   0.00000  Uiso   1.00
O178   O     0.69340   0.52734   0.35691   0.00000  Uiso   1.00
N179   N     0.21390   0.37011   0.73202   0.00000  Uiso   1.00
N180   N     0.01945   0.78120   0.01727   0.00000  Uiso   1.00
N181   N     0.82006   0.57575   0.45544   0.00000  Uiso   1.00
N182   N     0.12006   0.27327   0.76038   0.00000  Uiso   1.00
N183   N     0.92561   0.68436   0.04563   0.00000  Uiso   1.00
N184   N     0.72622   0.47890   0.48380   0.00000  Uiso   1.00
C185   C     0.73751   0.03060   0.58672   0.00000  Uiso   1.00
C186   C     0.74430   0.06055   0.50318   0.00000  Uiso   1.00
C187   C     0.73605   0.14033   0.48840   0.00000  Uiso   1.00
C188   C     0.74440   0.15532   0.40768   0.00000  Uiso   1.00
C189   C     0.75255   0.21136   0.28766   0.00000  Uiso   1.00
C190   C     0.81817   0.00377   0.61603   0.00000  Uiso   1.00
C191   C     0.87202   0.03580   0.69614   0.00000  Uiso   1.00
C192   C     0.94255   0.00298   0.71043   0.00000  Uiso   1.00
C193   C     0.06536   0.97083   0.76563   0.00000  Uiso   1.00
C194   C     0.67027   0.94850   0.56072   0.00000  Uiso   1.00
C195   C     0.59978   0.93404   0.59433   0.00000  Uiso   1.00
C196   C     0.54579   0.85467   0.56206   0.00000  Uiso   1.00
C197   C     0.43896   0.73670   0.53138   0.00000  Uiso   1.00
C198   C     0.76699   0.91535   0.46966   0.00000  Uiso   1.00
C199   C     0.76032   0.99795   0.43960   0.00000  Uiso   1.00
C200   C     0.76868   0.01282   0.35888   0.00000  Uiso   1.00
C201   C     0.76044   0.09261   0.34398   0.00000  Uiso   1.00
C202   C     0.83418   0.94117   0.55245   0.00000  Uiso   1.00
C203   C     0.90465   0.90829   0.56663   0.00000  Uiso   1.00
C204   C     0.95860   0.94027   0.64673   0.00000  Uiso   1.00
C205   C     0.68628   0.88589   0.49713   0.00000  Uiso   1.00
C206   C     0.63240   0.80653   0.46481   0.00000  Uiso   1.00
C207   C     0.56184   0.79196   0.49836   0.00000  Uiso   1.00
H208   H     0.72504   0.07933   0.63622   0.00000  Uiso   1.00
H209   H     0.72367   0.18876   0.53763   0.00000  Uiso   1.00
H210   H     0.85961   0.08424   0.74534   0.00000  Uiso   1.00
H211   H     0.58741   0.98250   0.64354   0.00000  Uiso   1.00
H212   H     0.72923   0.28249   0.40028   0.00000  Uiso   1.00
H213   H     0.01587   0.06208   0.83826   0.00000  Uiso   1.00
H214   H     0.44187   0.84753   0.62360   0.00000  Uiso   1.00
H215   H     0.77946   0.86661   0.42015   0.00000  Uiso   1.00
H216   H     0.78107   0.96436   0.30969   0.00000  Uiso   1.00
H217   H     0.91702   0.85985   0.51741   0.00000  Uiso   1.00
H218   H     0.64481   0.75810   0.41561   0.00000  Uiso   1.00
H219   H     0.77583   0.10036   0.21528   0.00000  Uiso   1.00
H220   H     0.06246   0.87995   0.65327   0.00000  Uiso   1.00
H221   H     0.48847   0.66540   0.43860   0.00000  Uiso   1.00
O222   O     0.75264   0.25958   0.23903   0.00000  Uiso   1.00
O223   O     0.12867   0.97040   0.81365   0.00000  Uiso   1.00
O224   O     0.37561   0.68892   0.53202   0.00000  Uiso   1.00
N225   N     0.73996   0.22620   0.37189   0.00000  Uiso   1.00
N226   N     0.00795   0.02015   0.78138   0.00000  Uiso   1.00
N227   N     0.47133   0.81955   0.58070   0.00000  Uiso   1.00
N228   N     0.76503   0.12820   0.27235   0.00000  Uiso   1.00
N229   N     0.03302   0.92214   0.68183   0.00000  Uiso   1.00
N230   N     0.49640   0.72155   0.48116   0.00000  Uiso   1.00
C231   C     0.58390   0.73443   0.03049   0.00000  Uiso   1.00
C232   C     0.50487   0.74251   0.06231   0.00000  Uiso   1.00
C233   C     0.49088   0.73409   0.14328   0.00000  Uiso   1.00
C234   C     0.41451   0.74376   0.15991   0.00000  Uiso   1.00
C235   C     0.30096   0.75370   0.21879   0.00000  Uiso   1.00
C236   C     0.61304   0.81805   0.00367   0.00000  Uiso   1.00
C237   C     0.68999   0.87312   0.03532   0.00000  Uiso   1.00
C238   C     0.70469   0.94637   0.00258   0.00000  Uiso   1.00
C239   C     0.75909   0.07354   0.97037   0.00000  Uiso   1.00
C240   C     0.55791   0.66478   0.94707   0.00000  Uiso   1.00
C241   C     0.58854   0.59100   0.93112   0.00000  Uiso   1.00
C242   C     0.55684   0.53522   0.85071   0.00000  Uiso   1.00
C243   C     0.52566   0.42443   0.73063   0.00000  Uiso   1.00
C244   C     0.47316   0.76660   0.91605   0.00000  Uiso   1.00
C245   C     0.44472   0.75999   0.00015   0.00000  Uiso   1.00
C246   C     0.36836   0.76968   0.01667   0.00000  Uiso   1.00
C247   C     0.35425   0.76126   0.09764   0.00000  Uiso   1.00
C248   C     0.55289   0.83552   0.94152   0.00000  Uiso   1.00
C249   C     0.56748   0.90871   0.90871   0.00000  Uiso   1.00
C250   C     0.64443   0.96388   0.94031   0.00000  Uiso   1.00
C251   C     0.49777   0.68225   0.88491   0.00000  Uiso   1.00
C252   C     0.46602   0.62659   0.80451   0.00000  Uiso   1.00
C253   C     0.49659   0.55273   0.78844   0.00000  Uiso   1.00
H254   H     0.63073   0.72083   0.07888   0.00000  Uiso   1.00
H255   H     0.53744   0.72057   0.19136   0.00000  Uiso   1.00
H256   H     0.73653   0.85957   0.08342   0.00000  Uiso   1.00
H257   H     0.63509   0.57750   0.97923   0.00000  Uiso   1.00
H258   H     0.40750   0.72802   0.28867   0.00000  Uiso   1.00
H259   H     0.82730   0.02110   0.06104   0.00000  Uiso   1.00
H260   H     0.61339   0.42629   0.84135   0.00000  Uiso   1.00
H261   H     0.42634   0.78020   0.86766   0.00000  Uiso   1.00
H262   H     0.32182   0.78320   0.96855   0.00000  Uiso   1.00
H263   H     0.52092   0.92220   0.86061   0.00000  Uiso   1.00
H264   H     0.41947   0.64013   0.75643   0.00000  Uiso   1.00
H265   H     0.23250   0.77886   0.10783   0.00000  Uiso   1.00
H266   H     0.65230   0.07194   0.88020   0.00000  Uiso   1.00
H267   H     0.43839   0.47712   0.66051   0.00000  Uiso   1.00
O268   O     0.25495   0.75437   0.26844   0.00000  Uiso   1.00
O269   O     0.80571   0.13886   0.96979   0.00000  Uiso   1.00
O270   O     0.52507   0.35849   0.68156   0.00000  Uiso   1.00
N271   N     0.38065   0.73956   0.23226   0.00000  Uiso   1.00
N272   N     0.77313   0.01358   0.01945   0.00000  Uiso   1.00
N273   N     0.57316   0.45749   0.81405   0.00000  Uiso   1.00
N274   N     0.28648   0.76691   0.13495   0.00000  Uiso   1.00
N275   N     0.67896   0.04093   0.92214   0.00000  Uiso   1.00
N276   N     0.47899   0.48484   0.71674   0.00000  Uiso   1.00
