data_job_05507
_audit_creation_date              2018-12-19
_audit_creation_method            'Materials Studio'
_symmetry_space_group_name_H-M    'P1'
_symmetry_Int_Tables_number       1
_symmetry_cell_setting            triclinic
loop_
_symmetry_equiv_pos_as_xyz
  x,y,z
_cell_length_a                    11.8107
_cell_length_b                    20.5540
_cell_length_c                    24.3541
_cell_angle_alpha                 90.0000
_cell_angle_beta                  90.0000
_cell_angle_gamma                 90.0000
loop_
_atom_site_label
_atom_site_type_symbol
_atom_site_fract_x
_atom_site_fract_y
_atom_site_fract_z
_atom_site_U_iso_or_equiv
_atom_site_adp_type
_atom_site_occupancy
C1     C     0.41201   0.12949   0.64916   0.00000  Uiso   1.00
C2     C     0.40898   0.05635   0.65957   0.00000  Uiso   1.00
C3     C     0.37435   0.02647   0.70783   0.00000  Uiso   1.00
C4     C     0.37783   0.95897   0.70919   0.00000  Uiso   1.00
C5     C     0.36757   0.85092   0.73225   0.00000  Uiso   1.00
C6     C     0.53347   0.14531   0.63265   0.00000  Uiso   1.00
C7     C     0.60351   0.19024   0.65827   0.00000  Uiso   1.00
C8     C     0.71179   0.19763   0.63696   0.00000  Uiso   1.00
C9     C     0.89478   0.22773   0.61821   0.00000  Uiso   1.00
C10    C     0.34003   0.14107   0.59811   0.00000  Uiso   1.00
C11    C     0.24743   0.18244   0.59469   0.00000  Uiso   1.00
C12    C     0.19285   0.18627   0.54429   0.00000  Uiso   1.00
C13    C     0.07550   0.20979   0.47191   0.00000  Uiso   1.00
C14    C     0.47977   0.06275   0.56576   0.00000  Uiso   1.00
C15    C     0.44578   0.02010   0.61427   0.00000  Uiso   1.00
C16    C     0.44931   0.95263   0.61556   0.00000  Uiso   1.00
C17    C     0.41469   0.92265   0.66381   0.00000  Uiso   1.00
C18    C     0.57028   0.10907   0.58735   0.00000  Uiso   1.00
C19    C     0.67847   0.11640   0.56600   0.00000  Uiso   1.00
C20    C     0.74866   0.16132   0.59158   0.00000  Uiso   1.00
C21    C     0.37683   0.10482   0.55281   0.00000  Uiso   1.00
C22    C     0.32239   0.10860   0.50241   0.00000  Uiso   1.00
C23    C     0.22972   0.14996   0.49891   0.00000  Uiso   1.00
H24    H     0.38337   0.15771   0.68443   0.00000  Uiso   1.00
H25    H     0.34588   0.05454   0.74288   0.00000  Uiso   1.00
H26    H     0.57500   0.21828   0.69333   0.00000  Uiso   1.00
H27    H     0.21898   0.21048   0.62975   0.00000  Uiso   1.00
H28    H     0.32060   0.92416   0.78771   0.00000  Uiso   1.00
H29    H     0.80369   0.26945   0.68321   0.00000  Uiso   1.00
H30    H     0.05294   0.25300   0.54915   0.00000  Uiso   1.00
H31    H     0.50842   0.03453   0.53049   0.00000  Uiso   1.00
H32    H     0.47780   0.92459   0.58049   0.00000  Uiso   1.00
H33    H     0.70692   0.08834   0.53094   0.00000  Uiso   1.00
H34    H     0.35089   0.08054   0.46736   0.00000  Uiso   1.00
H35    H     0.42767   0.81870   0.65591   0.00000  Uiso   1.00
H36    H     0.91077   0.16399   0.55141   0.00000  Uiso   1.00
H37    H     0.16001   0.14754   0.41735   0.00000  Uiso   1.00
O38    O     0.35177   0.80133   0.75749   0.00000  Uiso   1.00
O39    O     0.98556   0.25434   0.62038   0.00000  Uiso   1.00
O40    O     0.00059   0.23276   0.44450   0.00000  Uiso   1.00
N41    N     0.34998   0.91443   0.74983   0.00000  Uiso   1.00
N42    N     0.80165   0.23724   0.65213   0.00000  Uiso   1.00
N43    N     0.09978   0.22188   0.52679   0.00000  Uiso   1.00
N44    N     0.40759   0.85768   0.67891   0.00000  Uiso   1.00
N45    N     0.85926   0.18049   0.58121   0.00000  Uiso   1.00
N46    N     0.15739   0.16513   0.45587   0.00000  Uiso   1.00
C47    C     0.08799   0.37051   0.14916   0.00000  Uiso   1.00
C48    C     0.09102   0.44365   0.15957   0.00000  Uiso   1.00
C49    C     0.12565   0.47353   0.20783   0.00000  Uiso   1.00
C50    C     0.12217   0.54103   0.20919   0.00000  Uiso   1.00
C51    C     0.13243   0.64908   0.23225   0.00000  Uiso   1.00
C52    C     0.96653   0.35469   0.13265   0.00000  Uiso   1.00
C53    C     0.89649   0.30976   0.15827   0.00000  Uiso   1.00
C54    C     0.78821   0.30237   0.13696   0.00000  Uiso   1.00
C55    C     0.60522   0.27227   0.11821   0.00000  Uiso   1.00
C56    C     0.15997   0.35893   0.09811   0.00000  Uiso   1.00
C57    C     0.25257   0.31756   0.09469   0.00000  Uiso   1.00
C58    C     0.30715   0.31373   0.04429   0.00000  Uiso   1.00
C59    C     0.42450   0.29021   0.97191   0.00000  Uiso   1.00
C60    C     0.02023   0.43725   0.06576   0.00000  Uiso   1.00
C61    C     0.05422   0.47990   0.11427   0.00000  Uiso   1.00
C62    C     0.05069   0.54737   0.11556   0.00000  Uiso   1.00
C63    C     0.08531   0.57735   0.16381   0.00000  Uiso   1.00
C64    C     0.92972   0.39093   0.08735   0.00000  Uiso   1.00
C65    C     0.82153   0.38360   0.06600   0.00000  Uiso   1.00
C66    C     0.75134   0.33868   0.09158   0.00000  Uiso   1.00
C67    C     0.12317   0.39518   0.05281   0.00000  Uiso   1.00
C68    C     0.17761   0.39140   0.00241   0.00000  Uiso   1.00
C69    C     0.27028   0.35004   0.99891   0.00000  Uiso   1.00
H70    H     0.11663   0.34229   0.18443   0.00000  Uiso   1.00
H71    H     0.15412   0.44546   0.24288   0.00000  Uiso   1.00
H72    H     0.92500   0.28172   0.19333   0.00000  Uiso   1.00
H73    H     0.28102   0.28952   0.12975   0.00000  Uiso   1.00
H74    H     0.17940   0.57584   0.28771   0.00000  Uiso   1.00
H75    H     0.69631   0.23055   0.18321   0.00000  Uiso   1.00
H76    H     0.44706   0.24700   0.04915   0.00000  Uiso   1.00
H77    H     0.99158   0.46547   0.03049   0.00000  Uiso   1.00
H78    H     0.02220   0.57541   0.08049   0.00000  Uiso   1.00
H79    H     0.79308   0.41166   0.03094   0.00000  Uiso   1.00
H80    H     0.14911   0.41946   0.96736   0.00000  Uiso   1.00
H81    H     0.07233   0.68130   0.15591   0.00000  Uiso   1.00
H82    H     0.58923   0.33601   0.05141   0.00000  Uiso   1.00
H83    H     0.33999   0.35246   0.91735   0.00000  Uiso   1.00
O84    O     0.14823   0.69867   0.25749   0.00000  Uiso   1.00
O85    O     0.51444   0.24566   0.12038   0.00000  Uiso   1.00
O86    O     0.49941   0.26724   0.94450   0.00000  Uiso   1.00
N87    N     0.15002   0.58557   0.24983   0.00000  Uiso   1.00
N88    N     0.69835   0.26276   0.15213   0.00000  Uiso   1.00
N89    N     0.40022   0.27812   0.02679   0.00000  Uiso   1.00
N90    N     0.09241   0.64232   0.17891   0.00000  Uiso   1.00
N91    N     0.64074   0.31951   0.08121   0.00000  Uiso   1.00
N92    N     0.34261   0.33487   0.95587   0.00000  Uiso   1.00
C93    C     0.58799   0.12949   0.85084   0.00000  Uiso   1.00
C94    C     0.59102   0.05635   0.84043   0.00000  Uiso   1.00
C95    C     0.62565   0.02647   0.79217   0.00000  Uiso   1.00
C96    C     0.62217   0.95897   0.79081   0.00000  Uiso   1.00
C97    C     0.63243   0.85092   0.76775   0.00000  Uiso   1.00
C98    C     0.46653   0.14531   0.86735   0.00000  Uiso   1.00
C99    C     0.39649   0.19024   0.84173   0.00000  Uiso   1.00
C100   C     0.28821   0.19763   0.86304   0.00000  Uiso   1.00
C101   C     0.10522   0.22773   0.88179   0.00000  Uiso   1.00
C102   C     0.65997   0.14107   0.90189   0.00000  Uiso   1.00
C103   C     0.75257   0.18244   0.90531   0.00000  Uiso   1.00
C104   C     0.80715   0.18627   0.95571   0.00000  Uiso   1.00
C105   C     0.92450   0.20979   0.02809   0.00000  Uiso   1.00
C106   C     0.52023   0.06275   0.93424   0.00000  Uiso   1.00
C107   C     0.55422   0.02010   0.88573   0.00000  Uiso   1.00
C108   C     0.55069   0.95263   0.88444   0.00000  Uiso   1.00
C109   C     0.58531   0.92265   0.83619   0.00000  Uiso   1.00
C110   C     0.42972   0.10907   0.91265   0.00000  Uiso   1.00
C111   C     0.32153   0.11640   0.93400   0.00000  Uiso   1.00
C112   C     0.25134   0.16132   0.90842   0.00000  Uiso   1.00
C113   C     0.62317   0.10482   0.94719   0.00000  Uiso   1.00
C114   C     0.67761   0.10860   0.99759   0.00000  Uiso   1.00
C115   C     0.77028   0.14996   0.00109   0.00000  Uiso   1.00
H116   H     0.61663   0.15771   0.81557   0.00000  Uiso   1.00
H117   H     0.65412   0.05454   0.75712   0.00000  Uiso   1.00
H118   H     0.42500   0.21828   0.80667   0.00000  Uiso   1.00
H119   H     0.78102   0.21048   0.87025   0.00000  Uiso   1.00
H120   H     0.67940   0.92416   0.71229   0.00000  Uiso   1.00
H121   H     0.19631   0.26945   0.81679   0.00000  Uiso   1.00
H122   H     0.94706   0.25300   0.95085   0.00000  Uiso   1.00
H123   H     0.49158   0.03453   0.96951   0.00000  Uiso   1.00
H124   H     0.52220   0.92459   0.91951   0.00000  Uiso   1.00
H125   H     0.29308   0.08834   0.96906   0.00000  Uiso   1.00
H126   H     0.64911   0.08054   0.03264   0.00000  Uiso   1.00
H127   H     0.57233   0.81870   0.84409   0.00000  Uiso   1.00
H128   H     0.08923   0.16399   0.94859   0.00000  Uiso   1.00
H129   H     0.83999   0.14754   0.08265   0.00000  Uiso   1.00
O130   O     0.64823   0.80133   0.74251   0.00000  Uiso   1.00
O131   O     0.01444   0.25434   0.87962   0.00000  Uiso   1.00
O132   O     0.99941   0.23276   0.05550   0.00000  Uiso   1.00
N133   N     0.65002   0.91443   0.75017   0.00000  Uiso   1.00
N134   N     0.19835   0.23724   0.84787   0.00000  Uiso   1.00
N135   N     0.90022   0.22188   0.97321   0.00000  Uiso   1.00
N136   N     0.59241   0.85768   0.82109   0.00000  Uiso   1.00
N137   N     0.14074   0.18049   0.91879   0.00000  Uiso   1.00
N138   N     0.84261   0.16513   0.04413   0.00000  Uiso   1.00
C139   C     0.91201   0.37051   0.35084   0.00000  Uiso   1.00
C140   C     0.90898   0.44365   0.34043   0.00000  Uiso   1.00
C141   C     0.87435   0.47353   0.29217   0.00000  Uiso   1.00
C142   C     0.87783   0.54103   0.29081   0.00000  Uiso   1.00
C143   C     0.86757   0.64908   0.26775   0.00000  Uiso   1.00
C144   C     0.03347   0.35469   0.36735   0.00000  Uiso   1.00
C145   C     0.10351   0.30976   0.34173   0.00000  Uiso   1.00
C146   C     0.21179   0.30237   0.36304   0.00000  Uiso   1.00
C147   C     0.39478   0.27227   0.38179   0.00000  Uiso   1.00
C148   C     0.84003   0.35893   0.40189   0.00000  Uiso   1.00
C149   C     0.74743   0.31756   0.40531   0.00000  Uiso   1.00
C150   C     0.69285   0.31373   0.45571   0.00000  Uiso   1.00
C151   C     0.57550   0.29021   0.52809   0.00000  Uiso   1.00
C152   C     0.97977   0.43725   0.43424   0.00000  Uiso   1.00
C153   C     0.94578   0.47990   0.38573   0.00000  Uiso   1.00
C154   C     0.94931   0.54737   0.38444   0.00000  Uiso   1.00
C155   C     0.91469   0.57735   0.33619   0.00000  Uiso   1.00
C156   C     0.07028   0.39093   0.41265   0.00000  Uiso   1.00
C157   C     0.17847   0.38360   0.43400   0.00000  Uiso   1.00
C158   C     0.24866   0.33868   0.40842   0.00000  Uiso   1.00
C159   C     0.87683   0.39518   0.44719   0.00000  Uiso   1.00
C160   C     0.82239   0.39140   0.49759   0.00000  Uiso   1.00
C161   C     0.72972   0.35004   0.50109   0.00000  Uiso   1.00
H162   H     0.88337   0.34229   0.31557   0.00000  Uiso   1.00
H163   H     0.84588   0.44546   0.25712   0.00000  Uiso   1.00
H164   H     0.07500   0.28172   0.30667   0.00000  Uiso   1.00
H165   H     0.71898   0.28952   0.37025   0.00000  Uiso   1.00
H166   H     0.82060   0.57584   0.21229   0.00000  Uiso   1.00
H167   H     0.30369   0.23055   0.31679   0.00000  Uiso   1.00
H168   H     0.55294   0.24700   0.45085   0.00000  Uiso   1.00
H169   H     0.00842   0.46547   0.46951   0.00000  Uiso   1.00
H170   H     0.97780   0.57541   0.41951   0.00000  Uiso   1.00
H171   H     0.20692   0.41166   0.46906   0.00000  Uiso   1.00
H172   H     0.85089   0.41946   0.53264   0.00000  Uiso   1.00
H173   H     0.92767   0.68130   0.34409   0.00000  Uiso   1.00
H174   H     0.41077   0.33601   0.44859   0.00000  Uiso   1.00
H175   H     0.66001   0.35246   0.58265   0.00000  Uiso   1.00
O176   O     0.85177   0.69867   0.24251   0.00000  Uiso   1.00
O177   O     0.48556   0.24566   0.37962   0.00000  Uiso   1.00
O178   O     0.50059   0.26724   0.55550   0.00000  Uiso   1.00
N179   N     0.84998   0.58557   0.25017   0.00000  Uiso   1.00
N180   N     0.30165   0.26276   0.34787   0.00000  Uiso   1.00
N181   N     0.59978   0.27812   0.47321   0.00000  Uiso   1.00
N182   N     0.90759   0.64232   0.32109   0.00000  Uiso   1.00
N183   N     0.35926   0.31951   0.41879   0.00000  Uiso   1.00
N184   N     0.65739   0.33487   0.54413   0.00000  Uiso   1.00
C185   C     0.58799   0.87051   0.35084   0.00000  Uiso   1.00
C186   C     0.59102   0.94365   0.34043   0.00000  Uiso   1.00
C187   C     0.62565   0.97353   0.29217   0.00000  Uiso   1.00
C188   C     0.62217   0.04103   0.29081   0.00000  Uiso   1.00
C189   C     0.63243   0.14908   0.26775   0.00000  Uiso   1.00
C190   C     0.46653   0.85469   0.36735   0.00000  Uiso   1.00
C191   C     0.39649   0.80976   0.34173   0.00000  Uiso   1.00
C192   C     0.28821   0.80237   0.36304   0.00000  Uiso   1.00
C193   C     0.10522   0.77227   0.38179   0.00000  Uiso   1.00
C194   C     0.65997   0.85893   0.40189   0.00000  Uiso   1.00
C195   C     0.75257   0.81756   0.40531   0.00000  Uiso   1.00
C196   C     0.80715   0.81373   0.45571   0.00000  Uiso   1.00
C197   C     0.92450   0.79021   0.52809   0.00000  Uiso   1.00
C198   C     0.52023   0.93725   0.43424   0.00000  Uiso   1.00
C199   C     0.55422   0.97990   0.38573   0.00000  Uiso   1.00
C200   C     0.55069   0.04737   0.38444   0.00000  Uiso   1.00
C201   C     0.58531   0.07735   0.33619   0.00000  Uiso   1.00
C202   C     0.42972   0.89093   0.41265   0.00000  Uiso   1.00
C203   C     0.32153   0.88360   0.43400   0.00000  Uiso   1.00
C204   C     0.25134   0.83868   0.40842   0.00000  Uiso   1.00
C205   C     0.62317   0.89518   0.44719   0.00000  Uiso   1.00
C206   C     0.67761   0.89140   0.49759   0.00000  Uiso   1.00
C207   C     0.77028   0.85004   0.50109   0.00000  Uiso   1.00
H208   H     0.61663   0.84229   0.31557   0.00000  Uiso   1.00
H209   H     0.65412   0.94546   0.25712   0.00000  Uiso   1.00
H210   H     0.42500   0.78172   0.30667   0.00000  Uiso   1.00
H211   H     0.78102   0.78952   0.37025   0.00000  Uiso   1.00
H212   H     0.67940   0.07584   0.21229   0.00000  Uiso   1.00
H213   H     0.19631   0.73055   0.31679   0.00000  Uiso   1.00
H214   H     0.94706   0.74700   0.45085   0.00000  Uiso   1.00
H215   H     0.49158   0.96547   0.46951   0.00000  Uiso   1.00
H216   H     0.52220   0.07541   0.41951   0.00000  Uiso   1.00
H217   H     0.29308   0.91166   0.46906   0.00000  Uiso   1.00
H218   H     0.64911   0.91946   0.53264   0.00000  Uiso   1.00
H219   H     0.57233   0.18130   0.34409   0.00000  Uiso   1.00
H220   H     0.08923   0.83601   0.44859   0.00000  Uiso   1.00
H221   H     0.83999   0.85246   0.58265   0.00000  Uiso   1.00
O222   O     0.64823   0.19867   0.24251   0.00000  Uiso   1.00
O223   O     0.01444   0.74566   0.37962   0.00000  Uiso   1.00
O224   O     0.99941   0.76724   0.55550   0.00000  Uiso   1.00
N225   N     0.65002   0.08557   0.25017   0.00000  Uiso   1.00
N226   N     0.19835   0.76276   0.34787   0.00000  Uiso   1.00
N227   N     0.90022   0.77812   0.47321   0.00000  Uiso   1.00
N228   N     0.59241   0.14232   0.32109   0.00000  Uiso   1.00
N229   N     0.14074   0.81951   0.41879   0.00000  Uiso   1.00
N230   N     0.84261   0.83487   0.54413   0.00000  Uiso   1.00
C231   C     0.91201   0.62949   0.85084   0.00000  Uiso   1.00
C232   C     0.90898   0.55635   0.84043   0.00000  Uiso   1.00
C233   C     0.87435   0.52647   0.79217   0.00000  Uiso   1.00
C234   C     0.87783   0.45897   0.79081   0.00000  Uiso   1.00
C235   C     0.86757   0.35092   0.76775   0.00000  Uiso   1.00
C236   C     0.03347   0.64531   0.86735   0.00000  Uiso   1.00
C237   C     0.10351   0.69024   0.84173   0.00000  Uiso   1.00
C238   C     0.21179   0.69763   0.86304   0.00000  Uiso   1.00
C239   C     0.39478   0.72773   0.88179   0.00000  Uiso   1.00
C240   C     0.84003   0.64107   0.90189   0.00000  Uiso   1.00
C241   C     0.74743   0.68244   0.90531   0.00000  Uiso   1.00
C242   C     0.69285   0.68627   0.95571   0.00000  Uiso   1.00
C243   C     0.57550   0.70979   0.02809   0.00000  Uiso   1.00
C244   C     0.97977   0.56275   0.93424   0.00000  Uiso   1.00
C245   C     0.94578   0.52010   0.88573   0.00000  Uiso   1.00
C246   C     0.94931   0.45263   0.88444   0.00000  Uiso   1.00
C247   C     0.91469   0.42265   0.83619   0.00000  Uiso   1.00
C248   C     0.07028   0.60907   0.91265   0.00000  Uiso   1.00
C249   C     0.17847   0.61640   0.93400   0.00000  Uiso   1.00
C250   C     0.24866   0.66132   0.90842   0.00000  Uiso   1.00
C251   C     0.87683   0.60482   0.94719   0.00000  Uiso   1.00
C252   C     0.82239   0.60860   0.99759   0.00000  Uiso   1.00
C253   C     0.72972   0.64996   0.00109   0.00000  Uiso   1.00
H254   H     0.88337   0.65771   0.81557   0.00000  Uiso   1.00
H255   H     0.84588   0.55454   0.75712   0.00000  Uiso   1.00
H256   H     0.07500   0.71828   0.80667   0.00000  Uiso   1.00
H257   H     0.71898   0.71048   0.87025   0.00000  Uiso   1.00
H258   H     0.82060   0.42416   0.71229   0.00000  Uiso   1.00
H259   H     0.30369   0.76945   0.81679   0.00000  Uiso   1.00
H260   H     0.55294   0.75300   0.95085   0.00000  Uiso   1.00
H261   H     0.00842   0.53453   0.96951   0.00000  Uiso   1.00
H262   H     0.97780   0.42459   0.91951   0.00000  Uiso   1.00
H263   H     0.20692   0.58834   0.96906   0.00000  Uiso   1.00
H264   H     0.85089   0.58054   0.03264   0.00000  Uiso   1.00
H265   H     0.92767   0.31870   0.84409   0.00000  Uiso   1.00
H266   H     0.41077   0.66399   0.94859   0.00000  Uiso   1.00
H267   H     0.66001   0.64754   0.08265   0.00000  Uiso   1.00
O268   O     0.85177   0.30133   0.74251   0.00000  Uiso   1.00
O269   O     0.48556   0.75434   0.87962   0.00000  Uiso   1.00
O270   O     0.50059   0.73276   0.05550   0.00000  Uiso   1.00
N271   N     0.84998   0.41443   0.75017   0.00000  Uiso   1.00
N272   N     0.30165   0.73724   0.84787   0.00000  Uiso   1.00
N273   N     0.59978   0.72188   0.97321   0.00000  Uiso   1.00
N274   N     0.90759   0.35768   0.82109   0.00000  Uiso   1.00
N275   N     0.35926   0.68049   0.91879   0.00000  Uiso   1.00
N276   N     0.65739   0.66513   0.04413   0.00000  Uiso   1.00
C277   C     0.41201   0.87051   0.14916   0.00000  Uiso   1.00
C278   C     0.40898   0.94365   0.15957   0.00000  Uiso   1.00
C279   C     0.37435   0.97353   0.20783   0.00000  Uiso   1.00
C280   C     0.37783   0.04103   0.20919   0.00000  Uiso   1.00
C281   C     0.36757   0.14908   0.23225   0.00000  Uiso   1.00
C282   C     0.53347   0.85469   0.13265   0.00000  Uiso   1.00
C283   C     0.60351   0.80976   0.15827   0.00000  Uiso   1.00
C284   C     0.71179   0.80237   0.13696   0.00000  Uiso   1.00
C285   C     0.89478   0.77227   0.11821   0.00000  Uiso   1.00
C286   C     0.34003   0.85893   0.09811   0.00000  Uiso   1.00
C287   C     0.24743   0.81756   0.09469   0.00000  Uiso   1.00
C288   C     0.19285   0.81373   0.04429   0.00000  Uiso   1.00
C289   C     0.07550   0.79021   0.97191   0.00000  Uiso   1.00
C290   C     0.47977   0.93725   0.06576   0.00000  Uiso   1.00
C291   C     0.44578   0.97990   0.11427   0.00000  Uiso   1.00
C292   C     0.44931   0.04737   0.11556   0.00000  Uiso   1.00
C293   C     0.41469   0.07735   0.16381   0.00000  Uiso   1.00
C294   C     0.57028   0.89093   0.08735   0.00000  Uiso   1.00
C295   C     0.67847   0.88360   0.06600   0.00000  Uiso   1.00
C296   C     0.74866   0.83868   0.09158   0.00000  Uiso   1.00
C297   C     0.37683   0.89518   0.05281   0.00000  Uiso   1.00
C298   C     0.32239   0.89140   0.00241   0.00000  Uiso   1.00
C299   C     0.22972   0.85004   0.99891   0.00000  Uiso   1.00
H300   H     0.38337   0.84229   0.18443   0.00000  Uiso   1.00
H301   H     0.34588   0.94546   0.24288   0.00000  Uiso   1.00
H302   H     0.57500   0.78172   0.19333   0.00000  Uiso   1.00
H303   H     0.21898   0.78952   0.12975   0.00000  Uiso   1.00
H304   H     0.32060   0.07584   0.28771   0.00000  Uiso   1.00
H305   H     0.80369   0.73055   0.18321   0.00000  Uiso   1.00
H306   H     0.05294   0.74700   0.04915   0.00000  Uiso   1.00
H307   H     0.50842   0.96547   0.03049   0.00000  Uiso   1.00
H308   H     0.47780   0.07541   0.08049   0.00000  Uiso   1.00
H309   H     0.70692   0.91166   0.03094   0.00000  Uiso   1.00
H310   H     0.35089   0.91946   0.96736   0.00000  Uiso   1.00
H311   H     0.42767   0.18130   0.15591   0.00000  Uiso   1.00
H312   H     0.91077   0.83601   0.05141   0.00000  Uiso   1.00
H313   H     0.16001   0.85246   0.91735   0.00000  Uiso   1.00
O314   O     0.35177   0.19867   0.25749   0.00000  Uiso   1.00
O315   O     0.98556   0.74566   0.12038   0.00000  Uiso   1.00
O316   O     0.00059   0.76724   0.94450   0.00000  Uiso   1.00
N317   N     0.34998   0.08557   0.24983   0.00000  Uiso   1.00
N318   N     0.80165   0.76276   0.15213   0.00000  Uiso   1.00
N319   N     0.09978   0.77812   0.02679   0.00000  Uiso   1.00
N320   N     0.40759   0.14232   0.17891   0.00000  Uiso   1.00
N321   N     0.85926   0.81951   0.08121   0.00000  Uiso   1.00
N322   N     0.15739   0.83487   0.95587   0.00000  Uiso   1.00
C323   C     0.08799   0.62949   0.64916   0.00000  Uiso   1.00
C324   C     0.09102   0.55635   0.65957   0.00000  Uiso   1.00
C325   C     0.12565   0.52647   0.70783   0.00000  Uiso   1.00
C326   C     0.12217   0.45897   0.70919   0.00000  Uiso   1.00
C327   C     0.13243   0.35092   0.73225   0.00000  Uiso   1.00
C328   C     0.96653   0.64531   0.63265   0.00000  Uiso   1.00
C329   C     0.89649   0.69024   0.65827   0.00000  Uiso   1.00
C330   C     0.78821   0.69763   0.63696   0.00000  Uiso   1.00
C331   C     0.60522   0.72773   0.61821   0.00000  Uiso   1.00
C332   C     0.15997   0.64107   0.59811   0.00000  Uiso   1.00
C333   C     0.25257   0.68244   0.59469   0.00000  Uiso   1.00
C334   C     0.30715   0.68627   0.54429   0.00000  Uiso   1.00
C335   C     0.42450   0.70979   0.47191   0.00000  Uiso   1.00
C336   C     0.02023   0.56275   0.56576   0.00000  Uiso   1.00
C337   C     0.05422   0.52010   0.61427   0.00000  Uiso   1.00
C338   C     0.05069   0.45263   0.61556   0.00000  Uiso   1.00
C339   C     0.08531   0.42265   0.66381   0.00000  Uiso   1.00
C340   C     0.92972   0.60907   0.58735   0.00000  Uiso   1.00
C341   C     0.82153   0.61640   0.56600   0.00000  Uiso   1.00
C342   C     0.75134   0.66132   0.59158   0.00000  Uiso   1.00
C343   C     0.12317   0.60482   0.55281   0.00000  Uiso   1.00
C344   C     0.17761   0.60860   0.50241   0.00000  Uiso   1.00
C345   C     0.27028   0.64996   0.49891   0.00000  Uiso   1.00
H346   H     0.11663   0.65771   0.68443   0.00000  Uiso   1.00
H347   H     0.15412   0.55454   0.74288   0.00000  Uiso   1.00
H348   H     0.92500   0.71828   0.69333   0.00000  Uiso   1.00
H349   H     0.28102   0.71048   0.62975   0.00000  Uiso   1.00
H350   H     0.17940   0.42416   0.78771   0.00000  Uiso   1.00
H351   H     0.69631   0.76945   0.68321   0.00000  Uiso   1.00
H352   H     0.44706   0.75300   0.54915   0.00000  Uiso   1.00
H353   H     0.99158   0.53453   0.53049   0.00000  Uiso   1.00
H354   H     0.02220   0.42459   0.58049   0.00000  Uiso   1.00
H355   H     0.79308   0.58834   0.53094   0.00000  Uiso   1.00
H356   H     0.14911   0.58054   0.46736   0.00000  Uiso   1.00
H357   H     0.07233   0.31870   0.65591   0.00000  Uiso   1.00
H358   H     0.58923   0.66399   0.55141   0.00000  Uiso   1.00
H359   H     0.33999   0.64754   0.41735   0.00000  Uiso   1.00
O360   O     0.14823   0.30133   0.75749   0.00000  Uiso   1.00
O361   O     0.51444   0.75434   0.62038   0.00000  Uiso   1.00
O362   O     0.49941   0.73276   0.44450   0.00000  Uiso   1.00
N363   N     0.15002   0.41443   0.74983   0.00000  Uiso   1.00
N364   N     0.69835   0.73724   0.65213   0.00000  Uiso   1.00
N365   N     0.40022   0.72188   0.52679   0.00000  Uiso   1.00
N366   N     0.09241   0.35768   0.67891   0.00000  Uiso   1.00
N367   N     0.64074   0.68049   0.58121   0.00000  Uiso   1.00
N368   N     0.34261   0.66513   0.45587   0.00000  Uiso   1.00
