data_job_04681
_audit_creation_date              2018-12-19
_audit_creation_method            'Materials Studio'
_symmetry_space_group_name_H-M    'P1'
_symmetry_Int_Tables_number       1
_symmetry_cell_setting            triclinic
loop_
_symmetry_equiv_pos_as_xyz
  x,y,z
_cell_length_a                    44.0449
_cell_length_b                    7.0123
_cell_length_c                    42.3110
_cell_angle_alpha                 90.0000
_cell_angle_beta                  164.2242
_cell_angle_gamma                 90.0000
loop_
_atom_site_label
_atom_site_type_symbol
_atom_site_fract_x
_atom_site_fract_y
_atom_site_fract_z
_atom_site_U_iso_or_equiv
_atom_site_adp_type
_atom_site_occupancy
C1     C     0.38660   0.37259   0.97898   0.00000  Uiso   1.00
C2     C     0.29698   0.24000   0.87606   0.00000  Uiso   1.00
C3     C     0.19108   0.29451   0.76018   0.00000  Uiso   1.00
C4     C     0.12135   0.15176   0.67903   0.00000  Uiso   1.00
C5     C     0.97685   0.97483   0.51409   0.00000  Uiso   1.00
C6     C     0.41809   0.29244   0.04282   0.00000  Uiso   1.00
C7     C     0.41402   0.39105   0.06717   0.00000  Uiso   1.00
C8     C     0.44626   0.29245   0.12642   0.00000  Uiso   1.00
C9     C     0.48986   0.19698   0.22046   0.00000  Uiso   1.00
C10    C     0.48892   0.34517   0.06051   0.00000  Uiso   1.00
C11    C     0.54443   0.48812   0.09976   0.00000  Uiso   1.00
C12    C     0.63632   0.43392   0.17393   0.00000  Uiso   1.00
C13    C     0.78989   0.42031   0.29544   0.00000  Uiso   1.00
C14    C     0.45109   0.02215   0.04093   0.00000  Uiso   1.00
C15    C     0.33202   0.04966   0.90971   0.00000  Uiso   1.00
C16    C     0.26243   0.90679   0.82872   0.00000  Uiso   1.00
C17    C     0.15645   0.96108   0.71274   0.00000  Uiso   1.00
C18    C     0.45312   0.10210   0.07647   0.00000  Uiso   1.00
C19    C     0.48538   0.00334   0.13571   0.00000  Uiso   1.00
C20    C     0.48136   0.10177   0.16013   0.00000  Uiso   1.00
C21    C     0.52395   0.15482   0.09416   0.00000  Uiso   1.00
C22    C     0.61578   0.10040   0.16829   0.00000  Uiso   1.00
C23    C     0.67141   0.24323   0.20764   0.00000  Uiso   1.00
H24    H     0.35933   0.52077   0.95279   0.00000  Uiso   1.00
H25    H     0.16400   0.44182   0.73417   0.00000  Uiso   1.00
H26    H     0.38692   0.53835   0.04112   0.00000  Uiso   1.00
H27    H     0.51730   0.63540   0.07370   0.00000  Uiso   1.00
H28    H     0.96287   0.27034   0.50663   0.00000  Uiso   1.00
H29    H     0.43295   0.47390   0.15389   0.00000  Uiso   1.00
H30    H     0.70788   0.67854   0.22260   0.00000  Uiso   1.00
H31    H     0.47837   0.87396   0.06713   0.00000  Uiso   1.00
H32    H     0.28957   0.75951   0.85478   0.00000  Uiso   1.00
H33    H     0.51249   0.85605   0.16174   0.00000  Uiso   1.00
H34    H     0.64286   0.95309   0.19431   0.00000  Uiso   1.00
H35    H     0.06479   0.71654   0.60452   0.00000  Uiso   1.00
H36    H     0.53487   0.92012   0.25179   0.00000  Uiso   1.00
H37    H     0.80980   0.12475   0.32049   0.00000  Uiso   1.00
O38    O     0.88747   0.92981   0.41382   0.00000  Uiso   1.00
O39    O     0.50422   0.19690   0.26303   0.00000  Uiso   1.00
O40    O     0.86491   0.46538   0.35315   0.00000  Uiso   1.00
N41    N     0.01278   0.15572   0.55881   0.00000  Uiso   1.00
N42    N     0.45226   0.34603   0.16395   0.00000  Uiso   1.00
N43    N     0.70931   0.53736   0.22820   0.00000  Uiso   1.00
N44    N     0.06762   0.85772   0.61149   0.00000  Uiso   1.00
N45    N     0.50710   0.04804   0.21663   0.00000  Uiso   1.00
N46    N     0.76415   0.23937   0.28088   0.00000  Uiso   1.00
C47    C     0.61340   0.87259   0.52102   0.00000  Uiso   1.00
C48    C     0.70302   0.74000   0.62394   0.00000  Uiso   1.00
C49    C     0.80892   0.79451   0.73982   0.00000  Uiso   1.00
C50    C     0.87865   0.65176   0.82097   0.00000  Uiso   1.00
C51    C     0.02315   0.47483   0.98591   0.00000  Uiso   1.00
C52    C     0.58191   0.79244   0.45718   0.00000  Uiso   1.00
C53    C     0.58598   0.89105   0.43283   0.00000  Uiso   1.00
C54    C     0.55374   0.79245   0.37358   0.00000  Uiso   1.00
C55    C     0.51014   0.69698   0.27954   0.00000  Uiso   1.00
C56    C     0.51108   0.84517   0.43949   0.00000  Uiso   1.00
C57    C     0.45557   0.98812   0.40024   0.00000  Uiso   1.00
C58    C     0.36368   0.93392   0.32607   0.00000  Uiso   1.00
C59    C     0.21011   0.92031   0.20456   0.00000  Uiso   1.00
C60    C     0.54891   0.52215   0.45907   0.00000  Uiso   1.00
C61    C     0.66798   0.54966   0.59029   0.00000  Uiso   1.00
C62    C     0.73757   0.40679   0.67128   0.00000  Uiso   1.00
C63    C     0.84355   0.46108   0.78726   0.00000  Uiso   1.00
C64    C     0.54688   0.60210   0.42353   0.00000  Uiso   1.00
C65    C     0.51462   0.50334   0.36429   0.00000  Uiso   1.00
C66    C     0.51864   0.60177   0.33987   0.00000  Uiso   1.00
C67    C     0.47605   0.65482   0.40584   0.00000  Uiso   1.00
C68    C     0.38422   0.60040   0.33171   0.00000  Uiso   1.00
C69    C     0.32859   0.74323   0.29236   0.00000  Uiso   1.00
H70    H     0.64067   0.02077   0.54721   0.00000  Uiso   1.00
H71    H     0.83600   0.94182   0.76583   0.00000  Uiso   1.00
H72    H     0.61308   0.03835   0.45888   0.00000  Uiso   1.00
H73    H     0.48270   0.13540   0.42630   0.00000  Uiso   1.00
H74    H     0.03713   0.77034   0.99337   0.00000  Uiso   1.00
H75    H     0.56705   0.97390   0.34611   0.00000  Uiso   1.00
H76    H     0.29212   0.17854   0.27740   0.00000  Uiso   1.00
H77    H     0.52163   0.37396   0.43287   0.00000  Uiso   1.00
H78    H     0.71043   0.25951   0.64522   0.00000  Uiso   1.00
H79    H     0.48751   0.35605   0.33826   0.00000  Uiso   1.00
H80    H     0.35714   0.45309   0.30569   0.00000  Uiso   1.00
H81    H     0.93521   0.21654   0.89548   0.00000  Uiso   1.00
H82    H     0.46513   0.42012   0.24821   0.00000  Uiso   1.00
H83    H     0.19020   0.62475   0.17951   0.00000  Uiso   1.00
O84    O     0.11253   0.42981   0.08618   0.00000  Uiso   1.00
O85    O     0.49578   0.69690   0.23697   0.00000  Uiso   1.00
O86    O     0.13509   0.96538   0.14685   0.00000  Uiso   1.00
N87    N     0.98722   0.65572   0.94119   0.00000  Uiso   1.00
N88    N     0.54774   0.84603   0.33605   0.00000  Uiso   1.00
N89    N     0.29069   0.03736   0.27180   0.00000  Uiso   1.00
N90    N     0.93238   0.35772   0.88851   0.00000  Uiso   1.00
N91    N     0.49290   0.54804   0.28337   0.00000  Uiso   1.00
N92    N     0.23585   0.73937   0.21912   0.00000  Uiso   1.00
C93    C     0.61340   0.62741   0.02102   0.00000  Uiso   1.00
C94    C     0.70302   0.76000   0.12394   0.00000  Uiso   1.00
C95    C     0.80892   0.70549   0.23982   0.00000  Uiso   1.00
C96    C     0.87865   0.84824   0.32097   0.00000  Uiso   1.00
C97    C     0.02315   0.02517   0.48591   0.00000  Uiso   1.00
C98    C     0.58191   0.70756   0.95718   0.00000  Uiso   1.00
C99    C     0.58598   0.60895   0.93283   0.00000  Uiso   1.00
C100   C     0.55374   0.70755   0.87358   0.00000  Uiso   1.00
C101   C     0.51014   0.80302   0.77954   0.00000  Uiso   1.00
C102   C     0.51108   0.65483   0.93949   0.00000  Uiso   1.00
C103   C     0.45557   0.51188   0.90024   0.00000  Uiso   1.00
C104   C     0.36368   0.56608   0.82607   0.00000  Uiso   1.00
C105   C     0.21011   0.57969   0.70456   0.00000  Uiso   1.00
C106   C     0.54891   0.97785   0.95907   0.00000  Uiso   1.00
C107   C     0.66798   0.95034   0.09029   0.00000  Uiso   1.00
C108   C     0.73757   0.09321   0.17128   0.00000  Uiso   1.00
C109   C     0.84355   0.03892   0.28726   0.00000  Uiso   1.00
C110   C     0.54688   0.89790   0.92353   0.00000  Uiso   1.00
C111   C     0.51462   0.99666   0.86429   0.00000  Uiso   1.00
C112   C     0.51864   0.89823   0.83987   0.00000  Uiso   1.00
C113   C     0.47605   0.84518   0.90584   0.00000  Uiso   1.00
C114   C     0.38422   0.89960   0.83171   0.00000  Uiso   1.00
C115   C     0.32859   0.75677   0.79236   0.00000  Uiso   1.00
H116   H     0.64067   0.47923   0.04721   0.00000  Uiso   1.00
H117   H     0.83600   0.55818   0.26583   0.00000  Uiso   1.00
H118   H     0.61308   0.46165   0.95888   0.00000  Uiso   1.00
H119   H     0.48270   0.36460   0.92630   0.00000  Uiso   1.00
H120   H     0.03713   0.72966   0.49337   0.00000  Uiso   1.00
H121   H     0.56705   0.52610   0.84611   0.00000  Uiso   1.00
H122   H     0.29212   0.32146   0.77740   0.00000  Uiso   1.00
H123   H     0.52163   0.12604   0.93287   0.00000  Uiso   1.00
H124   H     0.71043   0.24049   0.14522   0.00000  Uiso   1.00
H125   H     0.48751   0.14395   0.83826   0.00000  Uiso   1.00
H126   H     0.35714   0.04691   0.80569   0.00000  Uiso   1.00
H127   H     0.93521   0.28346   0.39548   0.00000  Uiso   1.00
H128   H     0.46513   0.07988   0.74821   0.00000  Uiso   1.00
H129   H     0.19020   0.87525   0.67951   0.00000  Uiso   1.00
O130   O     0.11253   0.07019   0.58618   0.00000  Uiso   1.00
O131   O     0.49578   0.80310   0.73697   0.00000  Uiso   1.00
O132   O     0.13509   0.53462   0.64685   0.00000  Uiso   1.00
N133   N     0.98722   0.84428   0.44119   0.00000  Uiso   1.00
N134   N     0.54774   0.65397   0.83605   0.00000  Uiso   1.00
N135   N     0.29069   0.46264   0.77180   0.00000  Uiso   1.00
N136   N     0.93238   0.14228   0.38851   0.00000  Uiso   1.00
N137   N     0.49290   0.95196   0.78337   0.00000  Uiso   1.00
N138   N     0.23585   0.76063   0.71912   0.00000  Uiso   1.00
C139   C     0.38660   0.12741   0.47898   0.00000  Uiso   1.00
C140   C     0.29698   0.26000   0.37606   0.00000  Uiso   1.00
C141   C     0.19108   0.20549   0.26018   0.00000  Uiso   1.00
C142   C     0.12135   0.34824   0.17903   0.00000  Uiso   1.00
C143   C     0.97685   0.52517   0.01409   0.00000  Uiso   1.00
C144   C     0.41809   0.20756   0.54282   0.00000  Uiso   1.00
C145   C     0.41402   0.10895   0.56717   0.00000  Uiso   1.00
C146   C     0.44626   0.20755   0.62642   0.00000  Uiso   1.00
C147   C     0.48986   0.30302   0.72046   0.00000  Uiso   1.00
C148   C     0.48892   0.15483   0.56051   0.00000  Uiso   1.00
C149   C     0.54443   0.01188   0.59976   0.00000  Uiso   1.00
C150   C     0.63632   0.06608   0.67393   0.00000  Uiso   1.00
C151   C     0.78989   0.07969   0.79544   0.00000  Uiso   1.00
C152   C     0.45109   0.47785   0.54093   0.00000  Uiso   1.00
C153   C     0.33202   0.45034   0.40971   0.00000  Uiso   1.00
C154   C     0.26243   0.59321   0.32872   0.00000  Uiso   1.00
C155   C     0.15645   0.53892   0.21274   0.00000  Uiso   1.00
C156   C     0.45312   0.39790   0.57647   0.00000  Uiso   1.00
C157   C     0.48538   0.49666   0.63571   0.00000  Uiso   1.00
C158   C     0.48136   0.39823   0.66013   0.00000  Uiso   1.00
C159   C     0.52395   0.34518   0.59416   0.00000  Uiso   1.00
C160   C     0.61578   0.39960   0.66829   0.00000  Uiso   1.00
C161   C     0.67141   0.25677   0.70764   0.00000  Uiso   1.00
H162   H     0.35933   0.97923   0.45279   0.00000  Uiso   1.00
H163   H     0.16400   0.05818   0.23417   0.00000  Uiso   1.00
H164   H     0.38692   0.96165   0.54112   0.00000  Uiso   1.00
H165   H     0.51730   0.86460   0.57370   0.00000  Uiso   1.00
H166   H     0.96287   0.22966   0.00663   0.00000  Uiso   1.00
H167   H     0.43295   0.02610   0.65389   0.00000  Uiso   1.00
H168   H     0.70788   0.82146   0.72260   0.00000  Uiso   1.00
H169   H     0.47837   0.62604   0.56713   0.00000  Uiso   1.00
H170   H     0.28957   0.74049   0.35478   0.00000  Uiso   1.00
H171   H     0.51249   0.64395   0.66174   0.00000  Uiso   1.00
H172   H     0.64286   0.54691   0.69431   0.00000  Uiso   1.00
H173   H     0.06479   0.78346   0.10452   0.00000  Uiso   1.00
H174   H     0.53487   0.57988   0.75179   0.00000  Uiso   1.00
H175   H     0.80980   0.37525   0.82049   0.00000  Uiso   1.00
O176   O     0.88747   0.57019   0.91382   0.00000  Uiso   1.00
O177   O     0.50422   0.30310   0.76303   0.00000  Uiso   1.00
O178   O     0.86491   0.03462   0.85315   0.00000  Uiso   1.00
N179   N     0.01278   0.34428   0.05881   0.00000  Uiso   1.00
N180   N     0.45226   0.15397   0.66395   0.00000  Uiso   1.00
N181   N     0.70931   0.96264   0.72820   0.00000  Uiso   1.00
N182   N     0.06762   0.64228   0.11149   0.00000  Uiso   1.00
N183   N     0.50710   0.45196   0.71663   0.00000  Uiso   1.00
N184   N     0.76415   0.26063   0.78088   0.00000  Uiso   1.00
