data_job_07077
_audit_creation_date              2018-12-19
_audit_creation_method            'Materials Studio'
_symmetry_space_group_name_H-M    'P1'
_symmetry_Int_Tables_number       1
_symmetry_cell_setting            triclinic
loop_
_symmetry_equiv_pos_as_xyz
  x,y,z
_cell_length_a                    19.2764
_cell_length_b                    24.4716
_cell_length_c                    23.1561
_cell_angle_alpha                 69.1456
_cell_angle_beta                  79.4121
_cell_angle_gamma                 68.9927
loop_
_atom_site_label
_atom_site_type_symbol
_atom_site_fract_x
_atom_site_fract_y
_atom_site_fract_z
_atom_site_U_iso_or_equiv
_atom_site_adp_type
_atom_site_occupancy
C1     C     0.69487   0.72277   0.10021   0.00000  Uiso   1.00
C2     C     0.73635   0.76968   0.07024   0.00000  Uiso   1.00
C3     C     0.70689   0.82901   0.03054   0.00000  Uiso   1.00
C4     C     0.75388   0.86476   0.00803   0.00000  Uiso   1.00
C5     C     0.80707   0.94105   0.95895   0.00000  Uiso   1.00
C6     C     0.74071   0.66566   0.08153   0.00000  Uiso   1.00
C7     C     0.71491   0.63753   0.05133   0.00000  Uiso   1.00
C8     C     0.76557   0.58573   0.03832   0.00000  Uiso   1.00
C9     C     0.82552   0.50051   0.00681   0.00000  Uiso   1.00
C10    C     0.70063   0.70419   0.16982   0.00000  Uiso   1.00
C11    C     0.64114   0.70844   0.21386   0.00000  Uiso   1.00
C12    C     0.65805   0.68905   0.27519   0.00000  Uiso   1.00
C13    C     0.65577   0.66365   0.38076   0.00000  Uiso   1.00
C14    C     0.83069   0.68077   0.13082   0.00000  Uiso   1.00
C15    C     0.81012   0.74686   0.08687   0.00000  Uiso   1.00
C16    C     0.85717   0.78254   0.06441   0.00000  Uiso   1.00
C17    C     0.82778   0.84191   0.02469   0.00000  Uiso   1.00
C18    C     0.81448   0.64285   0.09816   0.00000  Uiso   1.00
C19    C     0.86519   0.59107   0.08520   0.00000  Uiso   1.00
C20    C     0.83948   0.56287   0.05498   0.00000  Uiso   1.00
C21    C     0.77441   0.68138   0.18645   0.00000  Uiso   1.00
C22    C     0.79141   0.66197   0.24773   0.00000  Uiso   1.00
C23    C     0.73196   0.66619   0.29185   0.00000  Uiso   1.00
H24    H     0.63744   0.74053   0.08726   0.00000  Uiso   1.00
H25    H     0.64980   0.84664   0.01768   0.00000  Uiso   1.00
H26    H     0.65782   0.65519   0.03847   0.00000  Uiso   1.00
H27    H     0.58406   0.72609   0.20097   0.00000  Uiso   1.00
H28    H     0.69605   0.95422   0.94786   0.00000  Uiso   1.00
H29    H     0.71295   0.55053   0.99171   0.00000  Uiso   1.00
H30    H     0.55741   0.70003   0.33438   0.00000  Uiso   1.00
H31    H     0.88813   0.66301   0.14377   0.00000  Uiso   1.00
H32    H     0.91425   0.76487   0.07729   0.00000  Uiso   1.00
H33    H     0.92227   0.57343   0.09808   0.00000  Uiso   1.00
H34    H     0.84851   0.64432   0.26058   0.00000  Uiso   1.00
H35    H     0.91069   0.88785   0.99623   0.00000  Uiso   1.00
H36    H     0.92759   0.48416   0.04009   0.00000  Uiso   1.00
H37    H     0.77205   0.63366   0.38275   0.00000  Uiso   1.00
O38    O     0.81604   0.98943   0.92728   0.00000  Uiso   1.00
O39    O     0.83821   0.45981   0.98482   0.00000  Uiso   1.00
O40    O     0.63414   0.65595   0.43439   0.00000  Uiso   1.00
N41    N     0.74298   0.92462   0.96838   0.00000  Uiso   1.00
N42    N     0.75878   0.54721   0.00937   0.00000  Uiso   1.00
N43    N     0.61336   0.68696   0.32973   0.00000  Uiso   1.00
N44    N     0.85847   0.88891   0.99441   0.00000  Uiso   1.00
N45    N     0.87428   0.51150   0.03540   0.00000  Uiso   1.00
N46    N     0.72886   0.65125   0.35576   0.00000  Uiso   1.00
C47    C     0.19603   0.48877   0.67911   0.00000  Uiso   1.00
C48    C     0.17026   0.50212   0.74044   0.00000  Uiso   1.00
C49    C     0.11517   0.48374   0.78240   0.00000  Uiso   1.00
C50    C     0.09973   0.50054   0.83583   0.00000  Uiso   1.00
C51    C     0.05386   0.51612   0.92938   0.00000  Uiso   1.00
C52    C     0.18644   0.55133   0.62934   0.00000  Uiso   1.00
C53    C     0.14497   0.57433   0.57787   0.00000  Uiso   1.00
C54    C     0.14317   0.63255   0.53777   0.00000  Uiso   1.00
C55    C     0.12248   0.72452   0.45880   0.00000  Uiso   1.00
C56    C     0.27972   0.45571   0.68144   0.00000  Uiso   1.00
C57    C     0.31668   0.39830   0.67377   0.00000  Uiso   1.00
C58    C     0.39341   0.37602   0.67753   0.00000  Uiso   1.00
C59    C     0.51754   0.31951   0.67947   0.00000  Uiso   1.00
C60    C     0.26657   0.55128   0.69940   0.00000  Uiso   1.00
C61    C     0.20857   0.53607   0.75146   0.00000  Uiso   1.00
C62    C     0.19322   0.55290   0.80485   0.00000  Uiso   1.00
C63    C     0.13812   0.53455   0.84688   0.00000  Uiso   1.00
C64    C     0.22476   0.58529   0.64036   0.00000  Uiso   1.00
C65    C     0.22302   0.64348   0.60032   0.00000  Uiso   1.00
C66    C     0.18156   0.66656   0.54881   0.00000  Uiso   1.00
C67    C     0.31804   0.48966   0.69247   0.00000  Uiso   1.00
C68    C     0.39472   0.46746   0.69623   0.00000  Uiso   1.00
C69    C     0.43179   0.41003   0.68857   0.00000  Uiso   1.00
H70    H     0.16620   0.46235   0.67052   0.00000  Uiso   1.00
H71    H     0.08552   0.45747   0.77385   0.00000  Uiso   1.00
H72    H     0.11534   0.54804   0.56935   0.00000  Uiso   1.00
H73    H     0.28701   0.37204   0.66524   0.00000  Uiso   1.00
H74    H     0.01296   0.46706   0.89325   0.00000  Uiso   1.00
H75    H     0.07584   0.65803   0.46205   0.00000  Uiso   1.00
H76    H     0.43785   0.28690   0.66426   0.00000  Uiso   1.00
H77    H     0.29640   0.57771   0.70798   0.00000  Uiso   1.00
H78    H     0.22288   0.57917   0.81337   0.00000  Uiso   1.00
H79    H     0.25268   0.66974   0.60887   0.00000  Uiso   1.00
H80    H     0.42436   0.49374   0.70477   0.00000  Uiso   1.00
H81    H     0.12444   0.56584   0.92533   0.00000  Uiso   1.00
H82    H     0.18732   0.75680   0.49412   0.00000  Uiso   1.00
H83    H     0.54933   0.38568   0.69634   0.00000  Uiso   1.00
O84    O     0.01797   0.51535   0.97793   0.00000  Uiso   1.00
O85    O     0.10047   0.76588   0.41220   0.00000  Uiso   1.00
O86    O     0.57542   0.27897   0.67750   0.00000  Uiso   1.00
N87    N     0.04930   0.49010   0.88635   0.00000  Uiso   1.00
N88    N     0.10808   0.66864   0.48320   0.00000  Uiso   1.00
N89    N     0.44653   0.32168   0.67223   0.00000  Uiso   1.00
N90    N     0.10929   0.54325   0.90361   0.00000  Uiso   1.00
N91    N     0.16806   0.72179   0.50046   0.00000  Uiso   1.00
N92    N     0.50651   0.37483   0.68949   0.00000  Uiso   1.00
C93    C     0.82282   0.01470   0.56877   0.00000  Uiso   1.00
C94    C     0.90589   0.97890   0.56903   0.00000  Uiso   1.00
C95    C     0.94048   0.92828   0.54823   0.00000  Uiso   1.00
C96    C     0.01702   0.90199   0.55240   0.00000  Uiso   1.00
C97    C     0.13985   0.84281   0.54917   0.00000  Uiso   1.00
C98    C     0.79722   0.01316   0.63551   0.00000  Uiso   1.00
C99    C     0.74044   0.99136   0.67060   0.00000  Uiso   1.00
C100   C     0.72550   0.99391   0.73074   0.00000  Uiso   1.00
C101   C     0.67959   0.98797   0.83071   0.00000  Uiso   1.00
C102   C     0.81635   0.08171   0.53220   0.00000  Uiso   1.00
C103   C     0.77563   0.11754   0.48042   0.00000  Uiso   1.00
C104   C     0.77678   0.17781   0.45358   0.00000  Uiso   1.00
C105   C     0.76056   0.27829   0.39314   0.00000  Uiso   1.00
C106   C     0.89724   0.05802   0.61317   0.00000  Uiso   1.00
C107   C     0.94631   0.00243   0.59315   0.00000  Uiso   1.00
C108   C     0.02281   0.97621   0.59736   0.00000  Uiso   1.00
C109   C     0.05751   0.92556   0.57656   0.00000  Uiso   1.00
C110   C     0.83764   0.03669   0.65963   0.00000  Uiso   1.00
C111   C     0.82277   0.03929   0.71973   0.00000  Uiso   1.00
C112   C     0.76599   0.01749   0.75490   0.00000  Uiso   1.00
C113   C     0.85677   0.10524   0.55632   0.00000  Uiso   1.00
C114   C     0.85797   0.16547   0.52955   0.00000  Uiso   1.00
C115   C     0.81727   0.20139   0.47775   0.00000  Uiso   1.00
H116   H     0.79135   0.99638   0.54999   0.00000  Uiso   1.00
H117   H     0.90918   0.91008   0.52957   0.00000  Uiso   1.00
H118   H     0.70917   0.97315   0.65192   0.00000  Uiso   1.00
H119   H     0.74436   0.09931   0.46177   0.00000  Uiso   1.00
H120   H     0.05764   0.82477   0.51758   0.00000  Uiso   1.00
H121   H     0.63589   0.95778   0.77556   0.00000  Uiso   1.00
H122   H     0.71009   0.22382   0.37460   0.00000  Uiso   1.00
H123   H     0.92870   0.07634   0.63196   0.00000  Uiso   1.00
H124   H     0.05408   0.99443   0.61603   0.00000  Uiso   1.00
H125   H     0.85406   0.05751   0.73838   0.00000  Uiso   1.00
H126   H     0.88925   0.18367   0.54823   0.00000  Uiso   1.00
H127   H     0.17524   0.89323   0.58776   0.00000  Uiso   1.00
H128   H     0.75348   0.02625   0.84574   0.00000  Uiso   1.00
H129   H     0.82769   0.29228   0.44477   0.00000  Uiso   1.00
O130   O     0.19643   0.80366   0.54073   0.00000  Uiso   1.00
O131   O     0.64310   0.97818   0.87918   0.00000  Uiso   1.00
O132   O     0.74045   0.32721   0.35313   0.00000  Uiso   1.00
N133   N     0.06811   0.85213   0.53627   0.00000  Uiso   1.00
N134   N     0.67381   0.97648   0.77747   0.00000  Uiso   1.00
N135   N     0.74316   0.22521   0.40261   0.00000  Uiso   1.00
N136   N     0.13140   0.88897   0.57403   0.00000  Uiso   1.00
N137   N     0.73709   0.01332   0.81523   0.00000  Uiso   1.00
N138   N     0.80644   0.26205   0.44037   0.00000  Uiso   1.00
C139   C     0.27932   0.63236   0.20280   0.00000  Uiso   1.00
C140   C     0.32424   0.59167   0.25933   0.00000  Uiso   1.00
C141   C     0.30388   0.54712   0.30939   0.00000  Uiso   1.00
C142   C     0.35261   0.51479   0.35650   0.00000  Uiso   1.00
C143   C     0.41225   0.44978   0.44471   0.00000  Uiso   1.00
C144   C     0.33092   0.62159   0.14674   0.00000  Uiso   1.00
C145   C     0.31616   0.60221   0.10213   0.00000  Uiso   1.00
C146   C     0.37050   0.59507   0.05445   0.00000  Uiso   1.00
C147   C     0.44048   0.57656   0.96783   0.00000  Uiso   1.00
C148   C     0.26691   0.69876   0.19866   0.00000  Uiso   1.00
C149   C     0.19833   0.74427   0.19769   0.00000  Uiso   1.00
C150   C     0.19878   0.80211   0.19372   0.00000  Uiso   1.00
C151   C     0.16937   0.90342   0.18771   0.00000  Uiso   1.00
C152   C     0.40206   0.65415   0.19744   0.00000  Uiso   1.00
C153   C     0.39092   0.60350   0.25642   0.00000  Uiso   1.00
C154   C     0.43969   0.57123   0.30347   0.00000  Uiso   1.00
C155   C     0.41940   0.52665   0.35359   0.00000  Uiso   1.00
C156   C     0.39759   0.63342   0.14382   0.00000  Uiso   1.00
C157   C     0.45196   0.62632   0.09620   0.00000  Uiso   1.00
C158   C     0.43729   0.60693   0.05154   0.00000  Uiso   1.00
C159   C     0.33358   0.71059   0.19575   0.00000  Uiso   1.00
C160   C     0.33414   0.76837   0.19177   0.00000  Uiso   1.00
C161   C     0.26557   0.81397   0.19080   0.00000  Uiso   1.00
H162   H     0.22741   0.62315   0.20506   0.00000  Uiso   1.00
H163   H     0.25229   0.53797   0.31162   0.00000  Uiso   1.00
H164   H     0.26456   0.59306   0.10439   0.00000  Uiso   1.00
H165   H     0.14675   0.73510   0.19994   0.00000  Uiso   1.00
H166   H     0.30928   0.44875   0.42848   0.00000  Uiso   1.00
H167   H     0.33514   0.56492   0.99150   0.00000  Uiso   1.00
H168   H     0.08672   0.86443   0.19299   0.00000  Uiso   1.00
H169   H     0.45397   0.66336   0.19518   0.00000  Uiso   1.00
H170   H     0.49128   0.58040   0.30120   0.00000  Uiso   1.00
H171   H     0.50355   0.63548   0.09396   0.00000  Uiso   1.00
H172   H     0.38574   0.77752   0.18952   0.00000  Uiso   1.00
H173   H     0.50326   0.48318   0.42002   0.00000  Uiso   1.00
H174   H     0.52912   0.59935   0.98303   0.00000  Uiso   1.00
H175   H     0.28069   0.89886   0.18453   0.00000  Uiso   1.00
O176   O     0.42674   0.41064   0.49416   0.00000  Uiso   1.00
O177   O     0.46066   0.56307   0.92086   0.00000  Uiso   1.00
O178   O     0.13473   0.95602   0.18521   0.00000  Uiso   1.00
N179   N     0.34981   0.46825   0.41194   0.00000  Uiso   1.00
N180   N     0.37399   0.57685   0.00340   0.00000  Uiso   1.00
N181   N     0.14173   0.85687   0.19176   0.00000  Uiso   1.00
N182   N     0.45418   0.48677   0.40739   0.00000  Uiso   1.00
N183   N     0.47837   0.59538   0.99884   0.00000  Uiso   1.00
N184   N     0.24611   0.87540   0.18721   0.00000  Uiso   1.00
C185   C     0.61725   0.27955   0.91496   0.00000  Uiso   1.00
C186   C     0.63989   0.32745   0.92809   0.00000  Uiso   1.00
C187   C     0.59509   0.38744   0.92349   0.00000  Uiso   1.00
C188   C     0.62611   0.42406   0.93748   0.00000  Uiso   1.00
C189   C     0.65011   0.50186   0.95516   0.00000  Uiso   1.00
C190   C     0.62979   0.22401   0.97371   0.00000  Uiso   1.00
C191   C     0.57650   0.19702   0.00747   0.00000  Uiso   1.00
C192   C     0.59902   0.14656   0.05986   0.00000  Uiso   1.00
C193   C     0.60735   0.06374   0.14835   0.00000  Uiso   1.00
C194   C     0.67443   0.25867   0.86572   0.00000  Uiso   1.00
C195   C     0.65867   0.26080   0.80869   0.00000  Uiso   1.00
C196   C     0.71877   0.23951   0.77017   0.00000  Uiso   1.00
C197   C     0.79641   0.21050   0.69099   0.00000  Uiso   1.00
C198   C     0.75201   0.23791   0.94798   0.00000  Uiso   1.00
C199   C     0.71308   0.30483   0.94602   0.00000  Uiso   1.00
C200   C     0.74418   0.34137   0.96002   0.00000  Uiso   1.00
C201   C     0.69943   0.40140   0.95545   0.00000  Uiso   1.00
C202   C     0.70298   0.20139   0.99164   0.00000  Uiso   1.00
C203   C     0.72559   0.15095   0.04400   0.00000  Uiso   1.00
C204   C     0.67234   0.12390   0.07783   0.00000  Uiso   1.00
C205   C     0.74762   0.23605   0.88365   0.00000  Uiso   1.00
C206   C     0.80776   0.21474   0.84522   0.00000  Uiso   1.00
C207   C     0.79210   0.21685   0.78813   0.00000  Uiso   1.00
H208   H     0.56027   0.29716   0.90100   0.00000  Uiso   1.00
H209   H     0.53845   0.40492   0.90962   0.00000  Uiso   1.00
H210   H     0.51986   0.21454   0.99357   0.00000  Uiso   1.00
H211   H     0.60202   0.27831   0.79483   0.00000  Uiso   1.00
H212   H     0.54652   0.51442   0.92710   0.00000  Uiso   1.00
H213   H     0.50734   0.11296   0.10412   0.00000  Uiso   1.00
H214   H     0.68059   0.24744   0.68501   0.00000  Uiso   1.00
H215   H     0.80900   0.22030   0.96194   0.00000  Uiso   1.00
H216   H     0.80082   0.32385   0.97390   0.00000  Uiso   1.00
H217   H     0.78223   0.13346   0.05786   0.00000  Uiso   1.00
H218   H     0.86439   0.19723   0.85911   0.00000  Uiso   1.00
H219   H     0.75947   0.44861   0.97927   0.00000  Uiso   1.00
H220   H     0.72029   0.04715   0.15629   0.00000  Uiso   1.00
H221   H     0.89354   0.18164   0.73719   0.00000  Uiso   1.00
O222   O     0.64312   0.55101   0.95997   0.00000  Uiso   1.00
O223   O     0.59172   0.02431   0.19220   0.00000  Uiso   1.00
O224   O     0.81902   0.20075   0.64235   0.00000  Uiso   1.00
N225   N     0.59777   0.48472   0.93772   0.00000  Uiso   1.00
N226   N     0.56113   0.10939   0.10323   0.00000  Uiso   1.00
N227   N     0.72310   0.23510   0.71141   0.00000  Uiso   1.00
N228   N     0.71235   0.44932   0.96580   0.00000  Uiso   1.00
N229   N     0.67572   0.07398   0.13131   0.00000  Uiso   1.00
N230   N     0.83769   0.19970   0.73949   0.00000  Uiso   1.00
C231   C     0.43326   0.08378   0.43718   0.00000  Uiso   1.00
C232   C     0.51203   0.07214   0.40664   0.00000  Uiso   1.00
C233   C     0.53445   0.05951   0.35099   0.00000  Uiso   1.00
C234   C     0.60897   0.05025   0.33089   0.00000  Uiso   1.00
C235   C     0.72363   0.03171   0.27822   0.00000  Uiso   1.00
C236   C     0.41142   0.14666   0.44636   0.00000  Uiso   1.00
C237   C     0.34924   0.19667   0.42411   0.00000  Uiso   1.00
C238   C     0.33907   0.25014   0.43746   0.00000  Uiso   1.00
C239   C     0.29750   0.34727   0.44649   0.00000  Uiso   1.00
C240   C     0.43972   0.03668   0.50189   0.00000  Uiso   1.00
C241   C     0.40131   0.99424   0.52635   0.00000  Uiso   1.00
C242   C     0.41494   0.95513   0.58645   0.00000  Uiso   1.00
C243   C     0.41730   0.88151   0.68171   0.00000  Uiso   1.00
C244   C     0.52575   0.08981   0.50043   0.00000  Uiso   1.00
C245   C     0.56226   0.07542   0.44099   0.00000  Uiso   1.00
C246   C     0.63677   0.06618   0.42097   0.00000  Uiso   1.00
C247   C     0.65930   0.05353   0.36531   0.00000  Uiso   1.00
C248   C     0.46165   0.14993   0.48071   0.00000  Uiso   1.00
C249   C     0.45157   0.20334   0.49410   0.00000  Uiso   1.00
C250   C     0.38940   0.25342   0.47188   0.00000  Uiso   1.00
C251   C     0.48995   0.03996   0.53625   0.00000  Uiso   1.00
C252   C     0.50364   0.00091   0.59633   0.00000  Uiso   1.00
C253   C     0.46527   0.95841   0.62087   0.00000  Uiso   1.00
H254   H     0.39415   0.08124   0.41043   0.00000  Uiso   1.00
H255   H     0.49555   0.05698   0.32441   0.00000  Uiso   1.00
H256   H     0.31038   0.19412   0.39753   0.00000  Uiso   1.00
H257   H     0.36244   0.99172   0.49975   0.00000  Uiso   1.00
H258   H     0.63012   0.03156   0.24418   0.00000  Uiso   1.00
H259   H     0.23965   0.32072   0.39838   0.00000  Uiso   1.00
H260   H     0.34943   0.89392   0.61392   0.00000  Uiso   1.00
H261   H     0.56486   0.09236   0.52718   0.00000  Uiso   1.00
H262   H     0.67563   0.06871   0.44757   0.00000  Uiso   1.00
H263   H     0.49045   0.20586   0.52069   0.00000  Uiso   1.00
H264   H     0.54252   0.00346   0.62290   0.00000  Uiso   1.00
H265   H     0.77628   0.04108   0.34414   0.00000  Uiso   1.00
H266   H     0.38581   0.33024   0.49834   0.00000  Uiso   1.00
H267   H     0.49559   0.90344   0.71388   0.00000  Uiso   1.00
O268   O     0.77299   0.02059   0.23968   0.00000  Uiso   1.00
O269   O     0.26070   0.39995   0.44198   0.00000  Uiso   1.00
O270   O     0.40473   0.83999   0.72476   0.00000  Uiso   1.00
N271   N     0.64932   0.03703   0.27864   0.00000  Uiso   1.00
N272   N     0.28426   0.30738   0.42279   0.00000  Uiso   1.00
N273   N     0.38688   0.90837   0.62431   0.00000  Uiso   1.00
N274   N     0.72797   0.04216   0.33243   0.00000  Uiso   1.00
N275   N     0.36291   0.31251   0.47658   0.00000  Uiso   1.00
N276   N     0.46553   0.91350   0.67810   0.00000  Uiso   1.00
C277   C     0.49443   0.12762   0.88788   0.00000  Uiso   1.00
C278   C     0.48296   0.06612   0.92680   0.00000  Uiso   1.00
C279   C     0.52443   0.02271   0.97591   0.00000  Uiso   1.00
C280   C     0.50519   0.96939   0.00560   0.00000  Uiso   1.00
C281   C     0.49628   0.87536   0.06890   0.00000  Uiso   1.00
C282   C     0.41992   0.17709   0.89223   0.00000  Uiso   1.00
C283   C     0.40839   0.22698   0.91227   0.00000  Uiso   1.00
C284   C     0.33608   0.26707   0.91285   0.00000  Uiso   1.00
C285   C     0.22931   0.34534   0.92244   0.00000  Uiso   1.00
C286   C     0.50645   0.12766   0.82092   0.00000  Uiso   1.00
C287   C     0.56765   0.13601   0.78099   0.00000  Uiso   1.00
C288   C     0.56818   0.13450   0.72153   0.00000  Uiso   1.00
C289   C     0.59575   0.13603   0.62040   0.00000  Uiso   1.00
C290   C     0.38652   0.11012   0.85328   0.00000  Uiso   1.00
C291   C     0.42435   0.05662   0.90800   0.00000  Uiso   1.00
C292   C     0.40504   0.00335   0.93763   0.00000  Uiso   1.00
C293   C     0.44647   0.95986   0.98677   0.00000  Uiso   1.00
C294   C     0.36131   0.16759   0.87344   0.00000  Uiso   1.00
C295   C     0.28900   0.20762   0.87399   0.00000  Uiso   1.00
C296   C     0.27736   0.25755   0.89403   0.00000  Uiso   1.00
C297   C     0.44783   0.11815   0.80212   0.00000  Uiso   1.00
C298   C     0.44826   0.11664   0.74271   0.00000  Uiso   1.00
C299   C     0.50946   0.12498   0.70271   0.00000  Uiso   1.00
H300   H     0.54006   0.13502   0.90251   0.00000  Uiso   1.00
H301   H     0.56978   0.03008   0.99044   0.00000  Uiso   1.00
H302   H     0.45376   0.23432   0.92680   0.00000  Uiso   1.00
H303   H     0.61300   0.14336   0.79555   0.00000  Uiso   1.00
H304   H     0.57687   0.90956   0.07965   0.00000  Uiso   1.00
H305   H     0.33224   0.34022   0.94545   0.00000  Uiso   1.00
H306   H     0.66803   0.14841   0.66867   0.00000  Uiso   1.00
H307   H     0.34088   0.10272   0.83865   0.00000  Uiso   1.00
H308   H     0.35968   0.99601   0.92307   0.00000  Uiso   1.00
H309   H     0.24366   0.20025   0.85944   0.00000  Uiso   1.00
H310   H     0.40290   0.10929   0.72819   0.00000  Uiso   1.00
H311   H     0.40634   0.88190   0.02498   0.00000  Uiso   1.00
H312   H     0.16171   0.31257   0.89077   0.00000  Uiso   1.00
H313   H     0.49750   0.12075   0.61400   0.00000  Uiso   1.00
O314   O     0.50755   0.82612   0.10902   0.00000  Uiso   1.00
O315   O     0.18661   0.39114   0.93293   0.00000  Uiso   1.00
O316   O     0.62715   0.13948   0.56982   0.00000  Uiso   1.00
N317   N     0.53417   0.91769   0.05519   0.00000  Uiso   1.00
N318   N     0.30545   0.32033   0.92973   0.00000  Uiso   1.00
N319   N     0.61937   0.14102   0.67096   0.00000  Uiso   1.00
N320   N     0.44240   0.90281   0.02577   0.00000  Uiso   1.00
N321   N     0.21369   0.30545   0.90031   0.00000  Uiso   1.00
N322   N     0.52761   0.12613   0.64154   0.00000  Uiso   1.00
C323   C     0.94011   0.37014   0.19034   0.00000  Uiso   1.00
C324   C     0.95337   0.35616   0.12935   0.00000  Uiso   1.00
C325   C     0.00683   0.36961   0.08248   0.00000  Uiso   1.00
C326   C     0.01007   0.35311   0.03031   0.00000  Uiso   1.00
C327   C     0.03807   0.33578   0.93638   0.00000  Uiso   1.00
C328   C     0.94728   0.30864   0.24139   0.00000  Uiso   1.00
C329   C     0.99561   0.28214   0.28873   0.00000  Uiso   1.00
C330   C     0.99373   0.22565   0.33089   0.00000  Uiso   1.00
C331   C     0.01223   0.13457   0.41094   0.00000  Uiso   1.00
C332   C     0.85848   0.40913   0.19390   0.00000  Uiso   1.00
C333   C     0.83214   0.46712   0.20133   0.00000  Uiso   1.00
C334   C     0.75548   0.49522   0.20352   0.00000  Uiso   1.00
C335   C     0.63610   0.56017   0.20985   0.00000  Uiso   1.00
C336   C     0.85081   0.31693   0.18104   0.00000  Uiso   1.00
C337   C     0.90487   0.32726   0.12430   0.00000  Uiso   1.00
C338   C     0.90803   0.31074   0.07218   0.00000  Uiso   1.00
C339   C     0.96148   0.32416   0.02524   0.00000  Uiso   1.00
C340   C     0.89878   0.27974   0.23634   0.00000  Uiso   1.00
C341   C     0.89682   0.22328   0.27844   0.00000  Uiso   1.00
C342   C     0.94514   0.19669   0.32583   0.00000  Uiso   1.00
C343   C     0.80997   0.38023   0.18885   0.00000  Uiso   1.00
C344   C     0.73334   0.40825   0.19104   0.00000  Uiso   1.00
C345   C     0.70689   0.46627   0.19846   0.00000  Uiso   1.00
H346   H     0.97787   0.39263   0.19428   0.00000  Uiso   1.00
H347   H     0.04436   0.39197   0.08641   0.00000  Uiso   1.00
H348   H     0.03314   0.30452   0.29263   0.00000  Uiso   1.00
H349   H     0.86969   0.48947   0.20524   0.00000  Uiso   1.00
H350   H     0.09670   0.37847   0.96459   0.00000  Uiso   1.00
H351   H     0.07303   0.19409   0.39944   0.00000  Uiso   1.00
H352   H     0.72836   0.58408   0.21517   0.00000  Uiso   1.00
H353   H     0.81305   0.29443   0.17710   0.00000  Uiso   1.00
H354   H     0.87049   0.28838   0.06829   0.00000  Uiso   1.00
H355   H     0.85927   0.20093   0.27451   0.00000  Uiso   1.00
H356   H     0.69582   0.38587   0.18712   0.00000  Uiso   1.00
H357   H     0.95559   0.29439   0.94989   0.00000  Uiso   1.00
H358   H     0.93191   0.11001   0.38474   0.00000  Uiso   1.00
H359   H     0.58724   0.50000   0.20046   0.00000  Uiso   1.00
O360   O     0.06692   0.33420   0.88598   0.00000  Uiso   1.00
O361   O     0.03585   0.09231   0.45649   0.00000  Uiso   1.00
O362   O     0.58366   0.60397   0.21472   0.00000  Uiso   1.00
N363   N     0.05560   0.35952   0.97606   0.00000  Uiso   1.00
N364   N     0.03347   0.18713   0.38262   0.00000  Uiso   1.00
N365   N     0.71123   0.55174   0.21035   0.00000  Uiso   1.00
N366   N     0.97966   0.31428   0.96815   0.00000  Uiso   1.00
N367   N     0.95754   0.14189   0.37470   0.00000  Uiso   1.00
N368   N     0.63530   0.50650   0.20244   0.00000  Uiso   1.00
C369   C     0.35835   0.87087   0.42984   0.00000  Uiso   1.00
C370   C     0.27741   0.88919   0.41565   0.00000  Uiso   1.00
C371   C     0.21971   0.93918   0.42596   0.00000  Uiso   1.00
C372   C     0.14962   0.94813   0.40983   0.00000  Uiso   1.00
C373   C     0.02576   0.98262   0.39165   0.00000  Uiso   1.00
C374   C     0.40431   0.86910   0.36906   0.00000  Uiso   1.00
C375   C     0.45332   0.90219   0.34021   0.00000  Uiso   1.00
C376   C     0.49008   0.89421   0.28487   0.00000  Uiso   1.00
C377   C     0.56328   0.89748   0.19439   0.00000  Uiso   1.00
C378   C     0.37835   0.80429   0.47260   0.00000  Uiso   1.00
C379   C     0.40555   0.78289   0.53081   0.00000  Uiso   1.00
C380   C     0.42046   0.72034   0.56264   0.00000  Uiso   1.00
C381   C     0.45334   0.62298   0.63292   0.00000  Uiso   1.00
C382   C     0.33650   0.79784   0.38285   0.00000  Uiso   1.00
C383   C     0.26554   0.84952   0.39012   0.00000  Uiso   1.00
C384   C     0.19553   0.85839   0.37398   0.00000  Uiso   1.00
C385   C     0.13773   0.90839   0.38427   0.00000  Uiso   1.00
C386   C     0.39245   0.82943   0.34354   0.00000  Uiso   1.00
C387   C     0.42915   0.82140   0.28823   0.00000  Uiso   1.00
C388   C     0.47819   0.85448   0.25930   0.00000  Uiso   1.00
C389   C     0.36648   0.76462   0.44708   0.00000  Uiso   1.00
C390   C     0.38136   0.70209   0.47882   0.00000  Uiso   1.00
C391   C     0.40857   0.68060   0.53707   0.00000  Uiso   1.00
H392   H     0.36759   0.90175   0.44971   0.00000  Uiso   1.00
H393   H     0.22891   0.96987   0.44571   0.00000  Uiso   1.00
H394   H     0.46250   0.93288   0.35998   0.00000  Uiso   1.00
H395   H     0.41472   0.81360   0.55054   0.00000  Uiso   1.00
H396   H     0.06994   0.02792   0.43000   0.00000  Uiso   1.00
H397   H     0.56248   0.94990   0.24925   0.00000  Uiso   1.00
H398   H     0.46174   0.69837   0.65109   0.00000  Uiso   1.00
H399   H     0.32726   0.76696   0.36298   0.00000  Uiso   1.00
H400   H     0.18636   0.82769   0.35422   0.00000  Uiso   1.00
H401   H     0.41995   0.79070   0.26849   0.00000  Uiso   1.00
H402   H     0.37217   0.67141   0.45906   0.00000  Uiso   1.00
H403   H     0.03540   0.91252   0.35575   0.00000  Uiso   1.00
H404   H     0.52795   0.83450   0.17499   0.00000  Uiso   1.00
H405   H     0.42720   0.58297   0.57683   0.00000  Uiso   1.00
O406   O     0.96071   0.01261   0.38866   0.00000  Uiso   1.00
O407   O     0.60693   0.91025   0.15152   0.00000  Uiso   1.00
O408   O     0.47475   0.58024   0.67873   0.00000  Uiso   1.00
N409   N     0.08114   0.99242   0.41374   0.00000  Uiso   1.00
N410   N     0.54164   0.91949   0.24474   0.00000  Uiso   1.00
N411   N     0.44747   0.68432   0.62042   0.00000  Uiso   1.00
N412   N     0.06256   0.93032   0.37378   0.00000  Uiso   1.00
N413   N     0.52305   0.85739   0.20478   0.00000  Uiso   1.00
N414   N     0.42888   0.62222   0.58047   0.00000  Uiso   1.00
C415   C     0.09979   0.31068   0.54441   0.00000  Uiso   1.00
C416   C     0.05838   0.35308   0.48641   0.00000  Uiso   1.00
C417   C     0.08170   0.39763   0.43859   0.00000  Uiso   1.00
C418   C     0.03593   0.43167   0.38959   0.00000  Uiso   1.00
C419   C     0.98175   0.49908   0.29972   0.00000  Uiso   1.00
C420   C     0.04522   0.32106   0.59914   0.00000  Uiso   1.00
C421   C     0.05748   0.33869   0.64611   0.00000  Uiso   1.00
C422   C     0.00064   0.34577   0.69201   0.00000  Uiso   1.00
C423   C     0.92605   0.36343   0.77718   0.00000  Uiso   1.00
C424   C     0.11164   0.24502   0.54632   0.00000  Uiso   1.00
C425   C     0.17976   0.19870   0.54889   0.00000  Uiso   1.00
C426   C     0.17883   0.14176   0.55033   0.00000  Uiso   1.00
C427   C     0.20737   0.04136   0.55348   0.00000  Uiso   1.00
C428   C     0.97702   0.29190   0.54243   0.00000  Uiso   1.00
C429   C     0.99169   0.34288   0.48534   0.00000  Uiso   1.00
C430   C     0.94587   0.37686   0.43640   0.00000  Uiso   1.00
C431   C     0.96913   0.42145   0.38852   0.00000  Uiso   1.00
C432   C     0.97854   0.31087   0.59807   0.00000  Uiso   1.00
C433   C     0.92166   0.31792   0.64392   0.00000  Uiso   1.00
C434   C     0.93383   0.33555   0.69094   0.00000  Uiso   1.00
C435   C     0.04496   0.23483   0.54525   0.00000  Uiso   1.00
C436   C     0.04393   0.17794   0.54669   0.00000  Uiso   1.00
C437   C     0.11203   0.13154   0.54926   0.00000  Uiso   1.00
H438   H     0.15170   0.31861   0.54525   0.00000  Uiso   1.00
H439   H     0.13331   0.40551   0.43944   0.00000  Uiso   1.00
H440   H     0.10910   0.34657   0.64693   0.00000  Uiso   1.00
H441   H     0.23135   0.20661   0.54971   0.00000  Uiso   1.00
H442   H     0.08349   0.49736   0.32167   0.00000  Uiso   1.00
H443   H     0.03245   0.37307   0.75918   0.00000  Uiso   1.00
H444   H     0.29024   0.07794   0.55419   0.00000  Uiso   1.00
H445   H     0.92510   0.28397   0.54160   0.00000  Uiso   1.00
H446   H     0.89427   0.36896   0.43559   0.00000  Uiso   1.00
H447   H     0.87006   0.31002   0.64308   0.00000  Uiso   1.00
H448   H     0.99231   0.17007   0.54586   0.00000  Uiso   1.00
H449   H     0.88948   0.46770   0.31855   0.00000  Uiso   1.00
H450   H     0.83844   0.34341   0.75606   0.00000  Uiso   1.00
H451   H     0.09623   0.04828   0.55107   0.00000  Uiso   1.00
O452   O     0.97028   0.53909   0.25045   0.00000  Uiso   1.00
O453   O     0.90333   0.37600   0.82445   0.00000  Uiso   1.00
O454   O     0.24154   0.98880   0.55550   0.00000  Uiso   1.00
N455   N     0.04207   0.47871   0.33548   0.00000  Uiso   1.00
N456   N     0.99435   0.36251   0.74452   0.00000  Uiso   1.00
N457   N     0.23536   0.08659   0.55289   0.00000  Uiso   1.00
N458   N     0.93768   0.46275   0.33380   0.00000  Uiso   1.00
N459   N     0.88995   0.34655   0.74284   0.00000  Uiso   1.00
N460   N     0.13096   0.07063   0.55121   0.00000  Uiso   1.00
C461   C     0.68833   0.68380   0.81413   0.00000  Uiso   1.00
C462   C     0.68241   0.62859   0.80157   0.00000  Uiso   1.00
C463   C     0.73333   0.56949   0.81720   0.00000  Uiso   1.00
C464   C     0.71787   0.52539   0.80172   0.00000  Uiso   1.00
C465   C     0.71844   0.43746   0.78677   0.00000  Uiso   1.00
C466   C     0.68494   0.73394   0.75146   0.00000  Uiso   1.00
C467   C     0.73799   0.76343   0.72495   0.00000  Uiso   1.00
C468   C     0.72465   0.80802   0.66728   0.00000  Uiso   1.00
C469   C     0.72913   0.88369   0.57455   0.00000  Uiso   1.00
C470   C     0.61678   0.70721   0.85145   0.00000  Uiso   1.00
C471   C     0.61251   0.71424   0.90901   0.00000  Uiso   1.00
C472   C     0.54179   0.73634   0.93552   0.00000  Uiso   1.00
C473   C     0.44044   0.77049   0.99803   0.00000  Uiso   1.00
C474   C     0.57033   0.71056   0.75883   0.00000  Uiso   1.00
C475   C     0.61831   0.64312   0.77154   0.00000  Uiso   1.00
C476   C     0.60277   0.59910   0.75603   0.00000  Uiso   1.00
C477   C     0.65366   0.53995   0.77163   0.00000  Uiso   1.00
C478   C     0.62085   0.74848   0.72142   0.00000  Uiso   1.00
C479   C     0.60743   0.79304   0.66378   0.00000  Uiso   1.00
C480   C     0.66044   0.82259   0.63719   0.00000  Uiso   1.00
C481   C     0.55269   0.72174   0.82141   0.00000  Uiso   1.00
C482   C     0.48196   0.74384   0.84783   0.00000  Uiso   1.00
C483   C     0.47758   0.75090   0.90543   0.00000  Uiso   1.00
H484   H     0.73823   0.67249   0.83750   0.00000  Uiso   1.00
H485   H     0.78293   0.55826   0.84044   0.00000  Uiso   1.00
H486   H     0.78758   0.75218   0.74821   0.00000  Uiso   1.00
H487   H     0.66212   0.70299   0.93224   0.00000  Uiso   1.00
H488   H     0.80423   0.43804   0.83043   0.00000  Uiso   1.00
H489   H     0.81402   0.84694   0.63597   0.00000  Uiso   1.00
H490   H     0.54948   0.74321   0.02403   0.00000  Uiso   1.00
H491   H     0.52043   0.72188   0.73544   0.00000  Uiso   1.00
H492   H     0.55317   0.61036   0.73278   0.00000  Uiso   1.00
H493   H     0.55782   0.80428   0.64055   0.00000  Uiso   1.00
H494   H     0.43237   0.75508   0.82458   0.00000  Uiso   1.00
H495   H     0.61775   0.48033   0.74305   0.00000  Uiso   1.00
H496   H     0.62755   0.88922   0.54858   0.00000  Uiso   1.00
H497   H     0.36301   0.78549   0.93664   0.00000  Uiso   1.00
O498   O     0.73647   0.38494   0.78681   0.00000  Uiso   1.00
O499   O     0.74932   0.92140   0.53169   0.00000  Uiso   1.00
O500   O     0.40225   0.78531   0.04082   0.00000  Uiso   1.00
N501   N     0.75584   0.46330   0.81024   0.00000  Uiso   1.00
N502   N     0.76500   0.84558   0.62843   0.00000  Uiso   1.00
N503   N     0.51768   0.74862   0.99122   0.00000  Uiso   1.00
N504   N     0.65550   0.48605   0.76322   0.00000  Uiso   1.00
N505   N     0.66466   0.86833   0.58141   0.00000  Uiso   1.00
N506   N     0.41734   0.77137   0.94420   0.00000  Uiso   1.00
C507   C     0.92629   0.86485   0.27717   0.00000  Uiso   1.00
C508   C     0.84835   0.87159   0.30883   0.00000  Uiso   1.00
C509   C     0.82316   0.88729   0.36272   0.00000  Uiso   1.00
C510   C     0.74999   0.89107   0.38427   0.00000  Uiso   1.00
C511   C     0.63602   0.90326   0.43821   0.00000  Uiso   1.00
C512   C     0.95652   0.79982   0.27222   0.00000  Uiso   1.00
C513   C     0.02228   0.75520   0.29532   0.00000  Uiso   1.00
C514   C     0.04017   0.69857   0.28605   0.00000  Uiso   1.00
C515   C     0.09416   0.59935   0.28311   0.00000  Uiso   1.00
C516   C     0.91566   0.90859   0.21101   0.00000  Uiso   1.00
C517   C     0.94706   0.95541   0.18264   0.00000  Uiso   1.00
C518   C     0.93056   0.99034   0.12182   0.00000  Uiso   1.00
C519   C     0.92110   0.06000   0.02384   0.00000  Uiso   1.00
C520   C     0.84116   0.84363   0.21960   0.00000  Uiso   1.00
C521   C     0.80211   0.86006   0.27756   0.00000  Uiso   1.00
C522   C     0.72896   0.86381   0.29903   0.00000  Uiso   1.00
C523   C     0.70366   0.87953   0.35295   0.00000  Uiso   1.00
C524   C     0.91028   0.78829   0.24096   0.00000  Uiso   1.00
C525   C     0.92808   0.73172   0.23164   0.00000  Uiso   1.00
C526   C     0.99384   0.68702   0.25473   0.00000  Uiso   1.00
C527   C     0.86941   0.89706   0.17974   0.00000  Uiso   1.00
C528   C     0.85287   0.93193   0.11895   0.00000  Uiso   1.00
C529   C     0.88424   0.97879   0.09050   0.00000  Uiso   1.00
H530   H     0.96230   0.87382   0.30151   0.00000  Uiso   1.00
H531   H     0.85896   0.89621   0.38691   0.00000  Uiso   1.00
H532   H     0.05805   0.76413   0.31951   0.00000  Uiso   1.00
H533   H     0.98285   0.96431   0.20685   0.00000  Uiso   1.00
H534   H     0.72401   0.91592   0.46781   0.00000  Uiso   1.00
H535   H     0.14382   0.63744   0.32569   0.00000  Uiso   1.00
H536   H     0.98524   0.05956   0.08811   0.00000  Uiso   1.00
H537   H     0.80515   0.83465   0.19526   0.00000  Uiso   1.00
H538   H     0.69319   0.85489   0.27483   0.00000  Uiso   1.00
H539   H     0.89229   0.72281   0.20744   0.00000  Uiso   1.00
H540   H     0.81708   0.92299   0.09477   0.00000  Uiso   1.00
H541   H     0.58947   0.88238   0.37684   0.00000  Uiso   1.00
H542   H     0.00928   0.60390   0.23472   0.00000  Uiso   1.00
H543   H     0.85069   0.02602   0.99715   0.00000  Uiso   1.00
O544   O     0.58593   0.91315   0.47660   0.00000  Uiso   1.00
O545   O     0.13671   0.54781   0.29013   0.00000  Uiso   1.00
O546   O     0.92865   0.10162   0.97844   0.00000  Uiso   1.00
N547   N     0.70771   0.90526   0.43547   0.00000  Uiso   1.00
N548   N     0.10020   0.64490   0.30261   0.00000  Uiso   1.00
N549   N     0.95195   0.03953   0.08049   0.00000  Uiso   1.00
N550   N     0.63531   0.88722   0.38653   0.00000  Uiso   1.00
N551   N     0.02780   0.62685   0.25366   0.00000  Uiso   1.00
N552   N     0.87955   0.02149   0.03154   0.00000  Uiso   1.00
