data_job_03984
_audit_creation_date              2018-12-19
_audit_creation_method            'Materials Studio'
_symmetry_space_group_name_H-M    'P1'
_symmetry_Int_Tables_number       1
_symmetry_cell_setting            triclinic
loop_
_symmetry_equiv_pos_as_xyz
  x,y,z
_cell_length_a                    13.6943
_cell_length_b                    9.6952
_cell_length_c                    39.3003
_cell_angle_alpha                 90.0000
_cell_angle_beta                  90.0000
_cell_angle_gamma                 90.0000
loop_
_atom_site_label
_atom_site_type_symbol
_atom_site_fract_x
_atom_site_fract_y
_atom_site_fract_z
_atom_site_U_iso_or_equiv
_atom_site_adp_type
_atom_site_occupancy
C1     C     0.17518   0.98440   0.11080   0.00000  Uiso   1.00
C2     C     0.18119   0.06848   0.07807   0.00000  Uiso   1.00
C3     C     0.26215   0.07837   0.05698   0.00000  Uiso   1.00
C4     C     0.25299   0.16057   0.02822   0.00000  Uiso   1.00
C5     C     0.27558   0.28057   0.97854   0.00000  Uiso   1.00
C6     C     0.14589   0.08566   0.13868   0.00000  Uiso   1.00
C7     C     0.19717   0.10997   0.16855   0.00000  Uiso   1.00
C8     C     0.15828   0.20662   0.19082   0.00000  Uiso   1.00
C9     C     0.12603   0.35321   0.23524   0.00000  Uiso   1.00
C10    C     0.08865   0.88706   0.10636   0.00000  Uiso   1.00
C11    C     0.09178   0.74440   0.10906   0.00000  Uiso   1.00
C12    C     0.00469   0.67385   0.10413   0.00000  Uiso   1.00
C13    C     0.88356   0.51210   0.09837   0.00000  Uiso   1.00
C14    C     0.01494   0.11278   0.09726   0.00000  Uiso   1.00
C15    C     0.09416   0.13821   0.07072   0.00000  Uiso   1.00
C16    C     0.08487   0.22041   0.04199   0.00000  Uiso   1.00
C17    C     0.16580   0.23042   0.02085   0.00000  Uiso   1.00
C18    C     0.05886   0.15539   0.13133   0.00000  Uiso   1.00
C19    C     0.01989   0.25201   0.15356   0.00000  Uiso   1.00
C20    C     0.07109   0.27648   0.18345   0.00000  Uiso   1.00
C21    C     0.00161   0.95679   0.09901   0.00000  Uiso   1.00
C22    C     0.91450   0.88645   0.09407   0.00000  Uiso   1.00
C23    C     0.91750   0.74371   0.09676   0.00000  Uiso   1.00
H24    H     0.24294   0.93012   0.11653   0.00000  Uiso   1.00
H25    H     0.32950   0.02440   0.06268   0.00000  Uiso   1.00
H26    H     0.26451   0.05599   0.17424   0.00000  Uiso   1.00
H27    H     0.15914   0.69048   0.11475   0.00000  Uiso   1.00
H28    H     0.38709   0.15973   0.99974   0.00000  Uiso   1.00
H29    H     0.25006   0.22629   0.23497   0.00000  Uiso   1.00
H30    H     0.02786   0.45554   0.10954   0.00000  Uiso   1.00
H31    H     0.94718   0.16707   0.09153   0.00000  Uiso   1.00
H32    H     0.01750   0.27436   0.03631   0.00000  Uiso   1.00
H33    H     0.95253   0.30595   0.14786   0.00000  Uiso   1.00
H34    H     0.84716   0.94044   0.08838   0.00000  Uiso   1.00
H35    H     0.13387   0.36261   0.97833   0.00000  Uiso   1.00
H36    H     0.99684   0.42917   0.21356   0.00000  Uiso   1.00
H37    H     0.77464   0.65842   0.08814   0.00000  Uiso   1.00
O38    O     0.31209   0.32751   0.95316   0.00000  Uiso   1.00
O39    O     0.13230   0.41481   0.26178   0.00000  Uiso   1.00
O40    O     0.84079   0.40361   0.09722   0.00000  Uiso   1.00
N41    N     0.31783   0.19273   0.00227   0.00000  Uiso   1.00
N42    N     0.18973   0.25498   0.22220   0.00000  Uiso   1.00
N43    N     0.98199   0.53440   0.10494   0.00000  Uiso   1.00
N44    N     0.18158   0.30190   0.99076   0.00000  Uiso   1.00
N45    N     0.05347   0.36415   0.21068   0.00000  Uiso   1.00
N46    N     0.84573   0.64356   0.09343   0.00000  Uiso   1.00
C47    C     0.32482   0.51560   0.61080   0.00000  Uiso   1.00
C48    C     0.31881   0.43152   0.57807   0.00000  Uiso   1.00
C49    C     0.23785   0.42163   0.55698   0.00000  Uiso   1.00
C50    C     0.24701   0.33943   0.52822   0.00000  Uiso   1.00
C51    C     0.22442   0.21943   0.47854   0.00000  Uiso   1.00
C52    C     0.35411   0.41434   0.63868   0.00000  Uiso   1.00
C53    C     0.30283   0.39003   0.66855   0.00000  Uiso   1.00
C54    C     0.34172   0.29338   0.69082   0.00000  Uiso   1.00
C55    C     0.37397   0.14679   0.73524   0.00000  Uiso   1.00
C56    C     0.41135   0.61294   0.60636   0.00000  Uiso   1.00
C57    C     0.40822   0.75560   0.60906   0.00000  Uiso   1.00
C58    C     0.49531   0.82615   0.60413   0.00000  Uiso   1.00
C59    C     0.61644   0.98790   0.59837   0.00000  Uiso   1.00
C60    C     0.48506   0.38722   0.59726   0.00000  Uiso   1.00
C61    C     0.40584   0.36179   0.57072   0.00000  Uiso   1.00
C62    C     0.41513   0.27959   0.54199   0.00000  Uiso   1.00
C63    C     0.33420   0.26958   0.52085   0.00000  Uiso   1.00
C64    C     0.44114   0.34461   0.63133   0.00000  Uiso   1.00
C65    C     0.48011   0.24799   0.65356   0.00000  Uiso   1.00
C66    C     0.42891   0.22352   0.68345   0.00000  Uiso   1.00
C67    C     0.49839   0.54321   0.59901   0.00000  Uiso   1.00
C68    C     0.58550   0.61355   0.59407   0.00000  Uiso   1.00
C69    C     0.58250   0.75629   0.59676   0.00000  Uiso   1.00
H70    H     0.25706   0.56988   0.61653   0.00000  Uiso   1.00
H71    H     0.17050   0.47560   0.56268   0.00000  Uiso   1.00
H72    H     0.23549   0.44401   0.67424   0.00000  Uiso   1.00
H73    H     0.34086   0.80952   0.61475   0.00000  Uiso   1.00
H74    H     0.11291   0.34027   0.49974   0.00000  Uiso   1.00
H75    H     0.24994   0.27371   0.73497   0.00000  Uiso   1.00
H76    H     0.47214   0.04446   0.60954   0.00000  Uiso   1.00
H77    H     0.55282   0.33293   0.59153   0.00000  Uiso   1.00
H78    H     0.48250   0.22564   0.53631   0.00000  Uiso   1.00
H79    H     0.54747   0.19405   0.64786   0.00000  Uiso   1.00
H80    H     0.65284   0.55956   0.58838   0.00000  Uiso   1.00
H81    H     0.36613   0.13739   0.47833   0.00000  Uiso   1.00
H82    H     0.50316   0.07083   0.71356   0.00000  Uiso   1.00
H83    H     0.72536   0.84158   0.58814   0.00000  Uiso   1.00
O84    O     0.18791   0.17249   0.45316   0.00000  Uiso   1.00
O85    O     0.36770   0.08519   0.76178   0.00000  Uiso   1.00
O86    O     0.65921   0.09639   0.59722   0.00000  Uiso   1.00
N87    N     0.18217   0.30727   0.50227   0.00000  Uiso   1.00
N88    N     0.31027   0.24502   0.72220   0.00000  Uiso   1.00
N89    N     0.51801   0.96560   0.60494   0.00000  Uiso   1.00
N90    N     0.31842   0.19810   0.49076   0.00000  Uiso   1.00
N91    N     0.44653   0.13585   0.71068   0.00000  Uiso   1.00
N92    N     0.65427   0.85644   0.59343   0.00000  Uiso   1.00
C93    C     0.82482   0.98440   0.38920   0.00000  Uiso   1.00
C94    C     0.81881   0.06848   0.42193   0.00000  Uiso   1.00
C95    C     0.73785   0.07837   0.44302   0.00000  Uiso   1.00
C96    C     0.74701   0.16057   0.47178   0.00000  Uiso   1.00
C97    C     0.72442   0.28057   0.52146   0.00000  Uiso   1.00
C98    C     0.85411   0.08566   0.36132   0.00000  Uiso   1.00
C99    C     0.80283   0.10997   0.33145   0.00000  Uiso   1.00
C100   C     0.84172   0.20662   0.30918   0.00000  Uiso   1.00
C101   C     0.87397   0.35321   0.26476   0.00000  Uiso   1.00
C102   C     0.91135   0.88706   0.39364   0.00000  Uiso   1.00
C103   C     0.90822   0.74440   0.39094   0.00000  Uiso   1.00
C104   C     0.99531   0.67385   0.39587   0.00000  Uiso   1.00
C105   C     0.11644   0.51210   0.40163   0.00000  Uiso   1.00
C106   C     0.98506   0.11278   0.40274   0.00000  Uiso   1.00
C107   C     0.90584   0.13821   0.42928   0.00000  Uiso   1.00
C108   C     0.91513   0.22041   0.45801   0.00000  Uiso   1.00
C109   C     0.83420   0.23042   0.47915   0.00000  Uiso   1.00
C110   C     0.94114   0.15539   0.36867   0.00000  Uiso   1.00
C111   C     0.98011   0.25201   0.34644   0.00000  Uiso   1.00
C112   C     0.92891   0.27648   0.31655   0.00000  Uiso   1.00
C113   C     0.99839   0.95679   0.40099   0.00000  Uiso   1.00
C114   C     0.08550   0.88645   0.40593   0.00000  Uiso   1.00
C115   C     0.08250   0.74371   0.40324   0.00000  Uiso   1.00
H116   H     0.75706   0.93012   0.38347   0.00000  Uiso   1.00
H117   H     0.67050   0.02440   0.43732   0.00000  Uiso   1.00
H118   H     0.73549   0.05599   0.32576   0.00000  Uiso   1.00
H119   H     0.84086   0.69048   0.38525   0.00000  Uiso   1.00
H120   H     0.61291   0.15973   0.50026   0.00000  Uiso   1.00
H121   H     0.74994   0.22629   0.26503   0.00000  Uiso   1.00
H122   H     0.97214   0.45554   0.39046   0.00000  Uiso   1.00
H123   H     0.05282   0.16707   0.40847   0.00000  Uiso   1.00
H124   H     0.98250   0.27436   0.46369   0.00000  Uiso   1.00
H125   H     0.04747   0.30595   0.35214   0.00000  Uiso   1.00
H126   H     0.15284   0.94044   0.41162   0.00000  Uiso   1.00
H127   H     0.86613   0.36261   0.52167   0.00000  Uiso   1.00
H128   H     0.00316   0.42917   0.28644   0.00000  Uiso   1.00
H129   H     0.22536   0.65842   0.41186   0.00000  Uiso   1.00
O130   O     0.68791   0.32751   0.54684   0.00000  Uiso   1.00
O131   O     0.86770   0.41481   0.23822   0.00000  Uiso   1.00
O132   O     0.15921   0.40361   0.40278   0.00000  Uiso   1.00
N133   N     0.68217   0.19273   0.49773   0.00000  Uiso   1.00
N134   N     0.81027   0.25498   0.27780   0.00000  Uiso   1.00
N135   N     0.01801   0.53440   0.39506   0.00000  Uiso   1.00
N136   N     0.81842   0.30190   0.50924   0.00000  Uiso   1.00
N137   N     0.94653   0.36415   0.28932   0.00000  Uiso   1.00
N138   N     0.15427   0.64356   0.40657   0.00000  Uiso   1.00
C139   C     0.67518   0.51560   0.88920   0.00000  Uiso   1.00
C140   C     0.68119   0.43152   0.92193   0.00000  Uiso   1.00
C141   C     0.76215   0.42163   0.94302   0.00000  Uiso   1.00
C142   C     0.75299   0.33943   0.97178   0.00000  Uiso   1.00
C143   C     0.77558   0.21943   0.02146   0.00000  Uiso   1.00
C144   C     0.64589   0.41434   0.86132   0.00000  Uiso   1.00
C145   C     0.69717   0.39003   0.83145   0.00000  Uiso   1.00
C146   C     0.65828   0.29338   0.80918   0.00000  Uiso   1.00
C147   C     0.62603   0.14679   0.76476   0.00000  Uiso   1.00
C148   C     0.58865   0.61294   0.89364   0.00000  Uiso   1.00
C149   C     0.59178   0.75560   0.89094   0.00000  Uiso   1.00
C150   C     0.50469   0.82615   0.89587   0.00000  Uiso   1.00
C151   C     0.38356   0.98790   0.90163   0.00000  Uiso   1.00
C152   C     0.51494   0.38722   0.90274   0.00000  Uiso   1.00
C153   C     0.59416   0.36179   0.92928   0.00000  Uiso   1.00
C154   C     0.58487   0.27959   0.95801   0.00000  Uiso   1.00
C155   C     0.66580   0.26958   0.97915   0.00000  Uiso   1.00
C156   C     0.55886   0.34461   0.86867   0.00000  Uiso   1.00
C157   C     0.51989   0.24799   0.84644   0.00000  Uiso   1.00
C158   C     0.57109   0.22352   0.81655   0.00000  Uiso   1.00
C159   C     0.50161   0.54321   0.90099   0.00000  Uiso   1.00
C160   C     0.41450   0.61355   0.90593   0.00000  Uiso   1.00
C161   C     0.41750   0.75629   0.90324   0.00000  Uiso   1.00
H162   H     0.74294   0.56988   0.88347   0.00000  Uiso   1.00
H163   H     0.82950   0.47560   0.93732   0.00000  Uiso   1.00
H164   H     0.76451   0.44401   0.82576   0.00000  Uiso   1.00
H165   H     0.65914   0.80952   0.88525   0.00000  Uiso   1.00
H166   H     0.88709   0.34027   0.00026   0.00000  Uiso   1.00
H167   H     0.75006   0.27371   0.76503   0.00000  Uiso   1.00
H168   H     0.52786   0.04446   0.89046   0.00000  Uiso   1.00
H169   H     0.44718   0.33293   0.90847   0.00000  Uiso   1.00
H170   H     0.51750   0.22564   0.96369   0.00000  Uiso   1.00
H171   H     0.45253   0.19405   0.85214   0.00000  Uiso   1.00
H172   H     0.34716   0.55956   0.91162   0.00000  Uiso   1.00
H173   H     0.63387   0.13739   0.02167   0.00000  Uiso   1.00
H174   H     0.49684   0.07083   0.78644   0.00000  Uiso   1.00
H175   H     0.27464   0.84158   0.91186   0.00000  Uiso   1.00
O176   O     0.81209   0.17249   0.04684   0.00000  Uiso   1.00
O177   O     0.63230   0.08519   0.73822   0.00000  Uiso   1.00
O178   O     0.34079   0.09639   0.90278   0.00000  Uiso   1.00
N179   N     0.81783   0.30727   0.99773   0.00000  Uiso   1.00
N180   N     0.68973   0.24502   0.77780   0.00000  Uiso   1.00
N181   N     0.48199   0.96560   0.89506   0.00000  Uiso   1.00
N182   N     0.68158   0.19810   0.00924   0.00000  Uiso   1.00
N183   N     0.55347   0.13585   0.78932   0.00000  Uiso   1.00
N184   N     0.34573   0.85644   0.90657   0.00000  Uiso   1.00
C185   C     0.82482   0.01560   0.88920   0.00000  Uiso   1.00
C186   C     0.81881   0.93152   0.92193   0.00000  Uiso   1.00
C187   C     0.73785   0.92163   0.94302   0.00000  Uiso   1.00
C188   C     0.74701   0.83943   0.97178   0.00000  Uiso   1.00
C189   C     0.72442   0.71943   0.02146   0.00000  Uiso   1.00
C190   C     0.85411   0.91434   0.86132   0.00000  Uiso   1.00
C191   C     0.80283   0.89003   0.83145   0.00000  Uiso   1.00
C192   C     0.84172   0.79338   0.80918   0.00000  Uiso   1.00
C193   C     0.87397   0.64679   0.76476   0.00000  Uiso   1.00
C194   C     0.91135   0.11294   0.89364   0.00000  Uiso   1.00
C195   C     0.90822   0.25560   0.89094   0.00000  Uiso   1.00
C196   C     0.99531   0.32615   0.89587   0.00000  Uiso   1.00
C197   C     0.11644   0.48790   0.90163   0.00000  Uiso   1.00
C198   C     0.98506   0.88722   0.90274   0.00000  Uiso   1.00
C199   C     0.90584   0.86179   0.92928   0.00000  Uiso   1.00
C200   C     0.91513   0.77959   0.95801   0.00000  Uiso   1.00
C201   C     0.83420   0.76958   0.97915   0.00000  Uiso   1.00
C202   C     0.94114   0.84461   0.86867   0.00000  Uiso   1.00
C203   C     0.98011   0.74799   0.84644   0.00000  Uiso   1.00
C204   C     0.92891   0.72352   0.81655   0.00000  Uiso   1.00
C205   C     0.99839   0.04321   0.90099   0.00000  Uiso   1.00
C206   C     0.08550   0.11355   0.90593   0.00000  Uiso   1.00
C207   C     0.08250   0.25629   0.90324   0.00000  Uiso   1.00
H208   H     0.75706   0.06988   0.88347   0.00000  Uiso   1.00
H209   H     0.67050   0.97560   0.93732   0.00000  Uiso   1.00
H210   H     0.73549   0.94401   0.82576   0.00000  Uiso   1.00
H211   H     0.84086   0.30952   0.88525   0.00000  Uiso   1.00
H212   H     0.61291   0.84027   0.00026   0.00000  Uiso   1.00
H213   H     0.74994   0.77371   0.76503   0.00000  Uiso   1.00
H214   H     0.97214   0.54446   0.89046   0.00000  Uiso   1.00
H215   H     0.05282   0.83293   0.90847   0.00000  Uiso   1.00
H216   H     0.98250   0.72564   0.96369   0.00000  Uiso   1.00
H217   H     0.04747   0.69405   0.85214   0.00000  Uiso   1.00
H218   H     0.15284   0.05956   0.91162   0.00000  Uiso   1.00
H219   H     0.86613   0.63739   0.02167   0.00000  Uiso   1.00
H220   H     0.00316   0.57083   0.78644   0.00000  Uiso   1.00
H221   H     0.22536   0.34158   0.91186   0.00000  Uiso   1.00
O222   O     0.68791   0.67249   0.04684   0.00000  Uiso   1.00
O223   O     0.86770   0.58519   0.73822   0.00000  Uiso   1.00
O224   O     0.15921   0.59639   0.90278   0.00000  Uiso   1.00
N225   N     0.68217   0.80727   0.99773   0.00000  Uiso   1.00
N226   N     0.81027   0.74502   0.77780   0.00000  Uiso   1.00
N227   N     0.01801   0.46560   0.89506   0.00000  Uiso   1.00
N228   N     0.81842   0.69810   0.00924   0.00000  Uiso   1.00
N229   N     0.94653   0.63585   0.78932   0.00000  Uiso   1.00
N230   N     0.15427   0.35644   0.90657   0.00000  Uiso   1.00
C231   C     0.67518   0.48440   0.38920   0.00000  Uiso   1.00
C232   C     0.68119   0.56848   0.42193   0.00000  Uiso   1.00
C233   C     0.76215   0.57837   0.44302   0.00000  Uiso   1.00
C234   C     0.75299   0.66057   0.47178   0.00000  Uiso   1.00
C235   C     0.77558   0.78057   0.52146   0.00000  Uiso   1.00
C236   C     0.64589   0.58566   0.36132   0.00000  Uiso   1.00
C237   C     0.69717   0.60997   0.33145   0.00000  Uiso   1.00
C238   C     0.65828   0.70662   0.30918   0.00000  Uiso   1.00
C239   C     0.62603   0.85321   0.26476   0.00000  Uiso   1.00
C240   C     0.58865   0.38706   0.39364   0.00000  Uiso   1.00
C241   C     0.59178   0.24440   0.39094   0.00000  Uiso   1.00
C242   C     0.50469   0.17385   0.39587   0.00000  Uiso   1.00
C243   C     0.38356   0.01210   0.40163   0.00000  Uiso   1.00
C244   C     0.51494   0.61278   0.40274   0.00000  Uiso   1.00
C245   C     0.59416   0.63821   0.42928   0.00000  Uiso   1.00
C246   C     0.58487   0.72041   0.45801   0.00000  Uiso   1.00
C247   C     0.66580   0.73042   0.47915   0.00000  Uiso   1.00
C248   C     0.55886   0.65539   0.36867   0.00000  Uiso   1.00
C249   C     0.51989   0.75201   0.34644   0.00000  Uiso   1.00
C250   C     0.57109   0.77648   0.31655   0.00000  Uiso   1.00
C251   C     0.50161   0.45679   0.40099   0.00000  Uiso   1.00
C252   C     0.41450   0.38645   0.40593   0.00000  Uiso   1.00
C253   C     0.41750   0.24371   0.40324   0.00000  Uiso   1.00
H254   H     0.74294   0.43012   0.38347   0.00000  Uiso   1.00
H255   H     0.82950   0.52440   0.43732   0.00000  Uiso   1.00
H256   H     0.76451   0.55599   0.32576   0.00000  Uiso   1.00
H257   H     0.65914   0.19048   0.38525   0.00000  Uiso   1.00
H258   H     0.88709   0.65973   0.50026   0.00000  Uiso   1.00
H259   H     0.75006   0.72629   0.26503   0.00000  Uiso   1.00
H260   H     0.52786   0.95554   0.39046   0.00000  Uiso   1.00
H261   H     0.44718   0.66707   0.40847   0.00000  Uiso   1.00
H262   H     0.51750   0.77436   0.46369   0.00000  Uiso   1.00
H263   H     0.45253   0.80595   0.35214   0.00000  Uiso   1.00
H264   H     0.34716   0.44044   0.41162   0.00000  Uiso   1.00
H265   H     0.63387   0.86261   0.52167   0.00000  Uiso   1.00
H266   H     0.49684   0.92917   0.28644   0.00000  Uiso   1.00
H267   H     0.27464   0.15842   0.41186   0.00000  Uiso   1.00
O268   O     0.81209   0.82751   0.54684   0.00000  Uiso   1.00
O269   O     0.63230   0.91481   0.23822   0.00000  Uiso   1.00
O270   O     0.34079   0.90361   0.40278   0.00000  Uiso   1.00
N271   N     0.81783   0.69273   0.49773   0.00000  Uiso   1.00
N272   N     0.68973   0.75498   0.27780   0.00000  Uiso   1.00
N273   N     0.48199   0.03440   0.39506   0.00000  Uiso   1.00
N274   N     0.68158   0.80190   0.50924   0.00000  Uiso   1.00
N275   N     0.55347   0.86415   0.28932   0.00000  Uiso   1.00
N276   N     0.34573   0.14356   0.40657   0.00000  Uiso   1.00
C277   C     0.17518   0.01560   0.61080   0.00000  Uiso   1.00
C278   C     0.18119   0.93152   0.57807   0.00000  Uiso   1.00
C279   C     0.26215   0.92163   0.55698   0.00000  Uiso   1.00
C280   C     0.25299   0.83943   0.52822   0.00000  Uiso   1.00
C281   C     0.27558   0.71943   0.47854   0.00000  Uiso   1.00
C282   C     0.14589   0.91434   0.63868   0.00000  Uiso   1.00
C283   C     0.19717   0.89003   0.66855   0.00000  Uiso   1.00
C284   C     0.15828   0.79338   0.69082   0.00000  Uiso   1.00
C285   C     0.12603   0.64679   0.73524   0.00000  Uiso   1.00
C286   C     0.08865   0.11294   0.60636   0.00000  Uiso   1.00
C287   C     0.09178   0.25560   0.60906   0.00000  Uiso   1.00
C288   C     0.00469   0.32615   0.60413   0.00000  Uiso   1.00
C289   C     0.88356   0.48790   0.59837   0.00000  Uiso   1.00
C290   C     0.01494   0.88722   0.59726   0.00000  Uiso   1.00
C291   C     0.09416   0.86179   0.57072   0.00000  Uiso   1.00
C292   C     0.08487   0.77959   0.54199   0.00000  Uiso   1.00
C293   C     0.16580   0.76958   0.52085   0.00000  Uiso   1.00
C294   C     0.05886   0.84461   0.63133   0.00000  Uiso   1.00
C295   C     0.01989   0.74799   0.65356   0.00000  Uiso   1.00
C296   C     0.07109   0.72352   0.68345   0.00000  Uiso   1.00
C297   C     0.00161   0.04321   0.59901   0.00000  Uiso   1.00
C298   C     0.91450   0.11355   0.59407   0.00000  Uiso   1.00
C299   C     0.91750   0.25629   0.59676   0.00000  Uiso   1.00
H300   H     0.24294   0.06988   0.61653   0.00000  Uiso   1.00
H301   H     0.32950   0.97560   0.56268   0.00000  Uiso   1.00
H302   H     0.26451   0.94401   0.67424   0.00000  Uiso   1.00
H303   H     0.15914   0.30952   0.61475   0.00000  Uiso   1.00
H304   H     0.38709   0.84027   0.49974   0.00000  Uiso   1.00
H305   H     0.25006   0.77371   0.73497   0.00000  Uiso   1.00
H306   H     0.02786   0.54446   0.60954   0.00000  Uiso   1.00
H307   H     0.94718   0.83293   0.59153   0.00000  Uiso   1.00
H308   H     0.01750   0.72564   0.53631   0.00000  Uiso   1.00
H309   H     0.95253   0.69405   0.64786   0.00000  Uiso   1.00
H310   H     0.84716   0.05956   0.58838   0.00000  Uiso   1.00
H311   H     0.13387   0.63739   0.47833   0.00000  Uiso   1.00
H312   H     0.99684   0.57083   0.71356   0.00000  Uiso   1.00
H313   H     0.77464   0.34158   0.58814   0.00000  Uiso   1.00
O314   O     0.31209   0.67249   0.45316   0.00000  Uiso   1.00
O315   O     0.13230   0.58519   0.76178   0.00000  Uiso   1.00
O316   O     0.84079   0.59639   0.59722   0.00000  Uiso   1.00
N317   N     0.31783   0.80727   0.50227   0.00000  Uiso   1.00
N318   N     0.18973   0.74502   0.72220   0.00000  Uiso   1.00
N319   N     0.98199   0.46560   0.60494   0.00000  Uiso   1.00
N320   N     0.18158   0.69810   0.49076   0.00000  Uiso   1.00
N321   N     0.05347   0.63585   0.71068   0.00000  Uiso   1.00
N322   N     0.84573   0.35644   0.59343   0.00000  Uiso   1.00
C323   C     0.32482   0.48440   0.11080   0.00000  Uiso   1.00
C324   C     0.31881   0.56848   0.07807   0.00000  Uiso   1.00
C325   C     0.23785   0.57837   0.05698   0.00000  Uiso   1.00
C326   C     0.24701   0.66057   0.02822   0.00000  Uiso   1.00
C327   C     0.22442   0.78057   0.97854   0.00000  Uiso   1.00
C328   C     0.35411   0.58566   0.13868   0.00000  Uiso   1.00
C329   C     0.30283   0.60997   0.16855   0.00000  Uiso   1.00
C330   C     0.34172   0.70662   0.19082   0.00000  Uiso   1.00
C331   C     0.37397   0.85321   0.23524   0.00000  Uiso   1.00
C332   C     0.41135   0.38706   0.10636   0.00000  Uiso   1.00
C333   C     0.40822   0.24440   0.10906   0.00000  Uiso   1.00
C334   C     0.49531   0.17385   0.10413   0.00000  Uiso   1.00
C335   C     0.61644   0.01210   0.09837   0.00000  Uiso   1.00
C336   C     0.48506   0.61278   0.09726   0.00000  Uiso   1.00
C337   C     0.40584   0.63821   0.07072   0.00000  Uiso   1.00
C338   C     0.41513   0.72041   0.04199   0.00000  Uiso   1.00
C339   C     0.33420   0.73042   0.02085   0.00000  Uiso   1.00
C340   C     0.44114   0.65539   0.13133   0.00000  Uiso   1.00
C341   C     0.48011   0.75201   0.15356   0.00000  Uiso   1.00
C342   C     0.42891   0.77648   0.18345   0.00000  Uiso   1.00
C343   C     0.49839   0.45679   0.09901   0.00000  Uiso   1.00
C344   C     0.58550   0.38645   0.09407   0.00000  Uiso   1.00
C345   C     0.58250   0.24371   0.09676   0.00000  Uiso   1.00
H346   H     0.25706   0.43012   0.11653   0.00000  Uiso   1.00
H347   H     0.17050   0.52440   0.06268   0.00000  Uiso   1.00
H348   H     0.23549   0.55599   0.17424   0.00000  Uiso   1.00
H349   H     0.34086   0.19048   0.11475   0.00000  Uiso   1.00
H350   H     0.11291   0.65973   0.99974   0.00000  Uiso   1.00
H351   H     0.24994   0.72629   0.23497   0.00000  Uiso   1.00
H352   H     0.47214   0.95554   0.10954   0.00000  Uiso   1.00
H353   H     0.55282   0.66707   0.09153   0.00000  Uiso   1.00
H354   H     0.48250   0.77436   0.03631   0.00000  Uiso   1.00
H355   H     0.54747   0.80595   0.14786   0.00000  Uiso   1.00
H356   H     0.65284   0.44044   0.08838   0.00000  Uiso   1.00
H357   H     0.36613   0.86261   0.97833   0.00000  Uiso   1.00
H358   H     0.50316   0.92917   0.21356   0.00000  Uiso   1.00
H359   H     0.72536   0.15842   0.08814   0.00000  Uiso   1.00
O360   O     0.18791   0.82751   0.95316   0.00000  Uiso   1.00
O361   O     0.36770   0.91481   0.26178   0.00000  Uiso   1.00
O362   O     0.65921   0.90361   0.09722   0.00000  Uiso   1.00
N363   N     0.18217   0.69273   0.00227   0.00000  Uiso   1.00
N364   N     0.31027   0.75498   0.22220   0.00000  Uiso   1.00
N365   N     0.51801   0.03440   0.10494   0.00000  Uiso   1.00
N366   N     0.31842   0.80190   0.99076   0.00000  Uiso   1.00
N367   N     0.44653   0.86415   0.21068   0.00000  Uiso   1.00
N368   N     0.65427   0.14356   0.09343   0.00000  Uiso   1.00
