data_job_02043
_audit_creation_date              2018-12-19
_audit_creation_method            'Materials Studio'
_symmetry_space_group_name_H-M    'P1'
_symmetry_Int_Tables_number       1
_symmetry_cell_setting            triclinic
loop_
_symmetry_equiv_pos_as_xyz
  x,y,z
_cell_length_a                    12.6277
_cell_length_b                    12.6277
_cell_length_c                    25.0700
_cell_angle_alpha                 90.0000
_cell_angle_beta                  90.0000
_cell_angle_gamma                 120.0000
loop_
_atom_site_label
_atom_site_type_symbol
_atom_site_fract_x
_atom_site_fract_y
_atom_site_fract_z
_atom_site_U_iso_or_equiv
_atom_site_adp_type
_atom_site_occupancy
C1     C     0.46228   0.79622   0.81737   0.00000  Uiso   1.00
C2     C     0.41174   0.68455   0.85370   0.00000  Uiso   1.00
C3     C     0.29249   0.61841   0.87233   0.00000  Uiso   1.00
C4     C     0.26434   0.51921   0.90516   0.00000  Uiso   1.00
C5     C     0.17251   0.35069   0.95951   0.00000  Uiso   1.00
C6     C     0.57125   0.89830   0.84679   0.00000  Uiso   1.00
C7     C     0.58610   0.01187   0.85961   0.00000  Uiso   1.00
C8     C     0.69223   0.09260   0.88661   0.00000  Uiso   1.00
C9     C     0.84806   0.25596   0.93021   0.00000  Uiso   1.00
C10    C     0.51492   0.76571   0.76886   0.00000  Uiso   1.00
C11    C     0.48244   0.76782   0.71615   0.00000  Uiso   1.00
C12    C     0.54118   0.73695   0.67755   0.00000  Uiso   1.00
C13    C     0.60956   0.69444   0.60015   0.00000  Uiso   1.00
C14    C     0.62437   0.73768   0.84254   0.00000  Uiso   1.00
C15    C     0.49979   0.65276   0.86737   0.00000  Uiso   1.00
C16    C     0.47182   0.55363   0.90018   0.00000  Uiso   1.00
C17    C     0.35254   0.48735   0.91885   0.00000  Uiso   1.00
C18    C     0.65929   0.86650   0.86046   0.00000  Uiso   1.00
C19    C     0.76543   0.94709   0.88745   0.00000  Uiso   1.00
C20    C     0.78044   0.06075   0.90031   0.00000  Uiso   1.00
C21    C     0.60297   0.73390   0.78253   0.00000  Uiso   1.00
C22    C     0.66178   0.70304   0.74400   0.00000  Uiso   1.00
C23    C     0.62939   0.70510   0.69125   0.00000  Uiso   1.00
H24    H     0.39374   0.82099   0.80672   0.00000  Uiso   1.00
H25    H     0.22438   0.64305   0.86174   0.00000  Uiso   1.00
H26    H     0.51795   0.03645   0.84902   0.00000  Uiso   1.00
H27    H     0.41431   0.79243   0.70559   0.00000  Uiso   1.00
H28    H     0.07545   0.43178   0.92879   0.00000  Uiso   1.00
H29    H     0.69448   0.26130   0.90194   0.00000  Uiso   1.00
H30    H     0.47593   0.74675   0.59949   0.00000  Uiso   1.00
H31    H     0.69292   0.71293   0.85318   0.00000  Uiso   1.00
H32    H     0.53998   0.52905   0.91075   0.00000  Uiso   1.00
H33    H     0.83355   0.92246   0.89802   0.00000  Uiso   1.00
H34    H     0.72990   0.67844   0.75460   0.00000  Uiso   1.00
H35    H     0.33161   0.33926   0.96857   0.00000  Uiso   1.00
H36    H     0.95064   0.16879   0.94171   0.00000  Uiso   1.00
H37    H     0.73209   0.65422   0.63927   0.00000  Uiso   1.00
O38    O     0.09753   0.26653   0.98573   0.00000  Uiso   1.00
O39    O     0.90968   0.35484   0.95049   0.00000  Uiso   1.00
O40    O     0.62294   0.67975   0.55369   0.00000  Uiso   1.00
N41    N     0.15672   0.43522   0.93024   0.00000  Uiso   1.00
N42    N     0.73547   0.21077   0.90514   0.00000  Uiso   1.00
N43    N     0.53117   0.72974   0.62238   0.00000  Uiso   1.00
N44    N     0.29456   0.38544   0.95164   0.00000  Uiso   1.00
N45    N     0.87330   0.16098   0.92655   0.00000  Uiso   1.00
N46    N     0.66900   0.67995   0.64378   0.00000  Uiso   1.00
C47    C     0.20378   0.66605   0.15070   0.00000  Uiso   1.00
C48    C     0.31545   0.72719   0.18703   0.00000  Uiso   1.00
C49    C     0.38159   0.67408   0.20566   0.00000  Uiso   1.00
C50    C     0.48079   0.74513   0.23849   0.00000  Uiso   1.00
C51    C     0.64931   0.82181   0.29285   0.00000  Uiso   1.00
C52    C     0.10170   0.67295   0.18012   0.00000  Uiso   1.00
C53    C     0.98813   0.57423   0.19294   0.00000  Uiso   1.00
C54    C     0.90740   0.59963   0.21995   0.00000  Uiso   1.00
C55    C     0.74404   0.59210   0.26355   0.00000  Uiso   1.00
C56    C     0.23429   0.74922   0.10220   0.00000  Uiso   1.00
C57    C     0.23218   0.71462   0.04949   0.00000  Uiso   1.00
C58    C     0.26305   0.80423   0.01088   0.00000  Uiso   1.00
C59    C     0.30556   0.91512   0.93349   0.00000  Uiso   1.00
C60    C     0.26232   0.88669   0.17587   0.00000  Uiso   1.00
C61    C     0.34724   0.84703   0.20070   0.00000  Uiso   1.00
C62    C     0.44637   0.91819   0.23351   0.00000  Uiso   1.00
C63    C     0.51265   0.86519   0.25219   0.00000  Uiso   1.00
C64    C     0.13350   0.79278   0.19380   0.00000  Uiso   1.00
C65    C     0.05291   0.81834   0.22079   0.00000  Uiso   1.00
C66    C     0.93925   0.71969   0.23364   0.00000  Uiso   1.00
C67    C     0.26610   0.86906   0.11587   0.00000  Uiso   1.00
C68    C     0.29696   0.95874   0.07734   0.00000  Uiso   1.00
C69    C     0.29490   0.92429   0.02458   0.00000  Uiso   1.00
H70    H     0.17901   0.57275   0.14006   0.00000  Uiso   1.00
H71    H     0.35695   0.58133   0.19508   0.00000  Uiso   1.00
H72    H     0.96355   0.48150   0.18235   0.00000  Uiso   1.00
H73    H     0.20757   0.62187   0.03892   0.00000  Uiso   1.00
H74    H     0.56822   0.64367   0.26212   0.00000  Uiso   1.00
H75    H     0.73870   0.43318   0.23527   0.00000  Uiso   1.00
H76    H     0.25325   0.72919   0.93282   0.00000  Uiso   1.00
H77    H     0.28707   0.98000   0.18651   0.00000  Uiso   1.00
H78    H     0.47095   0.01093   0.24408   0.00000  Uiso   1.00
H79    H     0.07754   0.91109   0.23136   0.00000  Uiso   1.00
H80    H     0.32156   0.05147   0.08793   0.00000  Uiso   1.00
H81    H     0.66074   0.99235   0.30190   0.00000  Uiso   1.00
H82    H     0.83121   0.78185   0.27505   0.00000  Uiso   1.00
H83    H     0.34578   0.07786   0.97260   0.00000  Uiso   1.00
O84    O     0.73347   0.83100   0.31906   0.00000  Uiso   1.00
O85    O     0.64516   0.55484   0.28382   0.00000  Uiso   1.00
O86    O     0.32025   0.94319   0.88702   0.00000  Uiso   1.00
N87    N     0.56478   0.72150   0.26357   0.00000  Uiso   1.00
N88    N     0.78923   0.52470   0.23848   0.00000  Uiso   1.00
N89    N     0.27026   0.80143   0.95571   0.00000  Uiso   1.00
N90    N     0.61456   0.90912   0.28498   0.00000  Uiso   1.00
N91    N     0.83902   0.71232   0.25988   0.00000  Uiso   1.00
N92    N     0.32005   0.98905   0.97712   0.00000  Uiso   1.00
C93    C     0.33395   0.53772   0.48403   0.00000  Uiso   1.00
C94    C     0.27281   0.58826   0.52036   0.00000  Uiso   1.00
C95    C     0.32592   0.70751   0.53899   0.00000  Uiso   1.00
C96    C     0.25487   0.73566   0.57182   0.00000  Uiso   1.00
C97    C     0.17819   0.82749   0.62618   0.00000  Uiso   1.00
C98    C     0.32705   0.42875   0.51346   0.00000  Uiso   1.00
C99    C     0.42577   0.41390   0.52627   0.00000  Uiso   1.00
C100   C     0.40037   0.30777   0.55328   0.00000  Uiso   1.00
C101   C     0.40790   0.15194   0.59688   0.00000  Uiso   1.00
C102   C     0.25078   0.48508   0.43553   0.00000  Uiso   1.00
C103   C     0.28538   0.51756   0.38282   0.00000  Uiso   1.00
C104   C     0.19577   0.45882   0.34422   0.00000  Uiso   1.00
C105   C     0.08488   0.39044   0.26682   0.00000  Uiso   1.00
C106   C     0.11331   0.37563   0.50920   0.00000  Uiso   1.00
C107   C     0.15297   0.50021   0.53404   0.00000  Uiso   1.00
C108   C     0.08181   0.52818   0.56684   0.00000  Uiso   1.00
C109   C     0.13481   0.64746   0.58552   0.00000  Uiso   1.00
C110   C     0.20722   0.34071   0.52713   0.00000  Uiso   1.00
C111   C     0.18166   0.23457   0.55412   0.00000  Uiso   1.00
C112   C     0.28031   0.21956   0.56698   0.00000  Uiso   1.00
C113   C     0.13094   0.39703   0.44920   0.00000  Uiso   1.00
C114   C     0.04126   0.33822   0.41067   0.00000  Uiso   1.00
C115   C     0.07571   0.37061   0.35791   0.00000  Uiso   1.00
H116   H     0.42725   0.60626   0.47339   0.00000  Uiso   1.00
H117   H     0.41867   0.77562   0.52841   0.00000  Uiso   1.00
H118   H     0.51850   0.48205   0.51568   0.00000  Uiso   1.00
H119   H     0.37813   0.58569   0.37226   0.00000  Uiso   1.00
H120   H     0.35633   0.92455   0.59545   0.00000  Uiso   1.00
H121   H     0.56682   0.30552   0.56860   0.00000  Uiso   1.00
H122   H     0.27081   0.52407   0.26616   0.00000  Uiso   1.00
H123   H     0.02000   0.30708   0.51985   0.00000  Uiso   1.00
H124   H     0.98907   0.46002   0.57742   0.00000  Uiso   1.00
H125   H     0.08891   0.16645   0.56469   0.00000  Uiso   1.00
H126   H     0.94853   0.27010   0.42126   0.00000  Uiso   1.00
H127   H     0.00765   0.66839   0.63523   0.00000  Uiso   1.00
H128   H     0.21815   0.04936   0.60838   0.00000  Uiso   1.00
H129   H     0.92214   0.26791   0.30594   0.00000  Uiso   1.00
O130   O     0.16900   0.90247   0.65239   0.00000  Uiso   1.00
O131   O     0.44516   0.09032   0.61715   0.00000  Uiso   1.00
O132   O     0.05681   0.37706   0.22035   0.00000  Uiso   1.00
N133   N     0.27850   0.84328   0.59691   0.00000  Uiso   1.00
N134   N     0.47530   0.26453   0.57181   0.00000  Uiso   1.00
N135   N     0.19857   0.46883   0.28905   0.00000  Uiso   1.00
N136   N     0.09088   0.70544   0.61831   0.00000  Uiso   1.00
N137   N     0.28768   0.12670   0.59322   0.00000  Uiso   1.00
N138   N     0.01095   0.33100   0.31045   0.00000  Uiso   1.00
C139   C     0.53772   0.20378   0.31737   0.00000  Uiso   1.00
C140   C     0.58826   0.31545   0.35370   0.00000  Uiso   1.00
C141   C     0.70751   0.38159   0.37233   0.00000  Uiso   1.00
C142   C     0.73566   0.48079   0.40516   0.00000  Uiso   1.00
C143   C     0.82749   0.64931   0.45951   0.00000  Uiso   1.00
C144   C     0.42875   0.10170   0.34679   0.00000  Uiso   1.00
C145   C     0.41390   0.98813   0.35961   0.00000  Uiso   1.00
C146   C     0.30777   0.90740   0.38661   0.00000  Uiso   1.00
C147   C     0.15194   0.74404   0.43021   0.00000  Uiso   1.00
C148   C     0.48508   0.23429   0.26886   0.00000  Uiso   1.00
C149   C     0.51756   0.23218   0.21615   0.00000  Uiso   1.00
C150   C     0.45882   0.26305   0.17755   0.00000  Uiso   1.00
C151   C     0.39044   0.30556   0.10015   0.00000  Uiso   1.00
C152   C     0.37563   0.26232   0.34254   0.00000  Uiso   1.00
C153   C     0.50021   0.34724   0.36737   0.00000  Uiso   1.00
C154   C     0.52818   0.44637   0.40018   0.00000  Uiso   1.00
C155   C     0.64746   0.51265   0.41885   0.00000  Uiso   1.00
C156   C     0.34071   0.13350   0.36046   0.00000  Uiso   1.00
C157   C     0.23457   0.05291   0.38745   0.00000  Uiso   1.00
C158   C     0.21956   0.93925   0.40031   0.00000  Uiso   1.00
C159   C     0.39703   0.26610   0.28253   0.00000  Uiso   1.00
C160   C     0.33822   0.29696   0.24400   0.00000  Uiso   1.00
C161   C     0.37061   0.29490   0.19125   0.00000  Uiso   1.00
H162   H     0.60626   0.17901   0.30672   0.00000  Uiso   1.00
H163   H     0.77562   0.35695   0.36174   0.00000  Uiso   1.00
H164   H     0.48205   0.96355   0.34902   0.00000  Uiso   1.00
H165   H     0.58569   0.20757   0.20559   0.00000  Uiso   1.00
H166   H     0.92455   0.56822   0.42879   0.00000  Uiso   1.00
H167   H     0.30552   0.73870   0.40194   0.00000  Uiso   1.00
H168   H     0.52407   0.25325   0.09949   0.00000  Uiso   1.00
H169   H     0.30708   0.28707   0.35318   0.00000  Uiso   1.00
H170   H     0.46002   0.47095   0.41075   0.00000  Uiso   1.00
H171   H     0.16645   0.07754   0.39802   0.00000  Uiso   1.00
H172   H     0.27010   0.32156   0.25460   0.00000  Uiso   1.00
H173   H     0.66839   0.66074   0.46857   0.00000  Uiso   1.00
H174   H     0.04936   0.83121   0.44171   0.00000  Uiso   1.00
H175   H     0.26791   0.34578   0.13927   0.00000  Uiso   1.00
O176   O     0.90247   0.73347   0.48573   0.00000  Uiso   1.00
O177   O     0.09032   0.64516   0.45049   0.00000  Uiso   1.00
O178   O     0.37706   0.32025   0.05369   0.00000  Uiso   1.00
N179   N     0.84328   0.56478   0.43024   0.00000  Uiso   1.00
N180   N     0.26453   0.78923   0.40514   0.00000  Uiso   1.00
N181   N     0.46883   0.27026   0.12238   0.00000  Uiso   1.00
N182   N     0.70544   0.61456   0.45164   0.00000  Uiso   1.00
N183   N     0.12670   0.83902   0.42655   0.00000  Uiso   1.00
N184   N     0.33100   0.32005   0.14378   0.00000  Uiso   1.00
C185   C     0.79622   0.33395   0.65070   0.00000  Uiso   1.00
C186   C     0.68455   0.27281   0.68703   0.00000  Uiso   1.00
C187   C     0.61841   0.32592   0.70566   0.00000  Uiso   1.00
C188   C     0.51921   0.25487   0.73849   0.00000  Uiso   1.00
C189   C     0.35069   0.17819   0.79285   0.00000  Uiso   1.00
C190   C     0.89830   0.32705   0.68012   0.00000  Uiso   1.00
C191   C     0.01187   0.42577   0.69294   0.00000  Uiso   1.00
C192   C     0.09260   0.40037   0.71995   0.00000  Uiso   1.00
C193   C     0.25596   0.40790   0.76355   0.00000  Uiso   1.00
C194   C     0.76571   0.25078   0.60220   0.00000  Uiso   1.00
C195   C     0.76782   0.28538   0.54949   0.00000  Uiso   1.00
C196   C     0.73695   0.19577   0.51088   0.00000  Uiso   1.00
C197   C     0.69444   0.08488   0.43349   0.00000  Uiso   1.00
C198   C     0.73768   0.11331   0.67587   0.00000  Uiso   1.00
C199   C     0.65276   0.15297   0.70070   0.00000  Uiso   1.00
C200   C     0.55363   0.08181   0.73351   0.00000  Uiso   1.00
C201   C     0.48735   0.13481   0.75219   0.00000  Uiso   1.00
C202   C     0.86650   0.20722   0.69380   0.00000  Uiso   1.00
C203   C     0.94709   0.18166   0.72079   0.00000  Uiso   1.00
C204   C     0.06075   0.28031   0.73364   0.00000  Uiso   1.00
C205   C     0.73390   0.13094   0.61587   0.00000  Uiso   1.00
C206   C     0.70304   0.04126   0.57734   0.00000  Uiso   1.00
C207   C     0.70510   0.07571   0.52458   0.00000  Uiso   1.00
H208   H     0.82099   0.42725   0.64006   0.00000  Uiso   1.00
H209   H     0.64305   0.41867   0.69508   0.00000  Uiso   1.00
H210   H     0.03645   0.51850   0.68235   0.00000  Uiso   1.00
H211   H     0.79243   0.37813   0.53892   0.00000  Uiso   1.00
H212   H     0.43178   0.35633   0.76212   0.00000  Uiso   1.00
H213   H     0.26130   0.56682   0.73527   0.00000  Uiso   1.00
H214   H     0.74675   0.27081   0.43282   0.00000  Uiso   1.00
H215   H     0.71293   0.02000   0.68651   0.00000  Uiso   1.00
H216   H     0.52905   0.98907   0.74408   0.00000  Uiso   1.00
H217   H     0.92246   0.08891   0.73136   0.00000  Uiso   1.00
H218   H     0.67844   0.94853   0.58793   0.00000  Uiso   1.00
H219   H     0.33926   0.00765   0.80190   0.00000  Uiso   1.00
H220   H     0.16879   0.21815   0.77505   0.00000  Uiso   1.00
H221   H     0.65422   0.92214   0.47260   0.00000  Uiso   1.00
O222   O     0.26653   0.16900   0.81906   0.00000  Uiso   1.00
O223   O     0.35484   0.44516   0.78382   0.00000  Uiso   1.00
O224   O     0.67975   0.05681   0.38702   0.00000  Uiso   1.00
N225   N     0.43522   0.27850   0.76357   0.00000  Uiso   1.00
N226   N     0.21077   0.47530   0.73848   0.00000  Uiso   1.00
N227   N     0.72974   0.19857   0.45571   0.00000  Uiso   1.00
N228   N     0.38544   0.09088   0.78498   0.00000  Uiso   1.00
N229   N     0.16098   0.28768   0.75988   0.00000  Uiso   1.00
N230   N     0.67995   0.01095   0.47712   0.00000  Uiso   1.00
C231   C     0.66605   0.46228   0.98403   0.00000  Uiso   1.00
C232   C     0.72719   0.41174   0.02036   0.00000  Uiso   1.00
C233   C     0.67408   0.29249   0.03899   0.00000  Uiso   1.00
C234   C     0.74513   0.26434   0.07182   0.00000  Uiso   1.00
C235   C     0.82181   0.17251   0.12618   0.00000  Uiso   1.00
C236   C     0.67295   0.57125   0.01346   0.00000  Uiso   1.00
C237   C     0.57423   0.58610   0.02627   0.00000  Uiso   1.00
C238   C     0.59963   0.69223   0.05328   0.00000  Uiso   1.00
C239   C     0.59210   0.84806   0.09688   0.00000  Uiso   1.00
C240   C     0.74922   0.51492   0.93553   0.00000  Uiso   1.00
C241   C     0.71462   0.48244   0.88282   0.00000  Uiso   1.00
C242   C     0.80423   0.54118   0.84422   0.00000  Uiso   1.00
C243   C     0.91512   0.60956   0.76682   0.00000  Uiso   1.00
C244   C     0.88669   0.62437   0.00920   0.00000  Uiso   1.00
C245   C     0.84703   0.49979   0.03404   0.00000  Uiso   1.00
C246   C     0.91819   0.47182   0.06684   0.00000  Uiso   1.00
C247   C     0.86519   0.35254   0.08552   0.00000  Uiso   1.00
C248   C     0.79278   0.65929   0.02713   0.00000  Uiso   1.00
C249   C     0.81834   0.76543   0.05412   0.00000  Uiso   1.00
C250   C     0.71969   0.78044   0.06698   0.00000  Uiso   1.00
C251   C     0.86906   0.60297   0.94920   0.00000  Uiso   1.00
C252   C     0.95874   0.66178   0.91067   0.00000  Uiso   1.00
C253   C     0.92429   0.62939   0.85791   0.00000  Uiso   1.00
H254   H     0.57275   0.39374   0.97339   0.00000  Uiso   1.00
H255   H     0.58133   0.22438   0.02841   0.00000  Uiso   1.00
H256   H     0.48150   0.51795   0.01568   0.00000  Uiso   1.00
H257   H     0.62187   0.41431   0.87226   0.00000  Uiso   1.00
H258   H     0.64367   0.07545   0.09545   0.00000  Uiso   1.00
H259   H     0.43318   0.69448   0.06860   0.00000  Uiso   1.00
H260   H     0.72919   0.47593   0.76616   0.00000  Uiso   1.00
H261   H     0.98000   0.69292   0.01985   0.00000  Uiso   1.00
H262   H     0.01093   0.53998   0.07742   0.00000  Uiso   1.00
H263   H     0.91109   0.83355   0.06469   0.00000  Uiso   1.00
H264   H     0.05147   0.72990   0.92126   0.00000  Uiso   1.00
H265   H     0.99235   0.33161   0.13523   0.00000  Uiso   1.00
H266   H     0.78185   0.95064   0.10838   0.00000  Uiso   1.00
H267   H     0.07786   0.73209   0.80594   0.00000  Uiso   1.00
O268   O     0.83100   0.09753   0.15239   0.00000  Uiso   1.00
O269   O     0.55484   0.90968   0.11715   0.00000  Uiso   1.00
O270   O     0.94319   0.62294   0.72035   0.00000  Uiso   1.00
N271   N     0.72150   0.15672   0.09691   0.00000  Uiso   1.00
N272   N     0.52470   0.73547   0.07181   0.00000  Uiso   1.00
N273   N     0.80143   0.53117   0.78905   0.00000  Uiso   1.00
N274   N     0.90912   0.29456   0.11831   0.00000  Uiso   1.00
N275   N     0.71232   0.87330   0.09322   0.00000  Uiso   1.00
N276   N     0.98905   0.66900   0.81045   0.00000  Uiso   1.00
