data_job_00768
_audit_creation_date              2018-12-19
_audit_creation_method            'Materials Studio'
_symmetry_space_group_name_H-M    'P1'
_symmetry_Int_Tables_number       1
_symmetry_cell_setting            triclinic
loop_
_symmetry_equiv_pos_as_xyz
  x,y,z
_cell_length_a                    18.7515
_cell_length_b                    18.7515
_cell_length_c                    14.9931
_cell_angle_alpha                 90.0000
_cell_angle_beta                  90.0000
_cell_angle_gamma                 90.0000
loop_
_atom_site_label
_atom_site_type_symbol
_atom_site_fract_x
_atom_site_fract_y
_atom_site_fract_z
_atom_site_U_iso_or_equiv
_atom_site_adp_type
_atom_site_occupancy
C1     C     0.67590   0.75685   0.78484   0.00000  Uiso   1.00
C2     C     0.73442   0.71828   0.73327   0.00000  Uiso   1.00
C3     C     0.80320   0.70561   0.76356   0.00000  Uiso   1.00
C4     C     0.84881   0.66945   0.70632   0.00000  Uiso   1.00
C5     C     0.94311   0.61304   0.63906   0.00000  Uiso   1.00
C6     C     0.65187   0.81842   0.72558   0.00000  Uiso   1.00
C7     C     0.65122   0.88993   0.74941   0.00000  Uiso   1.00
C8     C     0.62731   0.93806   0.68570   0.00000  Uiso   1.00
C9     C     0.59339   0.03710   0.60653   0.00000  Uiso   1.00
C10    C     0.61310   0.70530   0.78911   0.00000  Uiso   1.00
C11    C     0.57985   0.68171   0.86636   0.00000  Uiso   1.00
C12    C     0.52330   0.63461   0.85615   0.00000  Uiso   1.00
C13    C     0.42919   0.55801   0.87562   0.00000  Uiso   1.00
C14    C     0.63459   0.71517   0.62933   0.00000  Uiso   1.00
C15    C     0.71199   0.69565   0.64879   0.00000  Uiso   1.00
C16    C     0.75750   0.65949   0.59149   0.00000  Uiso   1.00
C17    C     0.82633   0.64677   0.62170   0.00000  Uiso   1.00
C18    C     0.62943   0.79578   0.64111   0.00000  Uiso   1.00
C19    C     0.60552   0.84381   0.57735   0.00000  Uiso   1.00
C20    C     0.60484   0.91538   0.60108   0.00000  Uiso   1.00
C21    C     0.59067   0.68265   0.70464   0.00000  Uiso   1.00
C22    C     0.53416   0.63559   0.69430   0.00000  Uiso   1.00
C23    C     0.50082   0.61193   0.77152   0.00000  Uiso   1.00
H24    H     0.69336   0.77448   0.85061   0.00000  Uiso   1.00
H25    H     0.82054   0.72315   0.82893   0.00000  Uiso   1.00
H26    H     0.66857   0.90743   0.81479   0.00000  Uiso   1.00
H27    H     0.59722   0.69924   0.93172   0.00000  Uiso   1.00
H28    H     0.95166   0.65627   0.76763   0.00000  Uiso   1.00
H29    H     0.63120   0.04485   0.73783   0.00000  Uiso   1.00
H30    H     0.48074   0.60584   0.98440   0.00000  Uiso   1.00
H31    H     0.61713   0.69754   0.56356   0.00000  Uiso   1.00
H32    H     0.74013   0.64198   0.52613   0.00000  Uiso   1.00
H33    H     0.58816   0.82627   0.51199   0.00000  Uiso   1.00
H34    H     0.51681   0.61808   0.62892   0.00000  Uiso   1.00
H35    H     0.88639   0.59039   0.52187   0.00000  Uiso   1.00
H36    H     0.56593   0.97897   0.49207   0.00000  Uiso   1.00
H37    H     0.41548   0.53996   0.73864   0.00000  Uiso   1.00
O38    O     0.00132   0.58819   0.62529   0.00000  Uiso   1.00
O39    O     0.58088   0.09799   0.58620   0.00000  Uiso   1.00
O40    O     0.38349   0.52201   0.90970   0.00000  Uiso   1.00
N41    N     0.91941   0.64838   0.71493   0.00000  Uiso   1.00
N42    N     0.61982   0.01168   0.68706   0.00000  Uiso   1.00
N43    N     0.47914   0.60125   0.91759   0.00000  Uiso   1.00
N44    N     0.88429   0.61293   0.58269   0.00000  Uiso   1.00
N45    N     0.58470   0.97623   0.55482   0.00000  Uiso   1.00
N46    N     0.44402   0.56580   0.78535   0.00000  Uiso   1.00
C47    C     0.32410   0.24315   0.78484   0.00000  Uiso   1.00
C48    C     0.26558   0.28172   0.73327   0.00000  Uiso   1.00
C49    C     0.19680   0.29439   0.76356   0.00000  Uiso   1.00
C50    C     0.15119   0.33055   0.70632   0.00000  Uiso   1.00
C51    C     0.05689   0.38696   0.63906   0.00000  Uiso   1.00
C52    C     0.34813   0.18158   0.72558   0.00000  Uiso   1.00
C53    C     0.34878   0.11007   0.74941   0.00000  Uiso   1.00
C54    C     0.37269   0.06194   0.68570   0.00000  Uiso   1.00
C55    C     0.40661   0.96290   0.60653   0.00000  Uiso   1.00
C56    C     0.38690   0.29470   0.78911   0.00000  Uiso   1.00
C57    C     0.42015   0.31829   0.86636   0.00000  Uiso   1.00
C58    C     0.47670   0.36539   0.85615   0.00000  Uiso   1.00
C59    C     0.57081   0.44199   0.87562   0.00000  Uiso   1.00
C60    C     0.36541   0.28483   0.62933   0.00000  Uiso   1.00
C61    C     0.28801   0.30435   0.64879   0.00000  Uiso   1.00
C62    C     0.24250   0.34051   0.59149   0.00000  Uiso   1.00
C63    C     0.17367   0.35323   0.62170   0.00000  Uiso   1.00
C64    C     0.37057   0.20422   0.64111   0.00000  Uiso   1.00
C65    C     0.39448   0.15619   0.57735   0.00000  Uiso   1.00
C66    C     0.39516   0.08462   0.60108   0.00000  Uiso   1.00
C67    C     0.40933   0.31735   0.70464   0.00000  Uiso   1.00
C68    C     0.46584   0.36441   0.69430   0.00000  Uiso   1.00
C69    C     0.49918   0.38807   0.77152   0.00000  Uiso   1.00
H70    H     0.30664   0.22552   0.85061   0.00000  Uiso   1.00
H71    H     0.17946   0.27685   0.82893   0.00000  Uiso   1.00
H72    H     0.33143   0.09257   0.81479   0.00000  Uiso   1.00
H73    H     0.40278   0.30076   0.93172   0.00000  Uiso   1.00
H74    H     0.04834   0.34373   0.76763   0.00000  Uiso   1.00
H75    H     0.36880   0.95515   0.73783   0.00000  Uiso   1.00
H76    H     0.51926   0.39416   0.98440   0.00000  Uiso   1.00
H77    H     0.38287   0.30246   0.56356   0.00000  Uiso   1.00
H78    H     0.25987   0.35802   0.52613   0.00000  Uiso   1.00
H79    H     0.41184   0.17373   0.51199   0.00000  Uiso   1.00
H80    H     0.48319   0.38192   0.62892   0.00000  Uiso   1.00
H81    H     0.11361   0.40961   0.52187   0.00000  Uiso   1.00
H82    H     0.43407   0.02103   0.49207   0.00000  Uiso   1.00
H83    H     0.58452   0.46004   0.73864   0.00000  Uiso   1.00
O84    O     0.99868   0.41181   0.62529   0.00000  Uiso   1.00
O85    O     0.41912   0.90201   0.58620   0.00000  Uiso   1.00
O86    O     0.61651   0.47799   0.90970   0.00000  Uiso   1.00
N87    N     0.08059   0.35162   0.71493   0.00000  Uiso   1.00
N88    N     0.38018   0.98832   0.68706   0.00000  Uiso   1.00
N89    N     0.52086   0.39875   0.91759   0.00000  Uiso   1.00
N90    N     0.11571   0.38707   0.58269   0.00000  Uiso   1.00
N91    N     0.41530   0.02377   0.55482   0.00000  Uiso   1.00
N92    N     0.55598   0.43420   0.78535   0.00000  Uiso   1.00
C93    C     0.75685   0.32410   0.21516   0.00000  Uiso   1.00
C94    C     0.71828   0.26558   0.26673   0.00000  Uiso   1.00
C95    C     0.70561   0.19680   0.23644   0.00000  Uiso   1.00
C96    C     0.66945   0.15119   0.29368   0.00000  Uiso   1.00
C97    C     0.61304   0.05689   0.36094   0.00000  Uiso   1.00
C98    C     0.81842   0.34813   0.27442   0.00000  Uiso   1.00
C99    C     0.88993   0.34878   0.25059   0.00000  Uiso   1.00
C100   C     0.93806   0.37269   0.31430   0.00000  Uiso   1.00
C101   C     0.03710   0.40661   0.39347   0.00000  Uiso   1.00
C102   C     0.70530   0.38690   0.21089   0.00000  Uiso   1.00
C103   C     0.68171   0.42015   0.13364   0.00000  Uiso   1.00
C104   C     0.63461   0.47670   0.14385   0.00000  Uiso   1.00
C105   C     0.55801   0.57081   0.12438   0.00000  Uiso   1.00
C106   C     0.71517   0.36541   0.37067   0.00000  Uiso   1.00
C107   C     0.69565   0.28801   0.35121   0.00000  Uiso   1.00
C108   C     0.65949   0.24250   0.40851   0.00000  Uiso   1.00
C109   C     0.64677   0.17367   0.37830   0.00000  Uiso   1.00
C110   C     0.79578   0.37057   0.35889   0.00000  Uiso   1.00
C111   C     0.84381   0.39448   0.42265   0.00000  Uiso   1.00
C112   C     0.91538   0.39516   0.39892   0.00000  Uiso   1.00
C113   C     0.68265   0.40933   0.29536   0.00000  Uiso   1.00
C114   C     0.63559   0.46584   0.30570   0.00000  Uiso   1.00
C115   C     0.61193   0.49918   0.22848   0.00000  Uiso   1.00
H116   H     0.77448   0.30664   0.14939   0.00000  Uiso   1.00
H117   H     0.72315   0.17946   0.17107   0.00000  Uiso   1.00
H118   H     0.90743   0.33143   0.18521   0.00000  Uiso   1.00
H119   H     0.69924   0.40278   0.06828   0.00000  Uiso   1.00
H120   H     0.65627   0.04834   0.23237   0.00000  Uiso   1.00
H121   H     0.04485   0.36880   0.26217   0.00000  Uiso   1.00
H122   H     0.60584   0.51926   0.01560   0.00000  Uiso   1.00
H123   H     0.69754   0.38287   0.43644   0.00000  Uiso   1.00
H124   H     0.64198   0.25987   0.47387   0.00000  Uiso   1.00
H125   H     0.82627   0.41184   0.48801   0.00000  Uiso   1.00
H126   H     0.61808   0.48319   0.37108   0.00000  Uiso   1.00
H127   H     0.59039   0.11361   0.47813   0.00000  Uiso   1.00
H128   H     0.97897   0.43407   0.50793   0.00000  Uiso   1.00
H129   H     0.53996   0.58452   0.26136   0.00000  Uiso   1.00
O130   O     0.58819   0.99868   0.37471   0.00000  Uiso   1.00
O131   O     0.09799   0.41912   0.41380   0.00000  Uiso   1.00
O132   O     0.52201   0.61651   0.09030   0.00000  Uiso   1.00
N133   N     0.64838   0.08059   0.28507   0.00000  Uiso   1.00
N134   N     0.01168   0.38018   0.31294   0.00000  Uiso   1.00
N135   N     0.60125   0.52086   0.08241   0.00000  Uiso   1.00
N136   N     0.61293   0.11571   0.41731   0.00000  Uiso   1.00
N137   N     0.97623   0.41530   0.44518   0.00000  Uiso   1.00
N138   N     0.56580   0.55598   0.21465   0.00000  Uiso   1.00
C139   C     0.24315   0.67590   0.21516   0.00000  Uiso   1.00
C140   C     0.28172   0.73442   0.26673   0.00000  Uiso   1.00
C141   C     0.29439   0.80320   0.23644   0.00000  Uiso   1.00
C142   C     0.33055   0.84881   0.29368   0.00000  Uiso   1.00
C143   C     0.38696   0.94311   0.36094   0.00000  Uiso   1.00
C144   C     0.18158   0.65187   0.27442   0.00000  Uiso   1.00
C145   C     0.11007   0.65122   0.25059   0.00000  Uiso   1.00
C146   C     0.06194   0.62731   0.31430   0.00000  Uiso   1.00
C147   C     0.96290   0.59339   0.39347   0.00000  Uiso   1.00
C148   C     0.29470   0.61310   0.21089   0.00000  Uiso   1.00
C149   C     0.31829   0.57985   0.13364   0.00000  Uiso   1.00
C150   C     0.36539   0.52330   0.14385   0.00000  Uiso   1.00
C151   C     0.44199   0.42919   0.12438   0.00000  Uiso   1.00
C152   C     0.28483   0.63459   0.37067   0.00000  Uiso   1.00
C153   C     0.30435   0.71199   0.35121   0.00000  Uiso   1.00
C154   C     0.34051   0.75750   0.40851   0.00000  Uiso   1.00
C155   C     0.35323   0.82633   0.37830   0.00000  Uiso   1.00
C156   C     0.20422   0.62943   0.35889   0.00000  Uiso   1.00
C157   C     0.15619   0.60552   0.42265   0.00000  Uiso   1.00
C158   C     0.08462   0.60484   0.39892   0.00000  Uiso   1.00
C159   C     0.31735   0.59067   0.29536   0.00000  Uiso   1.00
C160   C     0.36441   0.53416   0.30570   0.00000  Uiso   1.00
C161   C     0.38807   0.50082   0.22848   0.00000  Uiso   1.00
H162   H     0.22552   0.69336   0.14939   0.00000  Uiso   1.00
H163   H     0.27685   0.82054   0.17107   0.00000  Uiso   1.00
H164   H     0.09257   0.66857   0.18521   0.00000  Uiso   1.00
H165   H     0.30076   0.59722   0.06828   0.00000  Uiso   1.00
H166   H     0.34373   0.95166   0.23237   0.00000  Uiso   1.00
H167   H     0.95515   0.63120   0.26217   0.00000  Uiso   1.00
H168   H     0.39416   0.48074   0.01560   0.00000  Uiso   1.00
H169   H     0.30246   0.61713   0.43644   0.00000  Uiso   1.00
H170   H     0.35802   0.74013   0.47387   0.00000  Uiso   1.00
H171   H     0.17373   0.58816   0.48801   0.00000  Uiso   1.00
H172   H     0.38192   0.51681   0.37108   0.00000  Uiso   1.00
H173   H     0.40961   0.88639   0.47813   0.00000  Uiso   1.00
H174   H     0.02103   0.56593   0.50793   0.00000  Uiso   1.00
H175   H     0.46004   0.41548   0.26136   0.00000  Uiso   1.00
O176   O     0.41181   0.00132   0.37471   0.00000  Uiso   1.00
O177   O     0.90201   0.58088   0.41380   0.00000  Uiso   1.00
O178   O     0.47799   0.38349   0.09030   0.00000  Uiso   1.00
N179   N     0.35162   0.91941   0.28507   0.00000  Uiso   1.00
N180   N     0.98832   0.61982   0.31294   0.00000  Uiso   1.00
N181   N     0.39875   0.47914   0.08241   0.00000  Uiso   1.00
N182   N     0.38707   0.88429   0.41731   0.00000  Uiso   1.00
N183   N     0.02377   0.58470   0.44518   0.00000  Uiso   1.00
N184   N     0.43420   0.44402   0.21465   0.00000  Uiso   1.00
C185   C     0.82410   0.25685   0.71516   0.00000  Uiso   1.00
C186   C     0.76558   0.21828   0.76673   0.00000  Uiso   1.00
C187   C     0.69680   0.20561   0.73644   0.00000  Uiso   1.00
C188   C     0.65119   0.16945   0.79368   0.00000  Uiso   1.00
C189   C     0.55689   0.11304   0.86094   0.00000  Uiso   1.00
C190   C     0.84813   0.31842   0.77442   0.00000  Uiso   1.00
C191   C     0.84878   0.38993   0.75059   0.00000  Uiso   1.00
C192   C     0.87269   0.43806   0.81430   0.00000  Uiso   1.00
C193   C     0.90661   0.53710   0.89347   0.00000  Uiso   1.00
C194   C     0.88690   0.20530   0.71089   0.00000  Uiso   1.00
C195   C     0.92015   0.18171   0.63364   0.00000  Uiso   1.00
C196   C     0.97670   0.13461   0.64385   0.00000  Uiso   1.00
C197   C     0.07081   0.05801   0.62438   0.00000  Uiso   1.00
C198   C     0.86541   0.21517   0.87067   0.00000  Uiso   1.00
C199   C     0.78801   0.19565   0.85121   0.00000  Uiso   1.00
C200   C     0.74250   0.15949   0.90851   0.00000  Uiso   1.00
C201   C     0.67367   0.14677   0.87830   0.00000  Uiso   1.00
C202   C     0.87057   0.29578   0.85889   0.00000  Uiso   1.00
C203   C     0.89448   0.34381   0.92265   0.00000  Uiso   1.00
C204   C     0.89516   0.41538   0.89892   0.00000  Uiso   1.00
C205   C     0.90933   0.18265   0.79536   0.00000  Uiso   1.00
C206   C     0.96584   0.13559   0.80570   0.00000  Uiso   1.00
C207   C     0.99918   0.11193   0.72848   0.00000  Uiso   1.00
H208   H     0.80664   0.27448   0.64939   0.00000  Uiso   1.00
H209   H     0.67946   0.22315   0.67107   0.00000  Uiso   1.00
H210   H     0.83143   0.40743   0.68521   0.00000  Uiso   1.00
H211   H     0.90278   0.19924   0.56828   0.00000  Uiso   1.00
H212   H     0.54834   0.15627   0.73237   0.00000  Uiso   1.00
H213   H     0.86880   0.54485   0.76217   0.00000  Uiso   1.00
H214   H     0.01926   0.10584   0.51560   0.00000  Uiso   1.00
H215   H     0.88287   0.19754   0.93644   0.00000  Uiso   1.00
H216   H     0.75987   0.14198   0.97387   0.00000  Uiso   1.00
H217   H     0.91184   0.32627   0.98801   0.00000  Uiso   1.00
H218   H     0.98319   0.11808   0.87108   0.00000  Uiso   1.00
H219   H     0.61361   0.09039   0.97813   0.00000  Uiso   1.00
H220   H     0.93407   0.47897   0.00793   0.00000  Uiso   1.00
H221   H     0.08452   0.03996   0.76136   0.00000  Uiso   1.00
O222   O     0.49868   0.08819   0.87471   0.00000  Uiso   1.00
O223   O     0.91912   0.59799   0.91380   0.00000  Uiso   1.00
O224   O     0.11651   0.02201   0.59030   0.00000  Uiso   1.00
N225   N     0.58059   0.14838   0.78507   0.00000  Uiso   1.00
N226   N     0.88018   0.51168   0.81294   0.00000  Uiso   1.00
N227   N     0.02086   0.10125   0.58241   0.00000  Uiso   1.00
N228   N     0.61571   0.11293   0.91731   0.00000  Uiso   1.00
N229   N     0.91530   0.47623   0.94518   0.00000  Uiso   1.00
N230   N     0.05598   0.06580   0.71465   0.00000  Uiso   1.00
C231   C     0.17590   0.74315   0.71516   0.00000  Uiso   1.00
C232   C     0.23442   0.78172   0.76673   0.00000  Uiso   1.00
C233   C     0.30320   0.79439   0.73644   0.00000  Uiso   1.00
C234   C     0.34881   0.83055   0.79368   0.00000  Uiso   1.00
C235   C     0.44311   0.88696   0.86094   0.00000  Uiso   1.00
C236   C     0.15187   0.68158   0.77442   0.00000  Uiso   1.00
C237   C     0.15122   0.61007   0.75059   0.00000  Uiso   1.00
C238   C     0.12731   0.56194   0.81430   0.00000  Uiso   1.00
C239   C     0.09339   0.46290   0.89347   0.00000  Uiso   1.00
C240   C     0.11310   0.79470   0.71089   0.00000  Uiso   1.00
C241   C     0.07985   0.81829   0.63364   0.00000  Uiso   1.00
C242   C     0.02330   0.86539   0.64385   0.00000  Uiso   1.00
C243   C     0.92919   0.94199   0.62438   0.00000  Uiso   1.00
C244   C     0.13459   0.78483   0.87067   0.00000  Uiso   1.00
C245   C     0.21199   0.80435   0.85121   0.00000  Uiso   1.00
C246   C     0.25750   0.84051   0.90851   0.00000  Uiso   1.00
C247   C     0.32633   0.85323   0.87830   0.00000  Uiso   1.00
C248   C     0.12943   0.70422   0.85889   0.00000  Uiso   1.00
C249   C     0.10552   0.65619   0.92265   0.00000  Uiso   1.00
C250   C     0.10484   0.58462   0.89892   0.00000  Uiso   1.00
C251   C     0.09067   0.81735   0.79536   0.00000  Uiso   1.00
C252   C     0.03416   0.86441   0.80570   0.00000  Uiso   1.00
C253   C     0.00082   0.88807   0.72848   0.00000  Uiso   1.00
H254   H     0.19336   0.72552   0.64939   0.00000  Uiso   1.00
H255   H     0.32054   0.77685   0.67107   0.00000  Uiso   1.00
H256   H     0.16857   0.59257   0.68521   0.00000  Uiso   1.00
H257   H     0.09722   0.80076   0.56828   0.00000  Uiso   1.00
H258   H     0.45166   0.84373   0.73237   0.00000  Uiso   1.00
H259   H     0.13120   0.45515   0.76217   0.00000  Uiso   1.00
H260   H     0.98074   0.89416   0.51560   0.00000  Uiso   1.00
H261   H     0.11713   0.80246   0.93644   0.00000  Uiso   1.00
H262   H     0.24013   0.85802   0.97387   0.00000  Uiso   1.00
H263   H     0.08816   0.67373   0.98801   0.00000  Uiso   1.00
H264   H     0.01681   0.88192   0.87108   0.00000  Uiso   1.00
H265   H     0.38639   0.90961   0.97813   0.00000  Uiso   1.00
H266   H     0.06593   0.52103   0.00793   0.00000  Uiso   1.00
H267   H     0.91548   0.96004   0.76136   0.00000  Uiso   1.00
O268   O     0.50132   0.91181   0.87471   0.00000  Uiso   1.00
O269   O     0.08088   0.40201   0.91380   0.00000  Uiso   1.00
O270   O     0.88349   0.97799   0.59030   0.00000  Uiso   1.00
N271   N     0.41941   0.85162   0.78507   0.00000  Uiso   1.00
N272   N     0.11982   0.48832   0.81294   0.00000  Uiso   1.00
N273   N     0.97914   0.89875   0.58241   0.00000  Uiso   1.00
N274   N     0.38429   0.88707   0.91731   0.00000  Uiso   1.00
N275   N     0.08470   0.52377   0.94518   0.00000  Uiso   1.00
N276   N     0.94402   0.93420   0.71465   0.00000  Uiso   1.00
C277   C     0.74315   0.82410   0.28484   0.00000  Uiso   1.00
C278   C     0.78172   0.76558   0.23327   0.00000  Uiso   1.00
C279   C     0.79439   0.69680   0.26356   0.00000  Uiso   1.00
C280   C     0.83055   0.65119   0.20632   0.00000  Uiso   1.00
C281   C     0.88696   0.55689   0.13906   0.00000  Uiso   1.00
C282   C     0.68158   0.84813   0.22558   0.00000  Uiso   1.00
C283   C     0.61007   0.84878   0.24941   0.00000  Uiso   1.00
C284   C     0.56194   0.87269   0.18570   0.00000  Uiso   1.00
C285   C     0.46290   0.90661   0.10653   0.00000  Uiso   1.00
C286   C     0.79470   0.88690   0.28911   0.00000  Uiso   1.00
C287   C     0.81829   0.92015   0.36636   0.00000  Uiso   1.00
C288   C     0.86539   0.97670   0.35615   0.00000  Uiso   1.00
C289   C     0.94199   0.07081   0.37562   0.00000  Uiso   1.00
C290   C     0.78483   0.86541   0.12933   0.00000  Uiso   1.00
C291   C     0.80435   0.78801   0.14879   0.00000  Uiso   1.00
C292   C     0.84051   0.74250   0.09149   0.00000  Uiso   1.00
C293   C     0.85323   0.67367   0.12170   0.00000  Uiso   1.00
C294   C     0.70422   0.87057   0.14111   0.00000  Uiso   1.00
C295   C     0.65619   0.89448   0.07735   0.00000  Uiso   1.00
C296   C     0.58462   0.89516   0.10108   0.00000  Uiso   1.00
C297   C     0.81735   0.90933   0.20464   0.00000  Uiso   1.00
C298   C     0.86441   0.96584   0.19430   0.00000  Uiso   1.00
C299   C     0.88807   0.99918   0.27152   0.00000  Uiso   1.00
H300   H     0.72552   0.80664   0.35061   0.00000  Uiso   1.00
H301   H     0.77685   0.67946   0.32893   0.00000  Uiso   1.00
H302   H     0.59257   0.83143   0.31479   0.00000  Uiso   1.00
H303   H     0.80076   0.90278   0.43172   0.00000  Uiso   1.00
H304   H     0.84373   0.54834   0.26763   0.00000  Uiso   1.00
H305   H     0.45515   0.86880   0.23783   0.00000  Uiso   1.00
H306   H     0.89416   0.01926   0.48440   0.00000  Uiso   1.00
H307   H     0.80246   0.88287   0.06356   0.00000  Uiso   1.00
H308   H     0.85802   0.75987   0.02613   0.00000  Uiso   1.00
H309   H     0.67373   0.91184   0.01199   0.00000  Uiso   1.00
H310   H     0.88192   0.98319   0.12892   0.00000  Uiso   1.00
H311   H     0.90961   0.61361   0.02187   0.00000  Uiso   1.00
H312   H     0.52103   0.93407   0.99207   0.00000  Uiso   1.00
H313   H     0.96004   0.08452   0.23864   0.00000  Uiso   1.00
O314   O     0.91181   0.49868   0.12529   0.00000  Uiso   1.00
O315   O     0.40201   0.91912   0.08620   0.00000  Uiso   1.00
O316   O     0.97799   0.11651   0.40970   0.00000  Uiso   1.00
N317   N     0.85162   0.58059   0.21493   0.00000  Uiso   1.00
N318   N     0.48832   0.88018   0.18706   0.00000  Uiso   1.00
N319   N     0.89875   0.02086   0.41759   0.00000  Uiso   1.00
N320   N     0.88707   0.61571   0.08269   0.00000  Uiso   1.00
N321   N     0.52377   0.91530   0.05482   0.00000  Uiso   1.00
N322   N     0.93420   0.05598   0.28535   0.00000  Uiso   1.00
C323   C     0.25685   0.17590   0.28484   0.00000  Uiso   1.00
C324   C     0.21828   0.23442   0.23327   0.00000  Uiso   1.00
C325   C     0.20561   0.30320   0.26356   0.00000  Uiso   1.00
C326   C     0.16945   0.34881   0.20632   0.00000  Uiso   1.00
C327   C     0.11304   0.44311   0.13906   0.00000  Uiso   1.00
C328   C     0.31842   0.15187   0.22558   0.00000  Uiso   1.00
C329   C     0.38993   0.15122   0.24941   0.00000  Uiso   1.00
C330   C     0.43806   0.12731   0.18570   0.00000  Uiso   1.00
C331   C     0.53710   0.09339   0.10653   0.00000  Uiso   1.00
C332   C     0.20530   0.11310   0.28911   0.00000  Uiso   1.00
C333   C     0.18171   0.07985   0.36636   0.00000  Uiso   1.00
C334   C     0.13461   0.02330   0.35615   0.00000  Uiso   1.00
C335   C     0.05801   0.92919   0.37562   0.00000  Uiso   1.00
C336   C     0.21517   0.13459   0.12933   0.00000  Uiso   1.00
C337   C     0.19565   0.21199   0.14879   0.00000  Uiso   1.00
C338   C     0.15949   0.25750   0.09149   0.00000  Uiso   1.00
C339   C     0.14677   0.32633   0.12170   0.00000  Uiso   1.00
C340   C     0.29578   0.12943   0.14111   0.00000  Uiso   1.00
C341   C     0.34381   0.10552   0.07735   0.00000  Uiso   1.00
C342   C     0.41538   0.10484   0.10108   0.00000  Uiso   1.00
C343   C     0.18265   0.09067   0.20464   0.00000  Uiso   1.00
C344   C     0.13559   0.03416   0.19430   0.00000  Uiso   1.00
C345   C     0.11193   0.00082   0.27152   0.00000  Uiso   1.00
H346   H     0.27448   0.19336   0.35061   0.00000  Uiso   1.00
H347   H     0.22315   0.32054   0.32893   0.00000  Uiso   1.00
H348   H     0.40743   0.16857   0.31479   0.00000  Uiso   1.00
H349   H     0.19924   0.09722   0.43172   0.00000  Uiso   1.00
H350   H     0.15627   0.45166   0.26763   0.00000  Uiso   1.00
H351   H     0.54485   0.13120   0.23783   0.00000  Uiso   1.00
H352   H     0.10584   0.98074   0.48440   0.00000  Uiso   1.00
H353   H     0.19754   0.11713   0.06356   0.00000  Uiso   1.00
H354   H     0.14198   0.24013   0.02613   0.00000  Uiso   1.00
H355   H     0.32627   0.08816   0.01199   0.00000  Uiso   1.00
H356   H     0.11808   0.01681   0.12892   0.00000  Uiso   1.00
H357   H     0.09039   0.38639   0.02187   0.00000  Uiso   1.00
H358   H     0.47897   0.06593   0.99207   0.00000  Uiso   1.00
H359   H     0.03996   0.91548   0.23864   0.00000  Uiso   1.00
O360   O     0.08819   0.50132   0.12529   0.00000  Uiso   1.00
O361   O     0.59799   0.08088   0.08620   0.00000  Uiso   1.00
O362   O     0.02201   0.88349   0.40970   0.00000  Uiso   1.00
N363   N     0.14838   0.41941   0.21493   0.00000  Uiso   1.00
N364   N     0.51168   0.11982   0.18706   0.00000  Uiso   1.00
N365   N     0.10125   0.97914   0.41759   0.00000  Uiso   1.00
N366   N     0.11293   0.38429   0.08269   0.00000  Uiso   1.00
N367   N     0.47623   0.08470   0.05482   0.00000  Uiso   1.00
N368   N     0.06580   0.94402   0.28535   0.00000  Uiso   1.00
