data_job_03337
_audit_creation_date              2018-12-19
_audit_creation_method            'Materials Studio'
_symmetry_space_group_name_H-M    'P1'
_symmetry_Int_Tables_number       1
_symmetry_cell_setting            triclinic
loop_
_symmetry_equiv_pos_as_xyz
  x,y,z
_cell_length_a                    18.0362
_cell_length_b                    18.0362
_cell_length_c                    16.8577
_cell_angle_alpha                 90.0000
_cell_angle_beta                  90.0000
_cell_angle_gamma                 90.0000
loop_
_atom_site_label
_atom_site_type_symbol
_atom_site_fract_x
_atom_site_fract_y
_atom_site_fract_z
_atom_site_U_iso_or_equiv
_atom_site_adp_type
_atom_site_occupancy
C1     C     0.16049   0.68193   0.44565   0.00000  Uiso   1.00
C2     C     0.23829   0.70267   0.41807   0.00000  Uiso   1.00
C3     C     0.29966   0.71213   0.46669   0.00000  Uiso   1.00
C4     C     0.36592   0.73109   0.43001   0.00000  Uiso   1.00
C5     C     0.48602   0.76193   0.39972   0.00000  Uiso   1.00
C6     C     0.10935   0.74279   0.41484   0.00000  Uiso   1.00
C7     C     0.06229   0.78599   0.46074   0.00000  Uiso   1.00
C8     C     0.02000   0.83872   0.42133   0.00000  Uiso   1.00
C9     C     0.93988   0.93182   0.38601   0.00000  Uiso   1.00
C10    C     0.13968   0.61189   0.40016   0.00000  Uiso   1.00
C11    C     0.11810   0.54502   0.43371   0.00000  Uiso   1.00
C12    C     0.10132   0.48754   0.38194   0.00000  Uiso   1.00
C13    C     0.06828   0.37739   0.32382   0.00000  Uiso   1.00
C14    C     0.16904   0.69877   0.29405   0.00000  Uiso   1.00
C15    C     0.24294   0.71181   0.33573   0.00000  Uiso   1.00
C16    C     0.30913   0.73076   0.29896   0.00000  Uiso   1.00
C17    C     0.37058   0.74025   0.34752   0.00000  Uiso   1.00
C18    C     0.11400   0.75194   0.33250   0.00000  Uiso   1.00
C19    C     0.07176   0.80462   0.29301   0.00000  Uiso   1.00
C20    C     0.02466   0.84789   0.33884   0.00000  Uiso   1.00
C21    C     0.14432   0.62103   0.31781   0.00000  Uiso   1.00
C22    C     0.12757   0.56365   0.26598   0.00000  Uiso   1.00
C23    C     0.10598   0.49670   0.29945   0.00000  Uiso   1.00
H24    H     0.15686   0.67481   0.50976   0.00000  Uiso   1.00
H25    H     0.29604   0.70506   0.53042   0.00000  Uiso   1.00
H26    H     0.05870   0.77889   0.52446   0.00000  Uiso   1.00
H27    H     0.11451   0.53796   0.49744   0.00000  Uiso   1.00
H28    H     0.45238   0.74264   0.51701   0.00000  Uiso   1.00
H29    H     0.95193   0.89832   0.50445   0.00000  Uiso   1.00
H30    H     0.06960   0.39026   0.44746   0.00000  Uiso   1.00
H31    H     0.17266   0.70589   0.22994   0.00000  Uiso   1.00
H32    H     0.31271   0.73784   0.23524   0.00000  Uiso   1.00
H33    H     0.07537   0.81168   0.22929   0.00000  Uiso   1.00
H34    H     0.13117   0.57075   0.20226   0.00000  Uiso   1.00
H35    H     0.46591   0.76925   0.27743   0.00000  Uiso   1.00
H36    H     0.96546   0.92493   0.26487   0.00000  Uiso   1.00
H37    H     0.08313   0.41687   0.20788   0.00000  Uiso   1.00
O38    O     0.55098   0.77643   0.40575   0.00000  Uiso   1.00
O39    O     0.89440   0.98066   0.38928   0.00000  Uiso   1.00
O40    O     0.04878   0.31410   0.31451   0.00000  Uiso   1.00
N41    N     0.43635   0.74451   0.45989   0.00000  Uiso   1.00
N42    N     0.96847   0.89006   0.44816   0.00000  Uiso   1.00
N43    N     0.07845   0.41508   0.39487   0.00000  Uiso   1.00
N44    N     0.44363   0.75883   0.33098   0.00000  Uiso   1.00
N45    N     0.97575   0.90438   0.31924   0.00000  Uiso   1.00
N46    N     0.08573   0.42940   0.26596   0.00000  Uiso   1.00
C47    C     0.83951   0.31807   0.44565   0.00000  Uiso   1.00
C48    C     0.76171   0.29733   0.41807   0.00000  Uiso   1.00
C49    C     0.70034   0.28787   0.46669   0.00000  Uiso   1.00
C50    C     0.63408   0.26891   0.43001   0.00000  Uiso   1.00
C51    C     0.51398   0.23807   0.39972   0.00000  Uiso   1.00
C52    C     0.89065   0.25721   0.41484   0.00000  Uiso   1.00
C53    C     0.93771   0.21401   0.46074   0.00000  Uiso   1.00
C54    C     0.98000   0.16128   0.42133   0.00000  Uiso   1.00
C55    C     0.06012   0.06818   0.38601   0.00000  Uiso   1.00
C56    C     0.86032   0.38811   0.40016   0.00000  Uiso   1.00
C57    C     0.88190   0.45498   0.43371   0.00000  Uiso   1.00
C58    C     0.89868   0.51246   0.38194   0.00000  Uiso   1.00
C59    C     0.93172   0.62261   0.32382   0.00000  Uiso   1.00
C60    C     0.83096   0.30123   0.29405   0.00000  Uiso   1.00
C61    C     0.75706   0.28819   0.33573   0.00000  Uiso   1.00
C62    C     0.69087   0.26924   0.29896   0.00000  Uiso   1.00
C63    C     0.62942   0.25975   0.34752   0.00000  Uiso   1.00
C64    C     0.88600   0.24806   0.33250   0.00000  Uiso   1.00
C65    C     0.92824   0.19538   0.29301   0.00000  Uiso   1.00
C66    C     0.97534   0.15211   0.33884   0.00000  Uiso   1.00
C67    C     0.85568   0.37897   0.31781   0.00000  Uiso   1.00
C68    C     0.87243   0.43635   0.26598   0.00000  Uiso   1.00
C69    C     0.89402   0.50330   0.29945   0.00000  Uiso   1.00
H70    H     0.84314   0.32519   0.50976   0.00000  Uiso   1.00
H71    H     0.70396   0.29494   0.53042   0.00000  Uiso   1.00
H72    H     0.94130   0.22111   0.52446   0.00000  Uiso   1.00
H73    H     0.88549   0.46204   0.49744   0.00000  Uiso   1.00
H74    H     0.54762   0.25736   0.51701   0.00000  Uiso   1.00
H75    H     0.04807   0.10168   0.50445   0.00000  Uiso   1.00
H76    H     0.93040   0.60974   0.44746   0.00000  Uiso   1.00
H77    H     0.82734   0.29411   0.22994   0.00000  Uiso   1.00
H78    H     0.68729   0.26216   0.23524   0.00000  Uiso   1.00
H79    H     0.92463   0.18832   0.22929   0.00000  Uiso   1.00
H80    H     0.86883   0.42925   0.20226   0.00000  Uiso   1.00
H81    H     0.53409   0.23075   0.27743   0.00000  Uiso   1.00
H82    H     0.03454   0.07507   0.26487   0.00000  Uiso   1.00
H83    H     0.91687   0.58313   0.20788   0.00000  Uiso   1.00
O84    O     0.44902   0.22357   0.40575   0.00000  Uiso   1.00
O85    O     0.10560   0.01934   0.38928   0.00000  Uiso   1.00
O86    O     0.95122   0.68590   0.31451   0.00000  Uiso   1.00
N87    N     0.56365   0.25549   0.45989   0.00000  Uiso   1.00
N88    N     0.03153   0.10994   0.44816   0.00000  Uiso   1.00
N89    N     0.92155   0.58492   0.39487   0.00000  Uiso   1.00
N90    N     0.55637   0.24117   0.33098   0.00000  Uiso   1.00
N91    N     0.02425   0.09562   0.31924   0.00000  Uiso   1.00
N92    N     0.91427   0.57060   0.26596   0.00000  Uiso   1.00
C93    C     0.68193   0.83951   0.55435   0.00000  Uiso   1.00
C94    C     0.70267   0.76171   0.58193   0.00000  Uiso   1.00
C95    C     0.71213   0.70034   0.53331   0.00000  Uiso   1.00
C96    C     0.73109   0.63408   0.56999   0.00000  Uiso   1.00
C97    C     0.76193   0.51398   0.60028   0.00000  Uiso   1.00
C98    C     0.74279   0.89065   0.58516   0.00000  Uiso   1.00
C99    C     0.78599   0.93771   0.53926   0.00000  Uiso   1.00
C100   C     0.83872   0.98000   0.57867   0.00000  Uiso   1.00
C101   C     0.93182   0.06012   0.61399   0.00000  Uiso   1.00
C102   C     0.61189   0.86032   0.59984   0.00000  Uiso   1.00
C103   C     0.54502   0.88190   0.56629   0.00000  Uiso   1.00
C104   C     0.48754   0.89868   0.61806   0.00000  Uiso   1.00
C105   C     0.37739   0.93172   0.67618   0.00000  Uiso   1.00
C106   C     0.69877   0.83096   0.70595   0.00000  Uiso   1.00
C107   C     0.71181   0.75706   0.66427   0.00000  Uiso   1.00
C108   C     0.73076   0.69087   0.70104   0.00000  Uiso   1.00
C109   C     0.74025   0.62942   0.65248   0.00000  Uiso   1.00
C110   C     0.75194   0.88600   0.66750   0.00000  Uiso   1.00
C111   C     0.80462   0.92824   0.70699   0.00000  Uiso   1.00
C112   C     0.84789   0.97534   0.66116   0.00000  Uiso   1.00
C113   C     0.62103   0.85568   0.68219   0.00000  Uiso   1.00
C114   C     0.56365   0.87243   0.73402   0.00000  Uiso   1.00
C115   C     0.49670   0.89402   0.70055   0.00000  Uiso   1.00
H116   H     0.67481   0.84314   0.49024   0.00000  Uiso   1.00
H117   H     0.70506   0.70396   0.46958   0.00000  Uiso   1.00
H118   H     0.77889   0.94130   0.47554   0.00000  Uiso   1.00
H119   H     0.53796   0.88549   0.50256   0.00000  Uiso   1.00
H120   H     0.74264   0.54762   0.48299   0.00000  Uiso   1.00
H121   H     0.89832   0.04807   0.49555   0.00000  Uiso   1.00
H122   H     0.39026   0.93040   0.55254   0.00000  Uiso   1.00
H123   H     0.70589   0.82734   0.77006   0.00000  Uiso   1.00
H124   H     0.73784   0.68729   0.76476   0.00000  Uiso   1.00
H125   H     0.81168   0.92463   0.77071   0.00000  Uiso   1.00
H126   H     0.57075   0.86883   0.79774   0.00000  Uiso   1.00
H127   H     0.76925   0.53409   0.72257   0.00000  Uiso   1.00
H128   H     0.92493   0.03454   0.73513   0.00000  Uiso   1.00
H129   H     0.41687   0.91687   0.79212   0.00000  Uiso   1.00
O130   O     0.77643   0.44902   0.59425   0.00000  Uiso   1.00
O131   O     0.98066   0.10560   0.61072   0.00000  Uiso   1.00
O132   O     0.31410   0.95122   0.68549   0.00000  Uiso   1.00
N133   N     0.74451   0.56365   0.54011   0.00000  Uiso   1.00
N134   N     0.89006   0.03153   0.55184   0.00000  Uiso   1.00
N135   N     0.41508   0.92155   0.60513   0.00000  Uiso   1.00
N136   N     0.75883   0.55637   0.66902   0.00000  Uiso   1.00
N137   N     0.90438   0.02425   0.68076   0.00000  Uiso   1.00
N138   N     0.42940   0.91427   0.73404   0.00000  Uiso   1.00
C139   C     0.31807   0.16049   0.55435   0.00000  Uiso   1.00
C140   C     0.29733   0.23829   0.58193   0.00000  Uiso   1.00
C141   C     0.28787   0.29966   0.53331   0.00000  Uiso   1.00
C142   C     0.26891   0.36592   0.56999   0.00000  Uiso   1.00
C143   C     0.23807   0.48602   0.60028   0.00000  Uiso   1.00
C144   C     0.25721   0.10935   0.58516   0.00000  Uiso   1.00
C145   C     0.21401   0.06229   0.53926   0.00000  Uiso   1.00
C146   C     0.16128   0.02000   0.57867   0.00000  Uiso   1.00
C147   C     0.06818   0.93988   0.61399   0.00000  Uiso   1.00
C148   C     0.38811   0.13968   0.59984   0.00000  Uiso   1.00
C149   C     0.45498   0.11810   0.56629   0.00000  Uiso   1.00
C150   C     0.51246   0.10132   0.61806   0.00000  Uiso   1.00
C151   C     0.62261   0.06828   0.67618   0.00000  Uiso   1.00
C152   C     0.30123   0.16904   0.70595   0.00000  Uiso   1.00
C153   C     0.28819   0.24294   0.66427   0.00000  Uiso   1.00
C154   C     0.26924   0.30913   0.70104   0.00000  Uiso   1.00
C155   C     0.25975   0.37058   0.65248   0.00000  Uiso   1.00
C156   C     0.24806   0.11400   0.66750   0.00000  Uiso   1.00
C157   C     0.19538   0.07176   0.70699   0.00000  Uiso   1.00
C158   C     0.15211   0.02466   0.66116   0.00000  Uiso   1.00
C159   C     0.37897   0.14432   0.68219   0.00000  Uiso   1.00
C160   C     0.43635   0.12757   0.73402   0.00000  Uiso   1.00
C161   C     0.50330   0.10598   0.70055   0.00000  Uiso   1.00
H162   H     0.32519   0.15686   0.49024   0.00000  Uiso   1.00
H163   H     0.29494   0.29604   0.46958   0.00000  Uiso   1.00
H164   H     0.22111   0.05870   0.47554   0.00000  Uiso   1.00
H165   H     0.46204   0.11451   0.50256   0.00000  Uiso   1.00
H166   H     0.25736   0.45238   0.48299   0.00000  Uiso   1.00
H167   H     0.10168   0.95193   0.49555   0.00000  Uiso   1.00
H168   H     0.60974   0.06960   0.55254   0.00000  Uiso   1.00
H169   H     0.29411   0.17266   0.77006   0.00000  Uiso   1.00
H170   H     0.26216   0.31271   0.76476   0.00000  Uiso   1.00
H171   H     0.18832   0.07537   0.77071   0.00000  Uiso   1.00
H172   H     0.42925   0.13117   0.79774   0.00000  Uiso   1.00
H173   H     0.23075   0.46591   0.72257   0.00000  Uiso   1.00
H174   H     0.07507   0.96546   0.73513   0.00000  Uiso   1.00
H175   H     0.58313   0.08313   0.79212   0.00000  Uiso   1.00
O176   O     0.22357   0.55098   0.59425   0.00000  Uiso   1.00
O177   O     0.01934   0.89440   0.61072   0.00000  Uiso   1.00
O178   O     0.68590   0.04878   0.68549   0.00000  Uiso   1.00
N179   N     0.25549   0.43635   0.54011   0.00000  Uiso   1.00
N180   N     0.10994   0.96847   0.55184   0.00000  Uiso   1.00
N181   N     0.58492   0.07845   0.60513   0.00000  Uiso   1.00
N182   N     0.24117   0.44363   0.66902   0.00000  Uiso   1.00
N183   N     0.09562   0.97575   0.68076   0.00000  Uiso   1.00
N184   N     0.57060   0.08573   0.73404   0.00000  Uiso   1.00
C185   C     0.33951   0.18193   0.05435   0.00000  Uiso   1.00
C186   C     0.26171   0.20267   0.08193   0.00000  Uiso   1.00
C187   C     0.20034   0.21213   0.03331   0.00000  Uiso   1.00
C188   C     0.13408   0.23109   0.06999   0.00000  Uiso   1.00
C189   C     0.01398   0.26193   0.10028   0.00000  Uiso   1.00
C190   C     0.39065   0.24279   0.08516   0.00000  Uiso   1.00
C191   C     0.43771   0.28599   0.03926   0.00000  Uiso   1.00
C192   C     0.48000   0.33872   0.07867   0.00000  Uiso   1.00
C193   C     0.56012   0.43182   0.11399   0.00000  Uiso   1.00
C194   C     0.36032   0.11189   0.09984   0.00000  Uiso   1.00
C195   C     0.38190   0.04502   0.06629   0.00000  Uiso   1.00
C196   C     0.39868   0.98754   0.11806   0.00000  Uiso   1.00
C197   C     0.43172   0.87739   0.17618   0.00000  Uiso   1.00
C198   C     0.33096   0.19877   0.20595   0.00000  Uiso   1.00
C199   C     0.25706   0.21181   0.16427   0.00000  Uiso   1.00
C200   C     0.19087   0.23076   0.20104   0.00000  Uiso   1.00
C201   C     0.12942   0.24025   0.15248   0.00000  Uiso   1.00
C202   C     0.38600   0.25194   0.16750   0.00000  Uiso   1.00
C203   C     0.42824   0.30462   0.20699   0.00000  Uiso   1.00
C204   C     0.47534   0.34789   0.16116   0.00000  Uiso   1.00
C205   C     0.35568   0.12103   0.18219   0.00000  Uiso   1.00
C206   C     0.37243   0.06365   0.23402   0.00000  Uiso   1.00
C207   C     0.39402   0.99670   0.20055   0.00000  Uiso   1.00
H208   H     0.34314   0.17481   0.99024   0.00000  Uiso   1.00
H209   H     0.20396   0.20506   0.96958   0.00000  Uiso   1.00
H210   H     0.44130   0.27889   0.97554   0.00000  Uiso   1.00
H211   H     0.38549   0.03796   0.00256   0.00000  Uiso   1.00
H212   H     0.04762   0.24264   0.98299   0.00000  Uiso   1.00
H213   H     0.54807   0.39832   0.99555   0.00000  Uiso   1.00
H214   H     0.43040   0.89026   0.05254   0.00000  Uiso   1.00
H215   H     0.32734   0.20589   0.27006   0.00000  Uiso   1.00
H216   H     0.18729   0.23784   0.26476   0.00000  Uiso   1.00
H217   H     0.42463   0.31168   0.27071   0.00000  Uiso   1.00
H218   H     0.36883   0.07075   0.29774   0.00000  Uiso   1.00
H219   H     0.03409   0.26925   0.22257   0.00000  Uiso   1.00
H220   H     0.53454   0.42493   0.23513   0.00000  Uiso   1.00
H221   H     0.41687   0.91687   0.29212   0.00000  Uiso   1.00
O222   O     0.94902   0.27643   0.09425   0.00000  Uiso   1.00
O223   O     0.60560   0.48066   0.11072   0.00000  Uiso   1.00
O224   O     0.45122   0.81410   0.18549   0.00000  Uiso   1.00
N225   N     0.06365   0.24451   0.04011   0.00000  Uiso   1.00
N226   N     0.53153   0.39006   0.05184   0.00000  Uiso   1.00
N227   N     0.42155   0.91508   0.10513   0.00000  Uiso   1.00
N228   N     0.05637   0.25883   0.16902   0.00000  Uiso   1.00
N229   N     0.52425   0.40438   0.18076   0.00000  Uiso   1.00
N230   N     0.41427   0.92940   0.23404   0.00000  Uiso   1.00
C231   C     0.66049   0.81807   0.05435   0.00000  Uiso   1.00
C232   C     0.73829   0.79733   0.08193   0.00000  Uiso   1.00
C233   C     0.79966   0.78787   0.03331   0.00000  Uiso   1.00
C234   C     0.86592   0.76891   0.06999   0.00000  Uiso   1.00
C235   C     0.98602   0.73807   0.10028   0.00000  Uiso   1.00
C236   C     0.60935   0.75721   0.08516   0.00000  Uiso   1.00
C237   C     0.56229   0.71401   0.03926   0.00000  Uiso   1.00
C238   C     0.52000   0.66128   0.07867   0.00000  Uiso   1.00
C239   C     0.43988   0.56818   0.11399   0.00000  Uiso   1.00
C240   C     0.63968   0.88811   0.09984   0.00000  Uiso   1.00
C241   C     0.61810   0.95498   0.06629   0.00000  Uiso   1.00
C242   C     0.60132   0.01246   0.11806   0.00000  Uiso   1.00
C243   C     0.56828   0.12261   0.17618   0.00000  Uiso   1.00
C244   C     0.66904   0.80123   0.20595   0.00000  Uiso   1.00
C245   C     0.74294   0.78819   0.16427   0.00000  Uiso   1.00
C246   C     0.80913   0.76924   0.20104   0.00000  Uiso   1.00
C247   C     0.87058   0.75975   0.15248   0.00000  Uiso   1.00
C248   C     0.61400   0.74806   0.16750   0.00000  Uiso   1.00
C249   C     0.57176   0.69538   0.20699   0.00000  Uiso   1.00
C250   C     0.52466   0.65211   0.16116   0.00000  Uiso   1.00
C251   C     0.64432   0.87897   0.18219   0.00000  Uiso   1.00
C252   C     0.62757   0.93635   0.23402   0.00000  Uiso   1.00
C253   C     0.60598   0.00330   0.20055   0.00000  Uiso   1.00
H254   H     0.65686   0.82519   0.99024   0.00000  Uiso   1.00
H255   H     0.79604   0.79494   0.96958   0.00000  Uiso   1.00
H256   H     0.55870   0.72111   0.97554   0.00000  Uiso   1.00
H257   H     0.61451   0.96204   0.00256   0.00000  Uiso   1.00
H258   H     0.95238   0.75736   0.98299   0.00000  Uiso   1.00
H259   H     0.45193   0.60168   0.99555   0.00000  Uiso   1.00
H260   H     0.56960   0.10974   0.05254   0.00000  Uiso   1.00
H261   H     0.67266   0.79411   0.27006   0.00000  Uiso   1.00
H262   H     0.81271   0.76216   0.26476   0.00000  Uiso   1.00
H263   H     0.57537   0.68832   0.27071   0.00000  Uiso   1.00
H264   H     0.63117   0.92925   0.29774   0.00000  Uiso   1.00
H265   H     0.96591   0.73075   0.22257   0.00000  Uiso   1.00
H266   H     0.46546   0.57507   0.23513   0.00000  Uiso   1.00
H267   H     0.58313   0.08313   0.29212   0.00000  Uiso   1.00
O268   O     0.05098   0.72357   0.09425   0.00000  Uiso   1.00
O269   O     0.39440   0.51934   0.11072   0.00000  Uiso   1.00
O270   O     0.54878   0.18590   0.18549   0.00000  Uiso   1.00
N271   N     0.93635   0.75549   0.04011   0.00000  Uiso   1.00
N272   N     0.46847   0.60994   0.05184   0.00000  Uiso   1.00
N273   N     0.57845   0.08492   0.10513   0.00000  Uiso   1.00
N274   N     0.94363   0.74117   0.16902   0.00000  Uiso   1.00
N275   N     0.47575   0.59562   0.18076   0.00000  Uiso   1.00
N276   N     0.58573   0.07060   0.23404   0.00000  Uiso   1.00
C277   C     0.81807   0.33951   0.94565   0.00000  Uiso   1.00
C278   C     0.79733   0.26171   0.91807   0.00000  Uiso   1.00
C279   C     0.78787   0.20034   0.96669   0.00000  Uiso   1.00
C280   C     0.76891   0.13408   0.93001   0.00000  Uiso   1.00
C281   C     0.73807   0.01398   0.89972   0.00000  Uiso   1.00
C282   C     0.75721   0.39065   0.91484   0.00000  Uiso   1.00
C283   C     0.71401   0.43771   0.96074   0.00000  Uiso   1.00
C284   C     0.66128   0.48000   0.92133   0.00000  Uiso   1.00
C285   C     0.56818   0.56012   0.88601   0.00000  Uiso   1.00
C286   C     0.88811   0.36032   0.90016   0.00000  Uiso   1.00
C287   C     0.95498   0.38190   0.93371   0.00000  Uiso   1.00
C288   C     0.01246   0.39868   0.88194   0.00000  Uiso   1.00
C289   C     0.12261   0.43172   0.82382   0.00000  Uiso   1.00
C290   C     0.80123   0.33096   0.79405   0.00000  Uiso   1.00
C291   C     0.78819   0.25706   0.83573   0.00000  Uiso   1.00
C292   C     0.76924   0.19087   0.79896   0.00000  Uiso   1.00
C293   C     0.75975   0.12942   0.84752   0.00000  Uiso   1.00
C294   C     0.74806   0.38600   0.83250   0.00000  Uiso   1.00
C295   C     0.69538   0.42824   0.79301   0.00000  Uiso   1.00
C296   C     0.65211   0.47534   0.83884   0.00000  Uiso   1.00
C297   C     0.87897   0.35568   0.81781   0.00000  Uiso   1.00
C298   C     0.93635   0.37243   0.76598   0.00000  Uiso   1.00
C299   C     0.00330   0.39402   0.79945   0.00000  Uiso   1.00
H300   H     0.82519   0.34314   0.00976   0.00000  Uiso   1.00
H301   H     0.79494   0.20396   0.03042   0.00000  Uiso   1.00
H302   H     0.72111   0.44130   0.02446   0.00000  Uiso   1.00
H303   H     0.96204   0.38549   0.99744   0.00000  Uiso   1.00
H304   H     0.75736   0.04762   0.01701   0.00000  Uiso   1.00
H305   H     0.60168   0.54807   0.00445   0.00000  Uiso   1.00
H306   H     0.10974   0.43040   0.94746   0.00000  Uiso   1.00
H307   H     0.79411   0.32734   0.72994   0.00000  Uiso   1.00
H308   H     0.76216   0.18729   0.73524   0.00000  Uiso   1.00
H309   H     0.68832   0.42463   0.72929   0.00000  Uiso   1.00
H310   H     0.92925   0.36883   0.70226   0.00000  Uiso   1.00
H311   H     0.73075   0.03409   0.77743   0.00000  Uiso   1.00
H312   H     0.57507   0.53454   0.76487   0.00000  Uiso   1.00
H313   H     0.08313   0.41687   0.70788   0.00000  Uiso   1.00
O314   O     0.72357   0.94902   0.90575   0.00000  Uiso   1.00
O315   O     0.51934   0.60560   0.88928   0.00000  Uiso   1.00
O316   O     0.18590   0.45122   0.81451   0.00000  Uiso   1.00
N317   N     0.75549   0.06365   0.95989   0.00000  Uiso   1.00
N318   N     0.60994   0.53153   0.94816   0.00000  Uiso   1.00
N319   N     0.08492   0.42155   0.89487   0.00000  Uiso   1.00
N320   N     0.74117   0.05637   0.83098   0.00000  Uiso   1.00
N321   N     0.59562   0.52425   0.81924   0.00000  Uiso   1.00
N322   N     0.07060   0.41427   0.76596   0.00000  Uiso   1.00
C323   C     0.18193   0.66049   0.94565   0.00000  Uiso   1.00
C324   C     0.20267   0.73829   0.91807   0.00000  Uiso   1.00
C325   C     0.21213   0.79966   0.96669   0.00000  Uiso   1.00
C326   C     0.23109   0.86592   0.93001   0.00000  Uiso   1.00
C327   C     0.26193   0.98602   0.89972   0.00000  Uiso   1.00
C328   C     0.24279   0.60935   0.91484   0.00000  Uiso   1.00
C329   C     0.28599   0.56229   0.96074   0.00000  Uiso   1.00
C330   C     0.33872   0.52000   0.92133   0.00000  Uiso   1.00
C331   C     0.43182   0.43988   0.88601   0.00000  Uiso   1.00
C332   C     0.11189   0.63968   0.90016   0.00000  Uiso   1.00
C333   C     0.04502   0.61810   0.93371   0.00000  Uiso   1.00
C334   C     0.98754   0.60132   0.88194   0.00000  Uiso   1.00
C335   C     0.87739   0.56828   0.82382   0.00000  Uiso   1.00
C336   C     0.19877   0.66904   0.79405   0.00000  Uiso   1.00
C337   C     0.21181   0.74294   0.83573   0.00000  Uiso   1.00
C338   C     0.23076   0.80913   0.79896   0.00000  Uiso   1.00
C339   C     0.24025   0.87058   0.84752   0.00000  Uiso   1.00
C340   C     0.25194   0.61400   0.83250   0.00000  Uiso   1.00
C341   C     0.30462   0.57176   0.79301   0.00000  Uiso   1.00
C342   C     0.34789   0.52466   0.83884   0.00000  Uiso   1.00
C343   C     0.12103   0.64432   0.81781   0.00000  Uiso   1.00
C344   C     0.06365   0.62757   0.76598   0.00000  Uiso   1.00
C345   C     0.99670   0.60598   0.79945   0.00000  Uiso   1.00
H346   H     0.17481   0.65686   0.00976   0.00000  Uiso   1.00
H347   H     0.20506   0.79604   0.03042   0.00000  Uiso   1.00
H348   H     0.27889   0.55870   0.02446   0.00000  Uiso   1.00
H349   H     0.03796   0.61451   0.99744   0.00000  Uiso   1.00
H350   H     0.24264   0.95238   0.01701   0.00000  Uiso   1.00
H351   H     0.39832   0.45193   0.00445   0.00000  Uiso   1.00
H352   H     0.89026   0.56960   0.94746   0.00000  Uiso   1.00
H353   H     0.20589   0.67266   0.72994   0.00000  Uiso   1.00
H354   H     0.23784   0.81271   0.73524   0.00000  Uiso   1.00
H355   H     0.31168   0.57537   0.72929   0.00000  Uiso   1.00
H356   H     0.07075   0.63117   0.70226   0.00000  Uiso   1.00
H357   H     0.26925   0.96591   0.77743   0.00000  Uiso   1.00
H358   H     0.42493   0.46546   0.76487   0.00000  Uiso   1.00
H359   H     0.91687   0.58313   0.70788   0.00000  Uiso   1.00
O360   O     0.27643   0.05098   0.90575   0.00000  Uiso   1.00
O361   O     0.48066   0.39440   0.88928   0.00000  Uiso   1.00
O362   O     0.81410   0.54878   0.81451   0.00000  Uiso   1.00
N363   N     0.24451   0.93635   0.95989   0.00000  Uiso   1.00
N364   N     0.39006   0.46847   0.94816   0.00000  Uiso   1.00
N365   N     0.91508   0.57845   0.89487   0.00000  Uiso   1.00
N366   N     0.25883   0.94363   0.83098   0.00000  Uiso   1.00
N367   N     0.40438   0.47575   0.81924   0.00000  Uiso   1.00
N368   N     0.92940   0.58573   0.76596   0.00000  Uiso   1.00
