data_job_02519
_audit_creation_date              2018-12-19
_audit_creation_method            'Materials Studio'
_symmetry_space_group_name_H-M    'P1'
_symmetry_Int_Tables_number       1
_symmetry_cell_setting            triclinic
loop_
_symmetry_equiv_pos_as_xyz
  x,y,z
_cell_length_a                    15.5463
_cell_length_b                    39.5588
_cell_length_c                    9.5330
_cell_angle_alpha                 90.0000
_cell_angle_beta                  138.9630
_cell_angle_gamma                 90.0000
loop_
_atom_site_label
_atom_site_type_symbol
_atom_site_fract_x
_atom_site_fract_y
_atom_site_fract_z
_atom_site_U_iso_or_equiv
_atom_site_adp_type
_atom_site_occupancy
C1     C     0.83440   0.15016   0.50900   0.00000  Uiso   1.00
C2     C     0.78355   0.17825   0.54150   0.00000  Uiso   1.00
C3     C     0.65287   0.18653   0.40155   0.00000  Uiso   1.00
C4     C     0.62654   0.21306   0.46025   0.00000  Uiso   1.00
C5     C     0.53226   0.25402   0.48148   0.00000  Uiso   1.00
C6     C     0.92872   0.16703   0.52261   0.00000  Uiso   1.00
C7     C     0.92008   0.16587   0.36678   0.00000  Uiso   1.00
C8     C     0.01597   0.18296   0.40960   0.00000  Uiso   1.00
C9     C     0.14711   0.20648   0.40157   0.00000  Uiso   1.00
C10    C     0.91816   0.12739   0.70488   0.00000  Uiso   1.00
C11    C     0.90068   0.09290   0.70231   0.00000  Uiso   1.00
C12    C     0.98770   0.07661   0.89858   0.00000  Uiso   1.00
C13    C     0.10244   0.03858   0.17355   0.00000  Uiso   1.00
C14    C     0.02005   0.18256   0.86212   0.00000  Uiso   1.00
C15    C     0.88440   0.19585   0.73330   0.00000  Uiso   1.00
C16    C     0.85827   0.22238   0.79224   0.00000  Uiso   1.00
C17    C     0.72756   0.23069   0.65240   0.00000  Uiso   1.00
C18    C     0.02955   0.18463   0.71440   0.00000  Uiso   1.00
C19    C     0.12548   0.20172   0.75747   0.00000  Uiso   1.00
C20    C     0.11700   0.20059   0.60174   0.00000  Uiso   1.00
C21    C     0.01900   0.14499   0.89668   0.00000  Uiso   1.00
C22    C     0.10607   0.12875   0.09299   0.00000  Uiso   1.00
C23    C     0.08872   0.09424   0.09073   0.00000  Uiso   1.00
H24    H     0.75590   0.13646   0.35968   0.00000  Uiso   1.00
H25    H     0.57486   0.17291   0.25312   0.00000  Uiso   1.00
H26    H     0.84205   0.15225   0.21838   0.00000  Uiso   1.00
H27    H     0.82264   0.07929   0.55386   0.00000  Uiso   1.00
H28    H     0.41861   0.22109   0.21954   0.00000  Uiso   1.00
H29    H     0.98201   0.17752   0.14631   0.00000  Uiso   1.00
H30    H     0.94109   0.02368   0.85372   0.00000  Uiso   1.00
H31    H     0.09856   0.19626   0.01145   0.00000  Uiso   1.00
H32    H     0.93632   0.23599   0.94067   0.00000  Uiso   1.00
H33    H     0.20351   0.21533   0.90592   0.00000  Uiso   1.00
H34    H     0.18409   0.14237   0.24139   0.00000  Uiso   1.00
H35    H     0.71199   0.27229   0.77757   0.00000  Uiso   1.00
H36    H     0.27539   0.22872   0.70434   0.00000  Uiso   1.00
H37    H     0.23446   0.07487   0.41174   0.00000  Uiso   1.00
O38    O     0.45239   0.27175   0.44020   0.00000  Uiso   1.00
O39    O     0.19157   0.21459   0.34414   0.00000  Uiso   1.00
O40    O     0.13786   0.01275   0.27223   0.00000  Uiso   1.00
N41    N     0.50992   0.22768   0.36061   0.00000  Uiso   1.00
N42    N     0.03666   0.18695   0.29212   0.00000  Uiso   1.00
N43    N     0.99842   0.04312   0.95349   0.00000  Uiso   1.00
N44    N     0.66779   0.25523   0.66088   0.00000  Uiso   1.00
N45    N     0.19452   0.21450   0.59240   0.00000  Uiso   1.00
N46    N     0.15628   0.07067   0.25376   0.00000  Uiso   1.00
C47    C     0.16560   0.65016   0.99100   0.00000  Uiso   1.00
C48    C     0.21645   0.67825   0.95850   0.00000  Uiso   1.00
C49    C     0.34713   0.68653   0.09845   0.00000  Uiso   1.00
C50    C     0.37346   0.71306   0.03975   0.00000  Uiso   1.00
C51    C     0.46774   0.75402   0.01852   0.00000  Uiso   1.00
C52    C     0.07128   0.66703   0.97739   0.00000  Uiso   1.00
C53    C     0.07992   0.66587   0.13322   0.00000  Uiso   1.00
C54    C     0.98403   0.68296   0.09040   0.00000  Uiso   1.00
C55    C     0.85289   0.70648   0.09843   0.00000  Uiso   1.00
C56    C     0.08184   0.62739   0.79512   0.00000  Uiso   1.00
C57    C     0.09932   0.59290   0.79769   0.00000  Uiso   1.00
C58    C     0.01230   0.57661   0.60142   0.00000  Uiso   1.00
C59    C     0.89756   0.53858   0.32645   0.00000  Uiso   1.00
C60    C     0.97995   0.68256   0.63788   0.00000  Uiso   1.00
C61    C     0.11560   0.69585   0.76670   0.00000  Uiso   1.00
C62    C     0.14173   0.72238   0.70776   0.00000  Uiso   1.00
C63    C     0.27244   0.73069   0.84760   0.00000  Uiso   1.00
C64    C     0.97045   0.68463   0.78560   0.00000  Uiso   1.00
C65    C     0.87452   0.70172   0.74253   0.00000  Uiso   1.00
C66    C     0.88300   0.70059   0.89826   0.00000  Uiso   1.00
C67    C     0.98100   0.64499   0.60332   0.00000  Uiso   1.00
C68    C     0.89393   0.62875   0.40701   0.00000  Uiso   1.00
C69    C     0.91128   0.59424   0.40927   0.00000  Uiso   1.00
H70    H     0.24410   0.63646   0.14032   0.00000  Uiso   1.00
H71    H     0.42514   0.67291   0.24688   0.00000  Uiso   1.00
H72    H     0.15795   0.65225   0.28162   0.00000  Uiso   1.00
H73    H     0.17736   0.57929   0.94614   0.00000  Uiso   1.00
H74    H     0.58139   0.72109   0.28046   0.00000  Uiso   1.00
H75    H     0.01799   0.67752   0.35369   0.00000  Uiso   1.00
H76    H     0.05891   0.52368   0.64628   0.00000  Uiso   1.00
H77    H     0.90144   0.69626   0.48855   0.00000  Uiso   1.00
H78    H     0.06368   0.73599   0.55933   0.00000  Uiso   1.00
H79    H     0.79649   0.71533   0.59408   0.00000  Uiso   1.00
H80    H     0.81591   0.64237   0.25861   0.00000  Uiso   1.00
H81    H     0.28801   0.77229   0.72243   0.00000  Uiso   1.00
H82    H     0.72461   0.72872   0.79566   0.00000  Uiso   1.00
H83    H     0.76554   0.57487   0.08826   0.00000  Uiso   1.00
O84    O     0.54761   0.77175   0.05980   0.00000  Uiso   1.00
O85    O     0.80843   0.71459   0.15586   0.00000  Uiso   1.00
O86    O     0.86214   0.51275   0.22777   0.00000  Uiso   1.00
N87    N     0.49008   0.72768   0.13939   0.00000  Uiso   1.00
N88    N     0.96334   0.68695   0.20788   0.00000  Uiso   1.00
N89    N     0.00158   0.54312   0.54651   0.00000  Uiso   1.00
N90    N     0.33221   0.75523   0.83912   0.00000  Uiso   1.00
N91    N     0.80548   0.71450   0.90760   0.00000  Uiso   1.00
N92    N     0.84372   0.57067   0.24624   0.00000  Uiso   1.00
C93    C     0.16560   0.84984   0.49100   0.00000  Uiso   1.00
C94    C     0.21645   0.82175   0.45850   0.00000  Uiso   1.00
C95    C     0.34713   0.81347   0.59845   0.00000  Uiso   1.00
C96    C     0.37346   0.78694   0.53975   0.00000  Uiso   1.00
C97    C     0.46774   0.74598   0.51852   0.00000  Uiso   1.00
C98    C     0.07128   0.83297   0.47739   0.00000  Uiso   1.00
C99    C     0.07992   0.83413   0.63322   0.00000  Uiso   1.00
C100   C     0.98403   0.81704   0.59040   0.00000  Uiso   1.00
C101   C     0.85289   0.79352   0.59843   0.00000  Uiso   1.00
C102   C     0.08184   0.87261   0.29512   0.00000  Uiso   1.00
C103   C     0.09932   0.90710   0.29769   0.00000  Uiso   1.00
C104   C     0.01230   0.92339   0.10142   0.00000  Uiso   1.00
C105   C     0.89756   0.96142   0.82645   0.00000  Uiso   1.00
C106   C     0.97995   0.81744   0.13788   0.00000  Uiso   1.00
C107   C     0.11560   0.80415   0.26670   0.00000  Uiso   1.00
C108   C     0.14173   0.77762   0.20776   0.00000  Uiso   1.00
C109   C     0.27244   0.76931   0.34760   0.00000  Uiso   1.00
C110   C     0.97045   0.81537   0.28560   0.00000  Uiso   1.00
C111   C     0.87452   0.79828   0.24253   0.00000  Uiso   1.00
C112   C     0.88300   0.79941   0.39826   0.00000  Uiso   1.00
C113   C     0.98100   0.85501   0.10332   0.00000  Uiso   1.00
C114   C     0.89393   0.87125   0.90701   0.00000  Uiso   1.00
C115   C     0.91128   0.90576   0.90927   0.00000  Uiso   1.00
H116   H     0.24410   0.86354   0.64032   0.00000  Uiso   1.00
H117   H     0.42514   0.82709   0.74688   0.00000  Uiso   1.00
H118   H     0.15795   0.84775   0.78162   0.00000  Uiso   1.00
H119   H     0.17736   0.92071   0.44614   0.00000  Uiso   1.00
H120   H     0.58139   0.77891   0.78046   0.00000  Uiso   1.00
H121   H     0.01799   0.82248   0.85369   0.00000  Uiso   1.00
H122   H     0.05891   0.97632   0.14628   0.00000  Uiso   1.00
H123   H     0.90144   0.80374   0.98855   0.00000  Uiso   1.00
H124   H     0.06368   0.76401   0.05933   0.00000  Uiso   1.00
H125   H     0.79649   0.78467   0.09408   0.00000  Uiso   1.00
H126   H     0.81591   0.85763   0.75861   0.00000  Uiso   1.00
H127   H     0.28801   0.72771   0.22243   0.00000  Uiso   1.00
H128   H     0.72461   0.77128   0.29566   0.00000  Uiso   1.00
H129   H     0.76554   0.92513   0.58826   0.00000  Uiso   1.00
O130   O     0.54761   0.72825   0.55980   0.00000  Uiso   1.00
O131   O     0.80843   0.78541   0.65586   0.00000  Uiso   1.00
O132   O     0.86214   0.98725   0.72777   0.00000  Uiso   1.00
N133   N     0.49008   0.77232   0.63939   0.00000  Uiso   1.00
N134   N     0.96334   0.81305   0.70788   0.00000  Uiso   1.00
N135   N     0.00158   0.95688   0.04651   0.00000  Uiso   1.00
N136   N     0.33221   0.74477   0.33912   0.00000  Uiso   1.00
N137   N     0.80548   0.78550   0.40760   0.00000  Uiso   1.00
N138   N     0.84372   0.92933   0.74624   0.00000  Uiso   1.00
C139   C     0.83440   0.34984   0.00900   0.00000  Uiso   1.00
C140   C     0.78355   0.32175   0.04150   0.00000  Uiso   1.00
C141   C     0.65287   0.31347   0.90155   0.00000  Uiso   1.00
C142   C     0.62654   0.28694   0.96025   0.00000  Uiso   1.00
C143   C     0.53226   0.24598   0.98148   0.00000  Uiso   1.00
C144   C     0.92872   0.33297   0.02261   0.00000  Uiso   1.00
C145   C     0.92008   0.33413   0.86678   0.00000  Uiso   1.00
C146   C     0.01597   0.31704   0.90960   0.00000  Uiso   1.00
C147   C     0.14711   0.29352   0.90157   0.00000  Uiso   1.00
C148   C     0.91816   0.37261   0.20488   0.00000  Uiso   1.00
C149   C     0.90068   0.40710   0.20231   0.00000  Uiso   1.00
C150   C     0.98770   0.42339   0.39858   0.00000  Uiso   1.00
C151   C     0.10244   0.46142   0.67355   0.00000  Uiso   1.00
C152   C     0.02005   0.31744   0.36212   0.00000  Uiso   1.00
C153   C     0.88440   0.30415   0.23330   0.00000  Uiso   1.00
C154   C     0.85827   0.27762   0.29224   0.00000  Uiso   1.00
C155   C     0.72756   0.26931   0.15240   0.00000  Uiso   1.00
C156   C     0.02955   0.31537   0.21440   0.00000  Uiso   1.00
C157   C     0.12548   0.29828   0.25747   0.00000  Uiso   1.00
C158   C     0.11700   0.29941   0.10174   0.00000  Uiso   1.00
C159   C     0.01900   0.35501   0.39668   0.00000  Uiso   1.00
C160   C     0.10607   0.37125   0.59299   0.00000  Uiso   1.00
C161   C     0.08872   0.40576   0.59073   0.00000  Uiso   1.00
H162   H     0.75590   0.36354   0.85968   0.00000  Uiso   1.00
H163   H     0.57486   0.32709   0.75312   0.00000  Uiso   1.00
H164   H     0.84205   0.34775   0.71838   0.00000  Uiso   1.00
H165   H     0.82264   0.42071   0.05386   0.00000  Uiso   1.00
H166   H     0.41861   0.27891   0.71954   0.00000  Uiso   1.00
H167   H     0.98201   0.32248   0.64631   0.00000  Uiso   1.00
H168   H     0.94109   0.47632   0.35372   0.00000  Uiso   1.00
H169   H     0.09856   0.30374   0.51145   0.00000  Uiso   1.00
H170   H     0.93632   0.26401   0.44067   0.00000  Uiso   1.00
H171   H     0.20351   0.28467   0.40592   0.00000  Uiso   1.00
H172   H     0.18409   0.35763   0.74139   0.00000  Uiso   1.00
H173   H     0.71199   0.22771   0.27757   0.00000  Uiso   1.00
H174   H     0.27539   0.27128   0.20434   0.00000  Uiso   1.00
H175   H     0.23446   0.42513   0.91174   0.00000  Uiso   1.00
O176   O     0.45239   0.22825   0.94020   0.00000  Uiso   1.00
O177   O     0.19157   0.28541   0.84414   0.00000  Uiso   1.00
O178   O     0.13786   0.48725   0.77223   0.00000  Uiso   1.00
N179   N     0.50992   0.27232   0.86061   0.00000  Uiso   1.00
N180   N     0.03666   0.31305   0.79212   0.00000  Uiso   1.00
N181   N     0.99842   0.45688   0.45349   0.00000  Uiso   1.00
N182   N     0.66779   0.24477   0.16088   0.00000  Uiso   1.00
N183   N     0.19452   0.28550   0.09240   0.00000  Uiso   1.00
N184   N     0.15628   0.42933   0.75376   0.00000  Uiso   1.00
